MODEL 1
REMARK VINA RESULT:    -8.220      0.000      0.000
REMARK INTER + INTRA:         -12.364
REMARK INTER:                 -11.583
REMARK INTRA:                  -0.780
REMARK UNBOUND:                -0.780
REMARK  Name = 
REMARK  8 active torsions:
REMARK  status: ('A' for Active; 'I' for Inactive)
REMARK    1  A    between atoms: C_1  and  C_2
REMARK    2  A    between atoms: C_2  and  C_3
REMARK    3  A    between atoms: C_7  and  C_8
REMARK    4  A    between atoms: C_8  and  C_9
REMARK    5  A    between atoms: C_9  and  N_10
REMARK    6  A    between atoms: C_14  and  C_15
REMARK    7  A    between atoms: N_23  and  C_24
REMARK    8  A    between atoms: C_24  and  C_25
REMARK                            x       y       z     vdW  Elec       q    Type
REMARK                         _______ _______ _______ _____ _____    ______ ____
ROOT
ATOM      1  C   UNL     1      46.714   6.509  13.069  0.00  0.00    +0.000 A 
ATOM      2  C   UNL     1      47.425   5.422  13.598  0.00  0.00    +0.000 A 
ATOM      3  C   UNL     1      46.849   4.148  13.668  0.00  0.00    +0.000 A 
ATOM      4  C   UNL     1      45.529   3.945  13.263  0.00  0.00    +0.000 A 
ATOM      5  C   UNL     1      44.797   4.999  12.717  0.00  0.00    +0.000 A 
ATOM      6  C   UNL     1      45.446   6.233  12.548  0.00  0.00    +0.000 A 
ENDROOT
BRANCH   1   8
ATOM      7  C   UNL     1      46.053   8.925  13.265  0.00  0.00    +0.000 C 
ATOM      8  C   UNL     1      47.250   7.956  13.159  0.00  0.00    +0.000 C 
ATOM      9  C   UNL     1      48.058   8.281  11.872  0.00  0.00    +0.000 C 
ATOM     10  C   UNL     1      49.413   7.565  11.847  0.00  0.00    +0.000 C 
ATOM     11  N   UNL     1      50.280   7.902  12.982  0.00  0.00    +0.000 NA
ATOM     12  C   UNL     1      49.600   7.626  14.252  0.00  0.00    +0.000 C 
ATOM     13  C   UNL     1      48.196   8.249  14.370  0.00  0.00    +0.000 C 
BRANCH  11  14
ATOM     14  C   UNL     1      50.833   9.278  12.948  0.00  0.00    +0.000 C 
BRANCH  14  15
ATOM     15  C   UNL     1      51.580   9.764  11.684  0.00  0.00    +0.000 C 
ATOM     16  F   UNL     1      52.327   8.809  11.092  0.00  0.00    +0.000 F 
ATOM     17  F   UNL     1      50.697  10.217  10.763  0.00  0.00    +0.000 F 
ATOM     18  F   UNL     1      52.408  10.792  11.985  0.00  0.00    +0.000 F 
ENDBRANCH  14  15
ENDBRANCH  11  14
ENDBRANCH   1   8
BRANCH   5  19
ATOM     19  C   UNL     1      43.313   4.832  12.410  0.00  0.00    +0.000 C 
BRANCH  19  20
ATOM     20  C   UNL     1      43.039   4.261  11.010  0.00  0.00    +0.000 C 
BRANCH  20  21
ATOM     21  N   UNL     1      43.811   4.897   9.944  0.00  0.00    +0.000 N 
ATOM     22  C   UNL     1      44.634   3.946   9.292  0.00  0.00    +0.000 A 
ATOM     23  C   UNL     1      45.453   4.384   8.253  0.00  0.00    +0.000 A 
ATOM     24  C   UNL     1      46.264   3.464   7.578  0.00  0.00    +0.000 A 
ATOM     25  C   UNL     1      46.239   2.123   7.955  0.00  0.00    +0.000 A 
ATOM     26  C   UNL     1      45.408   1.768   9.004  0.00  0.00    +0.000 A 
ATOM     27  N   UNL     1      44.607   2.644   9.660  0.00  0.00    +0.000 NA
ATOM     28  H   UNL     1      44.414   5.633  10.305  0.00  0.00    +0.000 HD
BRANCH  25  29
ATOM     29  C   UNL     1      47.056   1.070   7.315  0.00  0.00    +0.000 C 
ATOM     30  N   UNL     1      46.785  -0.226   7.658  0.00  0.00    +0.000 N 
ATOM     31  O   UNL     1      47.958   1.344   6.535  0.00  0.00    +0.000 OA
ATOM     32  H   UNL     1      46.234  -0.475   8.465  0.00  0.00    +0.000 HD
ATOM     33  H   UNL     1      47.416  -0.927   7.288  0.00  0.00    +0.000 HD
ENDBRANCH  25  29
ENDBRANCH  20  21
ENDBRANCH  19  20
ENDBRANCH   5  19
TORSDOF 7
ENDMDL
MODEL 2
REMARK VINA RESULT:    -7.514      2.848      3.744
REMARK INTER + INTRA:         -11.369
REMARK INTER:                 -10.724
REMARK INTRA:                  -0.646
REMARK UNBOUND:                -0.780
REMARK  Name = 
REMARK  8 active torsions:
REMARK  status: ('A' for Active; 'I' for Inactive)
REMARK    1  A    between atoms: C_1  and  C_2
REMARK    2  A    between atoms: C_2  and  C_3
REMARK    3  A    between atoms: C_7  and  C_8
REMARK    4  A    between atoms: C_8  and  C_9
REMARK    5  A    between atoms: C_9  and  N_10
REMARK    6  A    between atoms: C_14  and  C_15
REMARK    7  A    between atoms: N_23  and  C_24
REMARK    8  A    between atoms: C_24  and  C_25
REMARK                            x       y       z     vdW  Elec       q    Type
REMARK                         _______ _______ _______ _____ _____    ______ ____
ROOT
ATOM      1  C   UNL     1      47.017   8.075  12.465  0.00  0.00    +0.000 A 
ATOM      2  C   UNL     1      46.522   9.285  11.957  0.00  0.00    +0.000 A 
ATOM      3  C   UNL     1      45.186   9.406  11.559  0.00  0.00    +0.000 A 
ATOM      4  C   UNL     1      44.329   8.305  11.607  0.00  0.00    +0.000 A 
ATOM      5  C   UNL     1      44.783   7.090  12.122  0.00  0.00    +0.000 A 
ATOM      6  C   UNL     1      46.093   7.037  12.626  0.00  0.00    +0.000 A 
ENDROOT
BRANCH   1   8
ATOM      7  C   UNL     1      49.286   7.983  11.390  0.00  0.00    +0.000 C 
ATOM      8  C   UNL     1      48.525   7.858  12.728  0.00  0.00    +0.000 C 
ATOM      9  C   UNL     1      48.742   6.432  13.308  0.00  0.00    +0.000 C 
ATOM     10  C   UNL     1      48.266   6.323  14.760  0.00  0.00    +0.000 C 
ATOM     11  N   UNL     1      48.941   7.254  15.673  0.00  0.00    +0.000 NA
ATOM     12  C   UNL     1      48.790   8.636  15.207  0.00  0.00    +0.000 C 
ATOM     13  C   UNL     1      49.183   8.857  13.735  0.00  0.00    +0.000 C 
BRANCH  11  14
ATOM     14  C   UNL     1      50.360   6.924  15.950  0.00  0.00    +0.000 C 
BRANCH  14  15
ATOM     15  C   UNL     1      50.696   5.840  17.001  0.00  0.00    +0.000 C 
ATOM     16  F   UNL     1      49.844   4.793  16.996  0.00  0.00    +0.000 F 
ATOM     17  F   UNL     1      51.941   5.350  16.788  0.00  0.00    +0.000 F 
ATOM     18  F   UNL     1      50.681   6.364  18.250  0.00  0.00    +0.000 F 
ENDBRANCH  14  15
ENDBRANCH  11  14
ENDBRANCH   1   8
BRANCH   5  19
ATOM     19  C   UNL     1      43.910   5.844  12.042  0.00  0.00    +0.000 C 
BRANCH  19  20
ATOM     20  C   UNL     1      43.755   5.296  10.615  0.00  0.00    +0.000 C 
BRANCH  20  21
ATOM     21  N   UNL     1      43.870   3.842  10.518  0.00  0.00    +0.000 N 
ATOM     22  C   UNL     1      44.781   3.484   9.492  0.00  0.00    +0.000 A 
ATOM     23  C   UNL     1      45.004   2.130   9.251  0.00  0.00    +0.000 A 
ATOM     24  C   UNL     1      45.911   1.745   8.257  0.00  0.00    +0.000 A 
ATOM     25  C   UNL     1      46.579   2.724   7.524  0.00  0.00    +0.000 A 
ATOM     26  C   UNL     1      46.296   4.048   7.815  0.00  0.00    +0.000 A 
ATOM     27  N   UNL     1      45.430   4.437   8.784  0.00  0.00    +0.000 NA
ATOM     28  H   UNL     1      42.976   3.408  10.304  0.00  0.00    +0.000 HD
BRANCH  25  29
ATOM     29  C   UNL     1      47.553   2.430   6.451  0.00  0.00    +0.000 C 
ATOM     30  N   UNL     1      47.413   3.115   5.276  0.00  0.00    +0.000 N 
ATOM     31  O   UNL     1      48.429   1.588   6.593  0.00  0.00    +0.000 OA
ATOM     32  H   UNL     1      46.574   3.621   5.033  0.00  0.00    +0.000 HD
ATOM     33  H   UNL     1      48.023   2.833   4.518  0.00  0.00    +0.000 HD
ENDBRANCH  25  29
ENDBRANCH  20  21
ENDBRANCH  19  20
ENDBRANCH   5  19
TORSDOF 7
ENDMDL
MODEL 3
REMARK VINA RESULT:    -7.313      3.623      4.665
REMARK INTER + INTRA:         -11.087
REMARK INTER:                 -10.355
REMARK INTRA:                  -0.731
REMARK UNBOUND:                -0.780
REMARK  Name = 
REMARK  8 active torsions:
REMARK  status: ('A' for Active; 'I' for Inactive)
REMARK    1  A    between atoms: C_1  and  C_2
REMARK    2  A    between atoms: C_2  and  C_3
REMARK    3  A    between atoms: C_7  and  C_8
REMARK    4  A    between atoms: C_8  and  C_9
REMARK    5  A    between atoms: C_9  and  N_10
REMARK    6  A    between atoms: C_14  and  C_15
REMARK    7  A    between atoms: N_23  and  C_24
REMARK    8  A    between atoms: C_24  and  C_25
REMARK                            x       y       z     vdW  Elec       q    Type
REMARK                         _______ _______ _______ _____ _____    ______ ____
ROOT
ATOM      1  C   UNL     1      46.693   7.012  13.102  0.00  0.00    +0.000 A 
ATOM      2  C   UNL     1      46.621   8.357  12.711  0.00  0.00    +0.000 A 
ATOM      3  C   UNL     1      45.456   8.881  12.140  0.00  0.00    +0.000 A 
ATOM      4  C   UNL     1      44.354   8.059  11.898  0.00  0.00    +0.000 A 
ATOM      5  C   UNL     1      44.383   6.720  12.289  0.00  0.00    +0.000 A 
ATOM      6  C   UNL     1      45.523   6.258  12.969  0.00  0.00    +0.000 A 
ENDROOT
BRANCH   1   8
ATOM      7  C   UNL     1      49.093   6.623  12.469  0.00  0.00    +0.000 C 
ATOM      8  C   UNL     1      48.022   6.364  13.551  0.00  0.00    +0.000 C 
ATOM      9  C   UNL     1      47.815   4.831  13.708  0.00  0.00    +0.000 C 
ATOM     10  C   UNL     1      46.992   4.486  14.953  0.00  0.00    +0.000 C 
ATOM     11  N   UNL     1      47.593   4.958  16.207  0.00  0.00    +0.000 NA
ATOM     12  C   UNL     1      47.827   6.405  16.155  0.00  0.00    +0.000 C 
ATOM     13  C   UNL     1      48.598   6.881  14.910  0.00  0.00    +0.000 C 
BRANCH  11  14
ATOM     14  C   UNL     1      48.813   4.223  16.620  0.00  0.00    +0.000 C 
BRANCH  14  15
ATOM     15  C   UNL     1      48.686   2.770  17.134  0.00  0.00    +0.000 C 
ATOM     16  F   UNL     1      49.465   2.501  18.202  0.00  0.00    +0.000 F 
ATOM     17  F   UNL     1      47.405   2.509  17.491  0.00  0.00    +0.000 F 
ATOM     18  F   UNL     1      49.018   1.887  16.162  0.00  0.00    +0.000 F 
ENDBRANCH  14  15
ENDBRANCH  11  14
ENDBRANCH   1   8
BRANCH   5  19
ATOM     19  C   UNL     1      43.254   5.776  11.897  0.00  0.00    +0.000 C 
BRANCH  19  20
ATOM     20  C   UNL     1      43.435   5.149  10.506  0.00  0.00    +0.000 C 
BRANCH  20  21
ATOM     21  N   UNL     1      43.794   3.732  10.532  0.00  0.00    +0.000 N 
ATOM     22  C   UNL     1      44.672   3.423   9.462  0.00  0.00    +0.000 A 
ATOM     23  C   UNL     1      45.108   2.107   9.326  0.00  0.00    +0.000 A 
ATOM     24  C   UNL     1      45.989   1.774   8.291  0.00  0.00    +0.000 A 
ATOM     25  C   UNL     1      46.418   2.767   7.412  0.00  0.00    +0.000 A 
ATOM     26  C   UNL     1      45.932   4.049   7.606  0.00  0.00    +0.000 A 
ATOM     27  N   UNL     1      45.088   4.390   8.612  0.00  0.00    +0.000 NA
ATOM     28  H   UNL     1      42.975   3.135  10.443  0.00  0.00    +0.000 HD
BRANCH  25  29
ATOM     29  C   UNL     1      47.343   2.527   6.284  0.00  0.00    +0.000 C 
ATOM     30  N   UNL     1      48.538   1.928   6.572  0.00  0.00    +0.000 N 
ATOM     31  O   UNL     1      47.069   2.877   5.144  0.00  0.00    +0.000 OA
ATOM     32  H   UNL     1      48.901   1.853   7.511  0.00  0.00    +0.000 HD
ATOM     33  H   UNL     1      49.200   1.860   5.809  0.00  0.00    +0.000 HD
ENDBRANCH  25  29
ENDBRANCH  20  21
ENDBRANCH  19  20
ENDBRANCH   5  19
TORSDOF 7
ENDMDL
MODEL 4
REMARK VINA RESULT:    -7.113      1.714      2.570
REMARK INTER + INTRA:         -10.804
REMARK INTER:                 -10.018
REMARK INTRA:                  -0.786
REMARK UNBOUND:                -0.780
REMARK  Name = 
REMARK  8 active torsions:
REMARK  status: ('A' for Active; 'I' for Inactive)
REMARK    1  A    between atoms: C_1  and  C_2
REMARK    2  A    between atoms: C_2  and  C_3
REMARK    3  A    between atoms: C_7  and  C_8
REMARK    4  A    between atoms: C_8  and  C_9
REMARK    5  A    between atoms: C_9  and  N_10
REMARK    6  A    between atoms: C_14  and  C_15
REMARK    7  A    between atoms: N_23  and  C_24
REMARK    8  A    between atoms: C_24  and  C_25
REMARK                            x       y       z     vdW  Elec       q    Type
REMARK                         _______ _______ _______ _____ _____    ______ ____
ROOT
ATOM      1  C   UNL     1      46.785   8.586  12.925  0.00  0.00    +0.000 A 
ATOM      2  C   UNL     1      46.233   9.607  12.138  0.00  0.00    +0.000 A 
ATOM      3  C   UNL     1      45.031   9.414  11.447  0.00  0.00    +0.000 A 
ATOM      4  C   UNL     1      44.382   8.178  11.484  0.00  0.00    +0.000 A 
ATOM      5  C   UNL     1      44.894   7.145  12.270  0.00  0.00    +0.000 A 
ATOM      6  C   UNL     1      46.035   7.412  13.046  0.00  0.00    +0.000 A 
ENDROOT
BRANCH   1   8
ATOM      7  C   UNL     1      48.066   8.982  15.050  0.00  0.00    +0.000 C 
ATOM      8  C   UNL     1      48.200   8.703  13.537  0.00  0.00    +0.000 C 
ATOM      9  C   UNL     1      48.950   9.887  12.864  0.00  0.00    +0.000 C 
ATOM     10  C   UNL     1      49.377   9.556  11.430  0.00  0.00    +0.000 C 
ATOM     11  N   UNL     1      50.262   8.389  11.332  0.00  0.00    +0.000 NA
ATOM     12  C   UNL     1      49.635   7.213  11.944  0.00  0.00    +0.000 C 
ATOM     13  C   UNL     1      49.110   7.443  13.373  0.00  0.00    +0.000 C 
BRANCH  11  14
ATOM     14  C   UNL     1      51.632   8.610  11.854  0.00  0.00    +0.000 C 
BRANCH  14  15
ATOM     15  C   UNL     1      52.842   8.050  11.071  0.00  0.00    +0.000 C 
ATOM     16  F   UNL     1      53.834   7.585  11.860  0.00  0.00    +0.000 F 
ATOM     17  F   UNL     1      52.451   7.031  10.268  0.00  0.00    +0.000 F 
ATOM     18  F   UNL     1      53.380   9.004  10.273  0.00  0.00    +0.000 F 
ENDBRANCH  14  15
ENDBRANCH  11  14
ENDBRANCH   1   8
BRANCH   5  19
ATOM     19  C   UNL     1      44.286   5.750  12.203  0.00  0.00    +0.000 C 
BRANCH  19  20
ATOM     20  C   UNL     1      43.908   5.315  10.779  0.00  0.00    +0.000 C 
BRANCH  20  21
ATOM     21  N   UNL     1      43.876   3.866  10.586  0.00  0.00    +0.000 N 
ATOM     22  C   UNL     1      44.773   3.483   9.557  0.00  0.00    +0.000 A 
ATOM     23  C   UNL     1      44.862   2.131   9.229  0.00  0.00    +0.000 A 
ATOM     24  C   UNL     1      45.752   1.720   8.231  0.00  0.00    +0.000 A 
ATOM     25  C   UNL     1      46.537   2.669   7.580  0.00  0.00    +0.000 A 
ATOM     26  C   UNL     1      46.383   3.993   7.954  0.00  0.00    +0.000 A 
ATOM     27  N   UNL     1      45.535   4.407   8.929  0.00  0.00    +0.000 NA
ATOM     28  H   UNL     1      42.947   3.543  10.324  0.00  0.00    +0.000 HD
BRANCH  25  29
ATOM     29  C   UNL     1      47.505   2.346   6.510  0.00  0.00    +0.000 C 
ATOM     30  N   UNL     1      47.481   3.129   5.389  0.00  0.00    +0.000 N 
ATOM     31  O   UNL     1      48.274   1.400   6.606  0.00  0.00    +0.000 OA
ATOM     32  H   UNL     1      46.713   3.746   5.168  0.00  0.00    +0.000 HD
ATOM     33  H   UNL     1      48.079   2.835   4.626  0.00  0.00    +0.000 HD
ENDBRANCH  25  29
ENDBRANCH  20  21
ENDBRANCH  19  20
ENDBRANCH   5  19
TORSDOF 7
ENDMDL
MODEL 5
REMARK VINA RESULT:    -6.962      4.685      7.842
REMARK INTER + INTRA:         -10.592
REMARK INTER:                  -9.332
REMARK INTRA:                  -1.260
REMARK UNBOUND:                -0.780
REMARK  Name = 
REMARK  8 active torsions:
REMARK  status: ('A' for Active; 'I' for Inactive)
REMARK    1  A    between atoms: C_1  and  C_2
REMARK    2  A    between atoms: C_2  and  C_3
REMARK    3  A    between atoms: C_7  and  C_8
REMARK    4  A    between atoms: C_8  and  C_9
REMARK    5  A    between atoms: C_9  and  N_10
REMARK    6  A    between atoms: C_14  and  C_15
REMARK    7  A    between atoms: N_23  and  C_24
REMARK    8  A    between atoms: C_24  and  C_25
REMARK                            x       y       z     vdW  Elec       q    Type
REMARK                         _______ _______ _______ _____ _____    ______ ____
ROOT
ATOM      1  C   UNL     1      49.037   8.785  13.803  0.00  0.00    +0.000 A 
ATOM      2  C   UNL     1      49.512  10.065  13.481  0.00  0.00    +0.000 A 
ATOM      3  C   UNL     1      49.532  11.088  14.437  0.00  0.00    +0.000 A 
ATOM      4  C   UNL     1      49.026  10.869  15.720  0.00  0.00    +0.000 A 
ATOM      5  C   UNL     1      48.561   9.604  16.080  0.00  0.00    +0.000 A 
ATOM      6  C   UNL     1      48.669   8.570  15.135  0.00  0.00    +0.000 A 
ENDROOT
BRANCH   1   8
ATOM      7  C   UNL     1      50.037   7.701  11.769  0.00  0.00    +0.000 C 
ATOM      8  C   UNL     1      48.822   7.701  12.723  0.00  0.00    +0.000 C 
ATOM      9  C   UNL     1      47.537   8.033  11.914  0.00  0.00    +0.000 C 
ATOM     10  C   UNL     1      46.264   7.766  12.723  0.00  0.00    +0.000 C 
ATOM     11  N   UNL     1      46.129   6.374  13.171  0.00  0.00    +0.000 NA
ATOM     12  C   UNL     1      47.303   5.967  13.950  0.00  0.00    +0.000 C 
ATOM     13  C   UNL     1      48.652   6.242  13.259  0.00  0.00    +0.000 C 
BRANCH  11  14
ATOM     14  C   UNL     1      45.830   5.406  12.088  0.00  0.00    +0.000 C 
BRANCH  14  15
ATOM     15  C   UNL     1      45.094   4.090  12.429  0.00  0.00    +0.000 C 
ATOM     16  F   UNL     1      45.921   3.060  12.708  0.00  0.00    +0.000 F 
ATOM     17  F   UNL     1      44.290   4.267  13.506  0.00  0.00    +0.000 F 
ATOM     18  F   UNL     1      44.303   3.702  11.400  0.00  0.00    +0.000 F 
ENDBRANCH  14  15
ENDBRANCH  11  14
ENDBRANCH   1   8
BRANCH   5  19
ATOM     19  C   UNL     1      47.870   9.388  17.420  0.00  0.00    +0.000 C 
BRANCH  19  20
ATOM     20  C   UNL     1      48.394   8.164  18.187  0.00  0.00    +0.000 C 
BRANCH  20  21
ATOM     21  N   UNL     1      47.447   7.052  18.255  0.00  0.00    +0.000 N 
ATOM     22  C   UNL     1      48.090   5.832  17.929  0.00  0.00    +0.000 A 
ATOM     23  C   UNL     1      47.330   4.664  17.930  0.00  0.00    +0.000 A 
ATOM     24  C   UNL     1      47.941   3.441  17.630  0.00  0.00    +0.000 A 
ATOM     25  C   UNL     1      49.303   3.411  17.335  0.00  0.00    +0.000 A 
ATOM     26  C   UNL     1      49.987   4.614  17.342  0.00  0.00    +0.000 A 
ATOM     27  N   UNL     1      49.412   5.805  17.644  0.00  0.00    +0.000 NA
ATOM     28  H   UNL     1      46.673   7.178  17.607  0.00  0.00    +0.000 HD
BRANCH  25  29
ATOM     29  C   UNL     1      50.047   2.178  17.000  0.00  0.00    +0.000 C 
ATOM     30  N   UNL     1      51.012   1.773  17.880  0.00  0.00    +0.000 N 
ATOM     31  O   UNL     1      49.834   1.562  15.965  0.00  0.00    +0.000 OA
ATOM     32  H   UNL     1      51.383   2.374  18.601  0.00  0.00    +0.000 HD
ATOM     33  H   UNL     1      51.579   0.985  17.590  0.00  0.00    +0.000 HD
ENDBRANCH  25  29
ENDBRANCH  20  21
ENDBRANCH  19  20
ENDBRANCH   5  19
TORSDOF 7
ENDMDL
MODEL 6
REMARK VINA RESULT:    -6.735      3.015      4.867
REMARK INTER + INTRA:         -10.272
REMARK INTER:                  -9.387
REMARK INTRA:                  -0.885
REMARK UNBOUND:                -0.780
REMARK  Name = 
REMARK  8 active torsions:
REMARK  status: ('A' for Active; 'I' for Inactive)
REMARK    1  A    between atoms: C_1  and  C_2
REMARK    2  A    between atoms: C_2  and  C_3
REMARK    3  A    between atoms: C_7  and  C_8
REMARK    4  A    between atoms: C_8  and  C_9
REMARK    5  A    between atoms: C_9  and  N_10
REMARK    6  A    between atoms: C_14  and  C_15
REMARK    7  A    between atoms: N_23  and  C_24
REMARK    8  A    between atoms: C_24  and  C_25
REMARK                            x       y       z     vdW  Elec       q    Type
REMARK                         _______ _______ _______ _____ _____    ______ ____
ROOT
ATOM      1  C   UNL     1      49.109   7.362  17.591  0.00  0.00    +0.000 A 
ATOM      2  C   UNL     1      48.398   7.960  18.642  0.00  0.00    +0.000 A 
ATOM      3  C   UNL     1      47.415   7.251  19.343  0.00  0.00    +0.000 A 
ATOM      4  C   UNL     1      47.084   5.946  18.974  0.00  0.00    +0.000 A 
ATOM      5  C   UNL     1      47.782   5.314  17.945  0.00  0.00    +0.000 A 
ATOM      6  C   UNL     1      48.843   6.011  17.344  0.00  0.00    +0.000 A 
ENDROOT
BRANCH   1   8
ATOM      7  C   UNL     1      51.283   8.619  17.504  0.00  0.00    +0.000 C 
ATOM      8  C   UNL     1      50.054   8.177  16.679  0.00  0.00    +0.000 C 
ATOM      9  C   UNL     1      49.304   9.437  16.164  0.00  0.00    +0.000 C 
ATOM     10  C   UNL     1      48.253   9.089  15.105  0.00  0.00    +0.000 C 
ATOM     11  N   UNL     1      48.806   8.418  13.923  0.00  0.00    +0.000 NA
ATOM     12  C   UNL     1      49.536   7.207  14.310  0.00  0.00    +0.000 C 
ATOM     13  C   UNL     1      50.586   7.423  15.417  0.00  0.00    +0.000 C 
BRANCH  11  14
ATOM     14  C   UNL     1      49.624   9.291  13.046  0.00  0.00    +0.000 C 
BRANCH  14  15
ATOM     15  C   UNL     1      49.377   9.279  11.520  0.00  0.00    +0.000 C 
ATOM     16  F   UNL     1      48.462  10.182  11.109  0.00  0.00    +0.000 F 
ATOM     17  F   UNL     1      50.530   9.540  10.857  0.00  0.00    +0.000 F 
ATOM     18  F   UNL     1      48.949   8.060  11.114  0.00  0.00    +0.000 F 
ENDBRANCH  14  15
ENDBRANCH  11  14
ENDBRANCH   1   8
BRANCH   5  19
ATOM     19  C   UNL     1      47.334   3.951  17.431  0.00  0.00    +0.000 C 
BRANCH  19  20
ATOM     20  C   UNL     1      47.319   3.851  15.898  0.00  0.00    +0.000 C 
BRANCH  20  21
ATOM     21  N   UNL     1      46.979   5.102  15.221  0.00  0.00    +0.000 N 
ATOM     22  C   UNL     1      46.360   4.839  13.973  0.00  0.00    +0.000 A 
ATOM     23  C   UNL     1      45.980   5.922  13.184  0.00  0.00    +0.000 A 
ATOM     24  C   UNL     1      45.349   5.695  11.955  0.00  0.00    +0.000 A 
ATOM     25  C   UNL     1      45.111   4.386  11.540  0.00  0.00    +0.000 A 
ATOM     26  C   UNL     1      45.528   3.363  12.375  0.00  0.00    +0.000 A 
ATOM     27  N   UNL     1      46.128   3.567  13.574  0.00  0.00    +0.000 NA
ATOM     28  H   UNL     1      47.805   5.669  15.044  0.00  0.00    +0.000 HD
BRANCH  25  29
ATOM     29  C   UNL     1      44.458   4.032  10.262  0.00  0.00    +0.000 C 
ATOM     30  N   UNL     1      44.816   4.753   9.157  0.00  0.00    +0.000 N 
ATOM     31  O   UNL     1      43.609   3.153  10.198  0.00  0.00    +0.000 OA
ATOM     32  H   UNL     1      45.312   5.630   9.212  0.00  0.00    +0.000 HD
ATOM     33  H   UNL     1      44.289   4.567   8.312  0.00  0.00    +0.000 HD
ENDBRANCH  25  29
ENDBRANCH  20  21
ENDBRANCH  19  20
ENDBRANCH   5  19
TORSDOF 7
ENDMDL
MODEL 7
REMARK VINA RESULT:    -6.621      4.466      8.322
REMARK INTER + INTRA:         -10.111
REMARK INTER:                  -8.926
REMARK INTRA:                  -1.184
REMARK UNBOUND:                -0.780
REMARK  Name = 
REMARK  8 active torsions:
REMARK  status: ('A' for Active; 'I' for Inactive)
REMARK    1  A    between atoms: C_1  and  C_2
REMARK    2  A    between atoms: C_2  and  C_3
REMARK    3  A    between atoms: C_7  and  C_8
REMARK    4  A    between atoms: C_8  and  C_9
REMARK    5  A    between atoms: C_9  and  N_10
REMARK    6  A    between atoms: C_14  and  C_15
REMARK    7  A    between atoms: N_23  and  C_24
REMARK    8  A    between atoms: C_24  and  C_25
REMARK                            x       y       z     vdW  Elec       q    Type
REMARK                         _______ _______ _______ _____ _____    ______ ____
ROOT
ATOM      1  C   UNL     1      45.588   7.769  11.948  0.00  0.00    +0.000 A 
ATOM      2  C   UNL     1      44.412   8.444  11.590  0.00  0.00    +0.000 A 
ATOM      3  C   UNL     1      44.388   9.838  11.471  0.00  0.00    +0.000 A 
ATOM      4  C   UNL     1      45.527  10.593  11.760  0.00  0.00    +0.000 A 
ATOM      5  C   UNL     1      46.719   9.955  12.103  0.00  0.00    +0.000 A 
ATOM      6  C   UNL     1      46.739   8.550  12.094  0.00  0.00    +0.000 A 
ENDROOT
BRANCH   1   8
ATOM      7  C   UNL     1      46.394   6.034  13.576  0.00  0.00    +0.000 C 
ATOM      8  C   UNL     1      45.593   6.258  12.275  0.00  0.00    +0.000 C 
ATOM      9  C   UNL     1      46.279   5.486  11.114  0.00  0.00    +0.000 C 
ATOM     10  C   UNL     1      45.392   5.419   9.865  0.00  0.00    +0.000 C 
ATOM     11  N   UNL     1      44.098   4.766  10.096  0.00  0.00    +0.000 NA
ATOM     12  C   UNL     1      43.370   5.430  11.182  0.00  0.00    +0.000 C 
ATOM     13  C   UNL     1      44.185   5.609  12.477  0.00  0.00    +0.000 C 
BRANCH  11  14
ATOM     14  C   UNL     1      44.177   3.301  10.308  0.00  0.00    +0.000 C 
BRANCH  14  15
ATOM     15  C   UNL     1      44.679   2.394   9.161  0.00  0.00    +0.000 C 
ATOM     16  F   UNL     1      46.013   2.186   9.175  0.00  0.00    +0.000 F 
ATOM     17  F   UNL     1      44.079   1.180   9.225  0.00  0.00    +0.000 F 
ATOM     18  F   UNL     1      44.369   2.929   7.956  0.00  0.00    +0.000 F 
ENDBRANCH  14  15
ENDBRANCH  11  14
ENDBRANCH   1   8
BRANCH   5  19
ATOM     19  C   UNL     1      47.923  10.764  12.567  0.00  0.00    +0.000 C 
BRANCH  19  20
ATOM     20  C   UNL     1      48.837   9.999  13.537  0.00  0.00    +0.000 C 
BRANCH  20  21
ATOM     21  N   UNL     1      48.430  10.092  14.938  0.00  0.00    +0.000 N 
ATOM     22  C   UNL     1      48.655   8.861  15.603  0.00  0.00    +0.000 A 
ATOM     23  C   UNL     1      48.310   8.765  16.950  0.00  0.00    +0.000 A 
ATOM     24  C   UNL     1      48.536   7.568  17.638  0.00  0.00    +0.000 A 
ATOM     25  C   UNL     1      49.105   6.488  16.965  0.00  0.00    +0.000 A 
ATOM     26  C   UNL     1      49.410   6.657  15.625  0.00  0.00    +0.000 A 
ATOM     27  N   UNL     1      49.209   7.815  14.947  0.00  0.00    +0.000 NA
ATOM     28  H   UNL     1      47.442  10.318  15.028  0.00  0.00    +0.000 HD
BRANCH  25  29
ATOM     29  C   UNL     1      49.384   5.179  17.592  0.00  0.00    +0.000 C 
ATOM     30  N   UNL     1      48.944   4.994  18.873  0.00  0.00    +0.000 N 
ATOM     31  O   UNL     1      50.009   4.307  17.005  0.00  0.00    +0.000 OA
ATOM     32  H   UNL     1      48.654   5.756  19.468  0.00  0.00    +0.000 HD
ATOM     33  H   UNL     1      49.228   4.132  19.324  0.00  0.00    +0.000 HD
ENDBRANCH  25  29
ENDBRANCH  20  21
ENDBRANCH  19  20
ENDBRANCH   5  19
TORSDOF 7
ENDMDL
MODEL 8
REMARK VINA RESULT:    -6.440      5.409      8.300
REMARK INTER + INTRA:          -9.855
REMARK INTER:                  -9.004
REMARK INTRA:                  -0.852
REMARK UNBOUND:                -0.780
REMARK  Name = 
REMARK  8 active torsions:
REMARK  status: ('A' for Active; 'I' for Inactive)
REMARK    1  A    between atoms: C_1  and  C_2
REMARK    2  A    between atoms: C_2  and  C_3
REMARK    3  A    between atoms: C_7  and  C_8
REMARK    4  A    between atoms: C_8  and  C_9
REMARK    5  A    between atoms: C_9  and  N_10
REMARK    6  A    between atoms: C_14  and  C_15
REMARK    7  A    between atoms: N_23  and  C_24
REMARK    8  A    between atoms: C_24  and  C_25
REMARK                            x       y       z     vdW  Elec       q    Type
REMARK                         _______ _______ _______ _____ _____    ______ ____
ROOT
ATOM      1  C   UNL     1      48.578   8.113  14.090  0.00  0.00    +0.000 A 
ATOM      2  C   UNL     1      48.744   9.505  14.135  0.00  0.00    +0.000 A 
ATOM      3  C   UNL     1      48.897  10.174  15.355  0.00  0.00    +0.000 A 
ATOM      4  C   UNL     1      48.831   9.473  16.560  0.00  0.00    +0.000 A 
ATOM      5  C   UNL     1      48.684   8.086  16.553  0.00  0.00    +0.000 A 
ATOM      6  C   UNL     1      48.657   7.433  15.309  0.00  0.00    +0.000 A 
ENDROOT
BRANCH   1   8
ATOM      7  C   UNL     1      49.411   7.472  11.808  0.00  0.00    +0.000 C 
ATOM      8  C   UNL     1      48.214   7.378  12.780  0.00  0.00    +0.000 C 
ATOM      9  C   UNL     1      46.978   8.064  12.136  0.00  0.00    +0.000 C 
ATOM     10  C   UNL     1      45.686   7.760  12.903  0.00  0.00    +0.000 C 
ATOM     11  N   UNL     1      45.374   6.328  12.988  0.00  0.00    +0.000 NA
ATOM     12  C   UNL     1      46.490   5.591  13.589  0.00  0.00    +0.000 C 
ATOM     13  C   UNL     1      47.858   5.863  12.935  0.00  0.00    +0.000 C 
BRANCH  11  14
ATOM     14  C   UNL     1      44.941   5.716  11.709  0.00  0.00    +0.000 C 
BRANCH  14  15
ATOM     15  C   UNL     1      43.434   5.652  11.369  0.00  0.00    +0.000 C 
ATOM     16  F   UNL     1      42.881   6.857  11.116  0.00  0.00    +0.000 F 
ATOM     17  F   UNL     1      43.231   4.875  10.278  0.00  0.00    +0.000 F 
ATOM     18  F   UNL     1      42.736   5.099  12.390  0.00  0.00    +0.000 F 
ENDBRANCH  14  15
ENDBRANCH  11  14
ENDBRANCH   1   8
BRANCH   5  19
ATOM     19  C   UNL     1      48.460   7.326  17.855  0.00  0.00    +0.000 C 
BRANCH  19  20
ATOM     20  C   UNL     1      49.435   6.155  18.055  0.00  0.00    +0.000 C 
BRANCH  20  21
ATOM     21  N   UNL     1      48.915   4.862  17.614  0.00  0.00    +0.000 N 
ATOM     22  C   UNL     1      49.943   3.887  17.613  0.00  0.00    +0.000 A 
ATOM     23  C   UNL     1      49.626   2.593  17.205  0.00  0.00    +0.000 A 
ATOM     24  C   UNL     1      50.616   1.604  17.211  0.00  0.00    +0.000 A 
ATOM     25  C   UNL     1      51.906   1.929  17.626  0.00  0.00    +0.000 A 
ATOM     26  C   UNL     1      52.146   3.239  18.006  0.00  0.00    +0.000 A 
ATOM     27  N   UNL     1      51.194   4.206  18.019  0.00  0.00    +0.000 NA
ATOM     28  H   UNL     1      48.534   4.912  16.672  0.00  0.00    +0.000 HD
BRANCH  25  29
ATOM     29  C   UNL     1      53.027   0.966  17.668  0.00  0.00    +0.000 C 
ATOM     30  N   UNL     1      52.804  -0.224  18.303  0.00  0.00    +0.000 N 
ATOM     31  O   UNL     1      54.118   1.231  17.184  0.00  0.00    +0.000 OA
ATOM     32  H   UNL     1      52.019  -0.378  18.919  0.00  0.00    +0.000 HD
ATOM     33  H   UNL     1      53.608  -0.831  18.411  0.00  0.00    +0.000 HD
ENDBRANCH  25  29
ENDBRANCH  20  21
ENDBRANCH  19  20
ENDBRANCH   5  19
TORSDOF 7
ENDMDL
MODEL 9
REMARK VINA RESULT:    -6.172      4.025      5.477
REMARK INTER + INTRA:          -9.478
REMARK INTER:                  -8.453
REMARK INTRA:                  -1.024
REMARK UNBOUND:                -0.780
REMARK  Name = 
REMARK  8 active torsions:
REMARK  status: ('A' for Active; 'I' for Inactive)
REMARK    1  A    between atoms: C_1  and  C_2
REMARK    2  A    between atoms: C_2  and  C_3
REMARK    3  A    between atoms: C_7  and  C_8
REMARK    4  A    between atoms: C_8  and  C_9
REMARK    5  A    between atoms: C_9  and  N_10
REMARK    6  A    between atoms: C_14  and  C_15
REMARK    7  A    between atoms: N_23  and  C_24
REMARK    8  A    between atoms: C_24  and  C_25
REMARK                            x       y       z     vdW  Elec       q    Type
REMARK                         _______ _______ _______ _____ _____    ______ ____
ROOT
ATOM      1  C   UNL     1      49.597   8.274  14.527  0.00  0.00    +0.000 A 
ATOM      2  C   UNL     1      50.192   7.768  13.361  0.00  0.00    +0.000 A 
ATOM      3  C   UNL     1      49.471   7.678  12.165  0.00  0.00    +0.000 A 
ATOM      4  C   UNL     1      48.123   8.040  12.121  0.00  0.00    +0.000 A 
ATOM      5  C   UNL     1      47.504   8.563  13.256  0.00  0.00    +0.000 A 
ATOM      6  C   UNL     1      48.289   8.754  14.405  0.00  0.00    +0.000 A 
ENDROOT
BRANCH   1   8
ATOM      7  C   UNL     1      51.594   9.050  15.839  0.00  0.00    +0.000 C 
ATOM      8  C   UNL     1      50.304   8.203  15.899  0.00  0.00    +0.000 C 
ATOM      9  C   UNL     1      50.677   6.726  16.205  0.00  0.00    +0.000 C 
ATOM     10  C   UNL     1      49.448   5.885  16.568  0.00  0.00    +0.000 C 
ATOM     11  N   UNL     1      48.717   6.384  17.739  0.00  0.00    +0.000 NA
ATOM     12  C   UNL     1      48.318   7.781  17.543  0.00  0.00    +0.000 C 
ATOM     13  C   UNL     1      49.466   8.716  17.116  0.00  0.00    +0.000 C 
BRANCH  11  14
ATOM     14  C   UNL     1      49.421   6.194  19.031  0.00  0.00    +0.000 C 
BRANCH  14  15
ATOM     15  C   UNL     1      49.661   4.761  19.560  0.00  0.00    +0.000 C 
ATOM     16  F   UNL     1      50.835   4.224  19.167  0.00  0.00    +0.000 F 
ATOM     17  F   UNL     1      49.645   4.753  20.915  0.00  0.00    +0.000 F 
ATOM     18  F   UNL     1      48.679   3.926  19.144  0.00  0.00    +0.000 F 
ENDBRANCH  14  15
ENDBRANCH  11  14
ENDBRANCH   1   8
BRANCH   5  19
ATOM     19  C   UNL     1      46.002   8.820  13.267  0.00  0.00    +0.000 C 
BRANCH  19  20
ATOM     20  C   UNL     1      45.257   8.144  12.106  0.00  0.00    +0.000 C 
BRANCH  20  21
ATOM     21  N   UNL     1      44.457   6.987  12.503  0.00  0.00    +0.000 N 
ATOM     22  C   UNL     1      44.585   5.945  11.550  0.00  0.00    +0.000 A 
ATOM     23  C   UNL     1      43.876   4.765  11.764  0.00  0.00    +0.000 A 
ATOM     24  C   UNL     1      43.996   3.711  10.850  0.00  0.00    +0.000 A 
ATOM     25  C   UNL     1      44.824   3.860   9.739  0.00  0.00    +0.000 A 
ATOM     26  C   UNL     1      45.487   5.066   9.590  0.00  0.00    +0.000 A 
ATOM     27  N   UNL     1      45.392   6.091  10.474  0.00  0.00    +0.000 NA
ATOM     28  H   UNL     1      43.470   7.220  12.577  0.00  0.00    +0.000 HD
BRANCH  25  29
ATOM     29  C   UNL     1      45.021   2.815   8.711  0.00  0.00    +0.000 C 
ATOM     30  N   UNL     1      44.886   1.514   9.109  0.00  0.00    +0.000 N 
ATOM     31  O   UNL     1      45.323   3.098   7.560  0.00  0.00    +0.000 OA
ATOM     32  H   UNL     1      44.886   1.235  10.079  0.00  0.00    +0.000 HD
ATOM     33  H   UNL     1      45.121   0.809   8.421  0.00  0.00    +0.000 HD
ENDBRANCH  25  29
ENDBRANCH  20  21
ENDBRANCH  19  20
ENDBRANCH   5  19
TORSDOF 7
ENDMDL
