MODEL 1
REMARK VINA RESULT:    -7.887      0.000      0.000
REMARK INTER + INTRA:         -10.122
REMARK INTER:                  -9.731
REMARK INTRA:                  -0.391
REMARK UNBOUND:                -0.391
REMARK  Name = 
REMARK  5 active torsions:
REMARK  status: ('A' for Active; 'I' for Inactive)
REMARK    1  A    between atoms: C_1  and  O_2
REMARK    2  A    between atoms: O_2  and  C_3
REMARK    3  A    between atoms: C_7  and  C_8
REMARK    4  A    between atoms: C_8  and  N_9
REMARK    5  A    between atoms: C_14  and  C_15
REMARK                            x       y       z     vdW  Elec       q    Type
REMARK                         _______ _______ _______ _____ _____    ______ ____
ROOT
ATOM      1  N   UNL     1      43.885   4.351  10.538  0.00  0.00    +0.000 N 
ATOM      2  C   UNL     1      43.368   3.265  11.201  0.00  0.00    +0.000 A 
ATOM      3  C   UNL     1      43.931   2.133  10.659  0.00  0.00    +0.000 A 
ATOM      4  C   UNL     1      44.827   2.541   9.634  0.00  0.00    +0.000 A 
ATOM      5  C   UNL     1      45.657   1.839   8.734  0.00  0.00    +0.000 A 
ATOM      6  C   UNL     1      46.438   2.548   7.808  0.00  0.00    +0.000 A 
ATOM      7  C   UNL     1      46.403   3.947   7.802  0.00  0.00    +0.000 A 
ATOM      8  C   UNL     1      45.596   4.665   8.691  0.00  0.00    +0.000 A 
ATOM      9  C   UNL     1      44.805   3.937   9.591  0.00  0.00    +0.000 A 
ENDROOT
BRANCH   6  10
ATOM     10  C   UNL     1      47.311   1.875   6.801  0.00  0.00    +0.000 C 
ATOM     11  N   UNL     1      48.329   2.586   6.232  0.00  0.00    +0.000 N 
ATOM     12  O   UNL     1      47.136   0.704   6.484  0.00  0.00    +0.000 OA
ATOM     13  H   UNL     1      48.548   3.550   6.424  0.00  0.00    +0.000 HD
ATOM     14  H   UNL     1      48.902   2.096   5.559  0.00  0.00    +0.000 HD
ENDBRANCH   6  10
BRANCH   1  15
ATOM     15  C   UNL     1      43.544   5.734  10.839  0.00  0.00    +0.000 C 
BRANCH  15  20
ATOM     16  C   UNL     1      46.443   6.282  13.015  0.00  0.00    +0.000 A 
ATOM     17  C   UNL     1      46.740   7.628  12.926  0.00  0.00    +0.000 A 
ATOM     18  C   UNL     1      45.909   8.430  12.155  0.00  0.00    +0.000 A 
ATOM     19  C   UNL     1      44.825   7.853  11.491  0.00  0.00    +0.000 A 
ATOM     20  C   UNL     1      44.599   6.482  11.618  0.00  0.00    +0.000 A 
ATOM     21  N   UNL     1      45.405   5.699  12.379  0.00  0.00    +0.000 NA
BRANCH  16  23
ATOM     22  C   UNL     1      46.834   4.164  13.912  0.00  0.00    +0.000 C 
ATOM     23  O   UNL     1      47.286   5.510  13.788  0.00  0.00    +0.000 OA
ENDBRANCH  16  23
ENDBRANCH  15  20
ENDBRANCH   1  15
TORSDOF 4
ENDMDL
MODEL 2
REMARK VINA RESULT:    -7.829      1.428      2.213
REMARK INTER + INTRA:         -10.051
REMARK INTER:                  -9.582
REMARK INTRA:                  -0.469
REMARK UNBOUND:                -0.391
REMARK  Name = 
REMARK  5 active torsions:
REMARK  status: ('A' for Active; 'I' for Inactive)
REMARK    1  A    between atoms: C_1  and  O_2
REMARK    2  A    between atoms: O_2  and  C_3
REMARK    3  A    between atoms: C_7  and  C_8
REMARK    4  A    between atoms: C_8  and  N_9
REMARK    5  A    between atoms: C_14  and  C_15
REMARK                            x       y       z     vdW  Elec       q    Type
REMARK                         _______ _______ _______ _____ _____    ______ ____
ROOT
ATOM      1  N   UNL     1      43.922   4.387  10.503  0.00  0.00    +0.000 N 
ATOM      2  C   UNL     1      43.408   3.324  11.203  0.00  0.00    +0.000 A 
ATOM      3  C   UNL     1      43.954   2.173  10.685  0.00  0.00    +0.000 A 
ATOM      4  C   UNL     1      44.838   2.546   9.635  0.00  0.00    +0.000 A 
ATOM      5  C   UNL     1      45.650   1.814   8.744  0.00  0.00    +0.000 A 
ATOM      6  C   UNL     1      46.421   2.491   7.787  0.00  0.00    +0.000 A 
ATOM      7  C   UNL     1      46.395   3.890   7.742  0.00  0.00    +0.000 A 
ATOM      8  C   UNL     1      45.607   4.638   8.622  0.00  0.00    +0.000 A 
ATOM      9  C   UNL     1      44.824   3.941   9.555  0.00  0.00    +0.000 A 
ENDROOT
BRANCH   6  10
ATOM     10  C   UNL     1      47.274   1.785   6.786  0.00  0.00    +0.000 C 
ATOM     11  N   UNL     1      48.315   2.460   6.215  0.00  0.00    +0.000 N 
ATOM     12  O   UNL     1      47.063   0.618   6.476  0.00  0.00    +0.000 OA
ATOM     13  H   UNL     1      48.565   3.417   6.401  0.00  0.00    +0.000 HD
ATOM     14  H   UNL     1      48.874   1.947   5.547  0.00  0.00    +0.000 HD
ENDBRANCH   6  10
BRANCH   1  15
ATOM     15  C   UNL     1      43.594   5.780  10.771  0.00  0.00    +0.000 C 
BRANCH  15  20
ATOM     16  C   UNL     1      45.377   8.634  12.225  0.00  0.00    +0.000 A 
ATOM     17  C   UNL     1      46.378   8.099  13.012  0.00  0.00    +0.000 A 
ATOM     18  C   UNL     1      46.529   6.719  13.028  0.00  0.00    +0.000 A 
ATOM     19  C   UNL     1      45.663   5.928  12.272  0.00  0.00    +0.000 A 
ATOM     20  C   UNL     1      44.665   6.542  11.514  0.00  0.00    +0.000 A 
ATOM     21  N   UNL     1      44.523   7.890  11.490  0.00  0.00    +0.000 NA
BRANCH  16  23
ATOM     22  C   UNL     1      44.122  10.456  11.482  0.00  0.00    +0.000 C 
ATOM     23  O   UNL     1      45.251  10.009  12.230  0.00  0.00    +0.000 OA
ENDBRANCH  16  23
ENDBRANCH  15  20
ENDBRANCH   1  15
TORSDOF 4
ENDMDL
MODEL 3
REMARK VINA RESULT:    -7.278      1.880      6.260
REMARK INTER + INTRA:          -9.371
REMARK INTER:                  -8.804
REMARK INTRA:                  -0.568
REMARK UNBOUND:                -0.391
REMARK  Name = 
REMARK  5 active torsions:
REMARK  status: ('A' for Active; 'I' for Inactive)
REMARK    1  A    between atoms: C_1  and  O_2
REMARK    2  A    between atoms: O_2  and  C_3
REMARK    3  A    between atoms: C_7  and  C_8
REMARK    4  A    between atoms: C_8  and  N_9
REMARK    5  A    between atoms: C_14  and  C_15
REMARK                            x       y       z     vdW  Elec       q    Type
REMARK                         _______ _______ _______ _____ _____    ______ ____
ROOT
ATOM      1  N   UNL     1      44.114   4.444  11.018  0.00  0.00    +0.000 N 
ATOM      2  C   UNL     1      43.384   3.834  12.007  0.00  0.00    +0.000 A 
ATOM      3  C   UNL     1      43.975   4.133  13.213  0.00  0.00    +0.000 A 
ATOM      4  C   UNL     1      45.102   4.959  12.951  0.00  0.00    +0.000 A 
ATOM      5  C   UNL     1      46.084   5.550  13.774  0.00  0.00    +0.000 A 
ATOM      6  C   UNL     1      47.103   6.324  13.197  0.00  0.00    +0.000 A 
ATOM      7  C   UNL     1      47.121   6.522  11.812  0.00  0.00    +0.000 A 
ATOM      8  C   UNL     1      46.152   5.955  10.977  0.00  0.00    +0.000 A 
ATOM      9  C   UNL     1      45.158   5.165  11.571  0.00  0.00    +0.000 A 
ENDROOT
BRANCH   6  10
ATOM     10  C   UNL     1      48.197   6.949  13.998  0.00  0.00    +0.000 C 
ATOM     11  N   UNL     1      47.868   7.689  15.098  0.00  0.00    +0.000 N 
ATOM     12  O   UNL     1      49.375   6.806  13.692  0.00  0.00    +0.000 OA
ATOM     13  H   UNL     1      46.932   7.866  15.426  0.00  0.00    +0.000 HD
ATOM     14  H   UNL     1      48.635   8.092  15.619  0.00  0.00    +0.000 HD
ENDBRANCH   6  10
BRANCH   1  15
ATOM     15  C   UNL     1      43.791   4.375   9.599  0.00  0.00    +0.000 C 
BRANCH  15  20
ATOM     16  C   UNL     1      46.156   3.265   7.027  0.00  0.00    +0.000 A 
ATOM     17  C   UNL     1      46.505   1.972   7.361  0.00  0.00    +0.000 A 
ATOM     18  C   UNL     1      45.888   1.391   8.461  0.00  0.00    +0.000 A 
ATOM     19  C   UNL     1      44.961   2.133   9.194  0.00  0.00    +0.000 A 
ATOM     20  C   UNL     1      44.671   3.441   8.804  0.00  0.00    +0.000 A 
ATOM     21  N   UNL     1      45.267   4.005   7.723  0.00  0.00    +0.000 NA
BRANCH  16  23
ATOM     22  C   UNL     1      47.515   2.849   5.177  0.00  0.00    +0.000 C 
ATOM     23  O   UNL     1      46.785   3.815   5.929  0.00  0.00    +0.000 OA
ENDBRANCH  16  23
ENDBRANCH  15  20
ENDBRANCH   1  15
TORSDOF 4
ENDMDL
MODEL 4
REMARK VINA RESULT:    -7.266      1.888      6.468
REMARK INTER + INTRA:          -9.356
REMARK INTER:                  -8.859
REMARK INTRA:                  -0.497
REMARK UNBOUND:                -0.391
REMARK  Name = 
REMARK  5 active torsions:
REMARK  status: ('A' for Active; 'I' for Inactive)
REMARK    1  A    between atoms: C_1  and  O_2
REMARK    2  A    between atoms: O_2  and  C_3
REMARK    3  A    between atoms: C_7  and  C_8
REMARK    4  A    between atoms: C_8  and  N_9
REMARK    5  A    between atoms: C_14  and  C_15
REMARK                            x       y       z     vdW  Elec       q    Type
REMARK                         _______ _______ _______ _____ _____    ______ ____
ROOT
ATOM      1  N   UNL     1      44.741   5.560  11.068  0.00  0.00    +0.000 N 
ATOM      2  C   UNL     1      45.023   6.890  10.883  0.00  0.00    +0.000 A 
ATOM      3  C   UNL     1      45.903   7.277  11.868  0.00  0.00    +0.000 A 
ATOM      4  C   UNL     1      46.171   6.141  12.679  0.00  0.00    +0.000 A 
ATOM      5  C   UNL     1      46.965   5.934  13.827  0.00  0.00    +0.000 A 
ATOM      6  C   UNL     1      47.017   4.663  14.420  0.00  0.00    +0.000 A 
ATOM      7  C   UNL     1      46.297   3.605  13.851  0.00  0.00    +0.000 A 
ATOM      8  C   UNL     1      45.512   3.783  12.708  0.00  0.00    +0.000 A 
ATOM      9  C   UNL     1      45.455   5.067  12.145  0.00  0.00    +0.000 A 
ENDROOT
BRANCH   6  10
ATOM     10  C   UNL     1      47.803   4.376  15.656  0.00  0.00    +0.000 C 
ATOM     11  N   UNL     1      47.585   3.202  16.318  0.00  0.00    +0.000 N 
ATOM     12  O   UNL     1      48.639   5.167  16.080  0.00  0.00    +0.000 OA
ATOM     13  H   UNL     1      46.920   2.494  16.051  0.00  0.00    +0.000 HD
ATOM     14  H   UNL     1      48.140   3.040  17.147  0.00  0.00    +0.000 HD
ENDBRANCH   6  10
BRANCH   1  15
ATOM     15  C   UNL     1      43.858   4.782  10.210  0.00  0.00    +0.000 C 
BRANCH  15  20
ATOM     16  C   UNL     1      45.993   3.520   7.511  0.00  0.00    +0.000 A 
ATOM     17  C   UNL     1      46.123   2.162   7.729  0.00  0.00    +0.000 A 
ATOM     18  C   UNL     1      45.422   1.601   8.787  0.00  0.00    +0.000 A 
ATOM     19  C   UNL     1      44.635   2.420   9.597  0.00  0.00    +0.000 A 
ATOM     20  C   UNL     1      44.566   3.787   9.323  0.00  0.00    +0.000 A 
ATOM     21  N   UNL     1      45.243   4.334   8.283  0.00  0.00    +0.000 NA
BRANCH  16  23
ATOM     22  C   UNL     1      47.084   3.060   5.501  0.00  0.00    +0.000 C 
ATOM     23  O   UNL     1      46.702   4.050   6.452  0.00  0.00    +0.000 OA
ENDBRANCH  16  23
ENDBRANCH  15  20
ENDBRANCH   1  15
TORSDOF 4
ENDMDL
MODEL 5
REMARK VINA RESULT:    -6.128      3.810      5.924
REMARK INTER + INTRA:          -7.952
REMARK INTER:                  -7.411
REMARK INTRA:                  -0.541
REMARK UNBOUND:                -0.391
REMARK  Name = 
REMARK  5 active torsions:
REMARK  status: ('A' for Active; 'I' for Inactive)
REMARK    1  A    between atoms: C_1  and  O_2
REMARK    2  A    between atoms: O_2  and  C_3
REMARK    3  A    between atoms: C_7  and  C_8
REMARK    4  A    between atoms: C_8  and  N_9
REMARK    5  A    between atoms: C_14  and  C_15
REMARK                            x       y       z     vdW  Elec       q    Type
REMARK                         _______ _______ _______ _____ _____    ______ ____
ROOT
ATOM      1  N   UNL     1      47.536   7.319  13.647  0.00  0.00    +0.000 N 
ATOM      2  C   UNL     1      46.883   8.501  13.402  0.00  0.00    +0.000 A 
ATOM      3  C   UNL     1      45.640   8.200  12.896  0.00  0.00    +0.000 A 
ATOM      4  C   UNL     1      45.527   6.784  12.835  0.00  0.00    +0.000 A 
ATOM      5  C   UNL     1      44.512   5.910  12.395  0.00  0.00    +0.000 A 
ATOM      6  C   UNL     1      44.712   4.522  12.455  0.00  0.00    +0.000 A 
ATOM      7  C   UNL     1      45.910   4.018  12.975  0.00  0.00    +0.000 A 
ATOM      8  C   UNL     1      46.926   4.865  13.428  0.00  0.00    +0.000 A 
ATOM      9  C   UNL     1      46.716   6.249  13.336  0.00  0.00    +0.000 A 
ENDROOT
BRANCH   6  10
ATOM     10  C   UNL     1      43.700   3.536  11.973  0.00  0.00    +0.000 C 
ATOM     11  N   UNL     1      43.704   2.276  12.502  0.00  0.00    +0.000 N 
ATOM     12  O   UNL     1      42.870   3.835  11.123  0.00  0.00    +0.000 OA
ATOM     13  H   UNL     1      44.347   1.936  13.199  0.00  0.00    +0.000 HD
ATOM     14  H   UNL     1      43.001   1.638  12.156  0.00  0.00    +0.000 HD
ENDBRANCH   6  10
BRANCH   1  15
ATOM     15  C   UNL     1      48.878   7.223  14.205  0.00  0.00    +0.000 C 
BRANCH  15  20
ATOM     16  C   UNL     1      49.406   5.364  17.320  0.00  0.00    +0.000 A 
ATOM     17  C   UNL     1      49.282   6.286  18.342  0.00  0.00    +0.000 A 
ATOM     18  C   UNL     1      48.944   7.590  18.007  0.00  0.00    +0.000 A 
ATOM     19  C   UNL     1      48.760   7.926  16.665  0.00  0.00    +0.000 A 
ATOM     20  C   UNL     1      48.918   6.942  15.688  0.00  0.00    +0.000 A 
ATOM     21  N   UNL     1      49.239   5.665  16.015  0.00  0.00    +0.000 NA
BRANCH  16  23
ATOM     22  C   UNL     1      48.602   3.240  17.853  0.00  0.00    +0.000 C 
ATOM     23  O   UNL     1      49.743   4.076  17.683  0.00  0.00    +0.000 OA
ENDBRANCH  16  23
ENDBRANCH  15  20
ENDBRANCH   1  15
TORSDOF 4
ENDMDL
MODEL 6
REMARK VINA RESULT:    -5.755      3.557      5.279
REMARK INTER + INTRA:          -7.491
REMARK INTER:                  -6.924
REMARK INTRA:                  -0.567
REMARK UNBOUND:                -0.391
REMARK  Name = 
REMARK  5 active torsions:
REMARK  status: ('A' for Active; 'I' for Inactive)
REMARK    1  A    between atoms: C_1  and  O_2
REMARK    2  A    between atoms: O_2  and  C_3
REMARK    3  A    between atoms: C_7  and  C_8
REMARK    4  A    between atoms: C_8  and  N_9
REMARK    5  A    between atoms: C_14  and  C_15
REMARK                            x       y       z     vdW  Elec       q    Type
REMARK                         _______ _______ _______ _____ _____    ______ ____
ROOT
ATOM      1  N   UNL     1      47.352   6.647  13.572  0.00  0.00    +0.000 N 
ATOM      2  C   UNL     1      47.757   5.931  14.671  0.00  0.00    +0.000 A 
ATOM      3  C   UNL     1      47.199   4.676  14.586  0.00  0.00    +0.000 A 
ATOM      4  C   UNL     1      46.431   4.622  13.391  0.00  0.00    +0.000 A 
ATOM      5  C   UNL     1      45.634   3.623  12.795  0.00  0.00    +0.000 A 
ATOM      6  C   UNL     1      44.976   3.886  11.583  0.00  0.00    +0.000 A 
ATOM      7  C   UNL     1      45.139   5.131  10.964  0.00  0.00    +0.000 A 
ATOM      8  C   UNL     1      45.934   6.133  11.531  0.00  0.00    +0.000 A 
ATOM      9  C   UNL     1      46.561   5.858  12.755  0.00  0.00    +0.000 A 
ENDROOT
BRANCH   6  10
ATOM     10  C   UNL     1      44.086   2.893  10.911  0.00  0.00    +0.000 C 
ATOM     11  N   UNL     1      44.542   2.247   9.797  0.00  0.00    +0.000 N 
ATOM     12  O   UNL     1      42.966   2.645  11.342  0.00  0.00    +0.000 OA
ATOM     13  H   UNL     1      45.442   2.386   9.368  0.00  0.00    +0.000 HD
ATOM     14  H   UNL     1      43.914   1.578   9.374  0.00  0.00    +0.000 HD
ENDBRANCH   6  10
BRANCH   1  15
ATOM     15  C   UNL     1      47.750   8.020  13.295  0.00  0.00    +0.000 C 
BRANCH  15  20
ATOM     16  C   UNL     1      51.356   8.677  13.219  0.00  0.00    +0.000 A 
ATOM     17  C   UNL     1      51.793   8.267  11.974  0.00  0.00    +0.000 A 
ATOM     18  C   UNL     1      50.848   7.801  11.071  0.00  0.00    +0.000 A 
ATOM     19  C   UNL     1      49.507   7.746  11.452  0.00  0.00    +0.000 A 
ATOM     20  C   UNL     1      49.144   8.163  12.733  0.00  0.00    +0.000 A 
ATOM     21  N   UNL     1      50.066   8.628  13.613  0.00  0.00    +0.000 NA
BRANCH  16  23
ATOM     22  C   UNL     1      53.410   8.229  14.231  0.00  0.00    +0.000 C 
ATOM     23  O   UNL     1      52.318   9.136  14.096  0.00  0.00    +0.000 OA
ENDBRANCH  16  23
ENDBRANCH  15  20
ENDBRANCH   1  15
TORSDOF 4
ENDMDL
MODEL 7
REMARK VINA RESULT:    -5.620      4.773      6.665
REMARK INTER + INTRA:          -7.325
REMARK INTER:                  -6.822
REMARK INTRA:                  -0.504
REMARK UNBOUND:                -0.391
REMARK  Name = 
REMARK  5 active torsions:
REMARK  status: ('A' for Active; 'I' for Inactive)
REMARK    1  A    between atoms: C_1  and  O_2
REMARK    2  A    between atoms: O_2  and  C_3
REMARK    3  A    between atoms: C_7  and  C_8
REMARK    4  A    between atoms: C_8  and  N_9
REMARK    5  A    between atoms: C_14  and  C_15
REMARK                            x       y       z     vdW  Elec       q    Type
REMARK                         _______ _______ _______ _____ _____    ______ ____
ROOT
ATOM      1  N   UNL     1      46.386   4.803  13.450  0.00  0.00    +0.000 N 
ATOM      2  C   UNL     1      45.025   4.941  13.337  0.00  0.00    +0.000 A 
ATOM      3  C   UNL     1      44.762   6.234  12.948  0.00  0.00    +0.000 A 
ATOM      4  C   UNL     1      46.007   6.908  12.814  0.00  0.00    +0.000 A 
ATOM      5  C   UNL     1      46.363   8.228  12.468  0.00  0.00    +0.000 A 
ATOM      6  C   UNL     1      47.716   8.599  12.432  0.00  0.00    +0.000 A 
ATOM      7  C   UNL     1      48.702   7.647  12.718  0.00  0.00    +0.000 A 
ATOM      8  C   UNL     1      48.373   6.330  13.053  0.00  0.00    +0.000 A 
ATOM      9  C   UNL     1      47.015   5.986  13.107  0.00  0.00    +0.000 A 
ENDROOT
BRANCH   6  10
ATOM     10  C   UNL     1      48.168   9.985  12.112  0.00  0.00    +0.000 C 
ATOM     11  N   UNL     1      47.318  10.816  11.438  0.00  0.00    +0.000 N 
ATOM     12  O   UNL     1      49.276  10.390  12.446  0.00  0.00    +0.000 OA
ATOM     13  H   UNL     1      46.394  10.574  11.119  0.00  0.00    +0.000 HD
ATOM     14  H   UNL     1      47.657  11.749  11.244  0.00  0.00    +0.000 HD
ENDBRANCH   6  10
BRANCH   1  15
ATOM     15  C   UNL     1      47.056   3.566  13.827  0.00  0.00    +0.000 C 
BRANCH  15  20
ATOM     16  C   UNL     1      48.907   2.494  16.803  0.00  0.00    +0.000 A 
ATOM     17  C   UNL     1      48.565   3.379  17.807  0.00  0.00    +0.000 A 
ATOM     18  C   UNL     1      47.621   4.357  17.521  0.00  0.00    +0.000 A 
ATOM     19  C   UNL     1      47.072   4.423  16.240  0.00  0.00    +0.000 A 
ATOM     20  C   UNL     1      47.481   3.502  15.274  0.00  0.00    +0.000 A 
ATOM     21  N   UNL     1      48.395   2.540  15.556  0.00  0.00    +0.000 NA
BRANCH  16  23
ATOM     22  C   UNL     1      51.156   2.076  17.263  0.00  0.00    +0.000 C 
ATOM     23  O   UNL     1      49.847   1.533  17.117  0.00  0.00    +0.000 OA
ENDBRANCH  16  23
ENDBRANCH  15  20
ENDBRANCH   1  15
TORSDOF 4
ENDMDL
MODEL 8
REMARK VINA RESULT:    -5.575      3.144      5.149
REMARK INTER + INTRA:          -7.269
REMARK INTER:                  -6.810
REMARK INTRA:                  -0.459
REMARK UNBOUND:                -0.391
REMARK  Name = 
REMARK  5 active torsions:
REMARK  status: ('A' for Active; 'I' for Inactive)
REMARK    1  A    between atoms: C_1  and  O_2
REMARK    2  A    between atoms: O_2  and  C_3
REMARK    3  A    between atoms: C_7  and  C_8
REMARK    4  A    between atoms: C_8  and  N_9
REMARK    5  A    between atoms: C_14  and  C_15
REMARK                            x       y       z     vdW  Elec       q    Type
REMARK                         _______ _______ _______ _____ _____    ______ ____
ROOT
ATOM      1  N   UNL     1      47.380   6.397  13.975  0.00  0.00    +0.000 N 
ATOM      2  C   UNL     1      47.606   5.382  14.871  0.00  0.00    +0.000 A 
ATOM      3  C   UNL     1      46.970   4.256  14.403  0.00  0.00    +0.000 A 
ATOM      4  C   UNL     1      46.338   4.593  13.175  0.00  0.00    +0.000 A 
ATOM      5  C   UNL     1      45.540   3.870  12.264  0.00  0.00    +0.000 A 
ATOM      6  C   UNL     1      45.042   4.505  11.115  0.00  0.00    +0.000 A 
ATOM      7  C   UNL     1      45.364   5.846  10.872  0.00  0.00    +0.000 A 
ATOM      8  C   UNL     1      46.163   6.580  11.755  0.00  0.00    +0.000 A 
ATOM      9  C   UNL     1      46.629   5.934  12.909  0.00  0.00    +0.000 A 
ENDROOT
BRANCH   6  10
ATOM     10  C   UNL     1      44.161   3.817  10.126  0.00  0.00    +0.000 C 
ATOM     11  N   UNL     1      43.998   4.375   8.890  0.00  0.00    +0.000 N 
ATOM     12  O   UNL     1      43.592   2.767  10.399  0.00  0.00    +0.000 OA
ATOM     13  H   UNL     1      44.419   5.234   8.575  0.00  0.00    +0.000 HD
ATOM     14  H   UNL     1      43.399   3.878   8.244  0.00  0.00    +0.000 HD
ENDBRANCH   6  10
BRANCH   1  15
ATOM     15  C   UNL     1      47.907   7.747  14.114  0.00  0.00    +0.000 C 
BRANCH  15  20
ATOM     16  C   UNL     1      49.345   9.930  11.545  0.00  0.00    +0.000 A 
ATOM     17  C   UNL     1      50.467   9.277  11.071  0.00  0.00    +0.000 A 
ATOM     18  C   UNL     1      50.747   8.013  11.573  0.00  0.00    +0.000 A 
ATOM     19  C   UNL     1      49.906   7.460  12.540  0.00  0.00    +0.000 A 
ATOM     20  C   UNL     1      48.800   8.189  12.980  0.00  0.00    +0.000 A 
ATOM     21  N   UNL     1      48.521   9.420  12.483  0.00  0.00    +0.000 NA
BRANCH  16  23
ATOM     22  C   UNL     1      47.699  11.445  10.884  0.00  0.00    +0.000 C 
ATOM     23  O   UNL     1      49.093  11.185  11.028  0.00  0.00    +0.000 OA
ENDBRANCH  16  23
ENDBRANCH  15  20
ENDBRANCH   1  15
TORSDOF 4
ENDMDL
MODEL 9
REMARK VINA RESULT:    -5.522      4.165      6.925
REMARK INTER + INTRA:          -7.204
REMARK INTER:                  -6.643
REMARK INTRA:                  -0.561
REMARK UNBOUND:                -0.391
REMARK  Name = 
REMARK  5 active torsions:
REMARK  status: ('A' for Active; 'I' for Inactive)
REMARK    1  A    between atoms: C_1  and  O_2
REMARK    2  A    between atoms: O_2  and  C_3
REMARK    3  A    between atoms: C_7  and  C_8
REMARK    4  A    between atoms: C_8  and  N_9
REMARK    5  A    between atoms: C_14  and  C_15
REMARK                            x       y       z     vdW  Elec       q    Type
REMARK                         _______ _______ _______ _____ _____    ______ ____
ROOT
ATOM      1  N   UNL     1      48.290   6.033  15.487  0.00  0.00    +0.000 N 
ATOM      2  C   UNL     1      49.047   7.101  15.073  0.00  0.00    +0.000 A 
ATOM      3  C   UNL     1      48.700   7.386  13.772  0.00  0.00    +0.000 A 
ATOM      4  C   UNL     1      47.692   6.464  13.380  0.00  0.00    +0.000 A 
ATOM      5  C   UNL     1      46.979   6.259  12.180  0.00  0.00    +0.000 A 
ATOM      6  C   UNL     1      46.027   5.230  12.102  0.00  0.00    +0.000 A 
ATOM      7  C   UNL     1      45.778   4.432  13.224  0.00  0.00    +0.000 A 
ATOM      8  C   UNL     1      46.464   4.624  14.428  0.00  0.00    +0.000 A 
ATOM      9  C   UNL     1      47.428   5.641  14.477  0.00  0.00    +0.000 A 
ENDROOT
BRANCH   6  10
ATOM     10  C   UNL     1      45.262   4.927  10.857  0.00  0.00    +0.000 C 
ATOM     11  N   UNL     1      45.215   5.868   9.868  0.00  0.00    +0.000 N 
ATOM     12  O   UNL     1      44.685   3.856  10.705  0.00  0.00    +0.000 OA
ATOM     13  H   UNL     1      45.651   6.775   9.901  0.00  0.00    +0.000 HD
ATOM     14  H   UNL     1      44.692   5.626   9.037  0.00  0.00    +0.000 HD
ENDBRANCH   6  10
BRANCH   1  15
ATOM     15  C   UNL     1      48.358   5.446  16.817  0.00  0.00    +0.000 C 
BRANCH  15  20
ATOM     16  C   UNL     1      51.345   3.439  17.511  0.00  0.00    +0.000 A 
ATOM     17  C   UNL     1      50.956   2.119  17.393  0.00  0.00    +0.000 A 
ATOM     18  C   UNL     1      49.650   1.856  17.001  0.00  0.00    +0.000 A 
ATOM     19  C   UNL     1      48.781   2.922  16.761  0.00  0.00    +0.000 A 
ATOM     20  C   UNL     1      49.244   4.229  16.918  0.00  0.00    +0.000 A 
ATOM     21  N   UNL     1      50.522   4.486  17.291  0.00  0.00    +0.000 NA
BRANCH  16  23
ATOM     22  C   UNL     1      52.747   4.067  19.267  0.00  0.00    +0.000 C 
ATOM     23  O   UNL     1      52.649   3.669  17.902  0.00  0.00    +0.000 OA
ENDBRANCH  16  23
ENDBRANCH  15  20
ENDBRANCH   1  15
TORSDOF 4
ENDMDL
