MODEL 1
REMARK VINA RESULT:    -9.424      0.000      0.000
REMARK INTER + INTRA:         -12.925
REMARK INTER:                 -12.179
REMARK INTRA:                  -0.746
REMARK UNBOUND:                -0.746
REMARK  Name = 
REMARK  5 active torsions:
REMARK  status: ('A' for Active; 'I' for Inactive)
REMARK    1  A    between atoms: C_2  and  C_4
REMARK    2  A    between atoms: C_7  and  C_8
REMARK    3  A    between atoms: C_8  and  C_9
REMARK    4  A    between atoms: C_9  and  C_10
REMARK    5  A    between atoms: C_14  and  C_15
REMARK                            x       y       z     vdW  Elec       q    Type
REMARK                         _______ _______ _______ _____ _____    ______ ____
ROOT
ATOM      1  C   UNL     1      43.960   4.698  11.485  0.00  0.00    +0.000 C 
ATOM      2  C   UNL     1      42.746   5.126  12.313  0.00  0.00    +0.000 C 
ATOM      3  C   UNL     1      43.044   5.831  11.027  0.00  0.00    +0.000 C 
ENDROOT
BRANCH   1   4
ATOM      4  C   UNL     1      45.312   5.067  12.094  0.00  0.00    +0.000 A 
ATOM      5  C   UNL     1      46.080   6.139  11.617  0.00  0.00    +0.000 A 
ATOM      6  C   UNL     1      47.213   6.577  12.302  0.00  0.00    +0.000 A 
ATOM      7  C   UNL     1      47.615   5.932  13.473  0.00  0.00    +0.000 A 
ATOM      8  C   UNL     1      46.914   4.819  13.965  0.00  0.00    +0.000 A 
ATOM      9  C   UNL     1      45.778   4.401  13.243  0.00  0.00    +0.000 A 
BRANCH   8  10
ATOM     10  C   UNL     1      47.290   4.148  15.221  0.00  0.00    +0.000 A 
ATOM     11  N   UNL     1      47.859   2.928  15.145  0.00  0.00    +0.000 NA
ATOM     12  C   UNL     1      48.270   2.384  16.304  0.00  0.00    +0.000 A 
ATOM     13  C   UNL     1      48.128   2.998  17.526  0.00  0.00    +0.000 A 
ATOM     14  C   UNL     1      47.521   4.228  17.503  0.00  0.00    +0.000 A 
ATOM     15  N   UNL     1      47.097   4.825  16.375  0.00  0.00    +0.000 NA
ENDBRANCH   8  10
ENDBRANCH   1   4
BRANCH   1  16
ATOM     16  C   UNL     1      43.827   3.319  10.856  0.00  0.00    +0.000 C 
BRANCH  16  20
ATOM     17  C   UNL     1      46.427   2.717   7.534  0.00  0.00    +0.000 A 
ATOM     18  C   UNL     1      45.926   3.997   7.772  0.00  0.00    +0.000 A 
ATOM     19  C   UNL     1      45.030   4.194   8.823  0.00  0.00    +0.000 A 
ATOM     20  C   UNL     1      44.661   3.108   9.616  0.00  0.00    +0.000 A 
ATOM     21  N   UNL     1      45.117   1.852   9.379  0.00  0.00    +0.000 NA
ATOM     22  C   UNL     1      45.976   1.683   8.341  0.00  0.00    +0.000 A 
BRANCH  17  24
ATOM     23  N   UNL     1      47.367   3.202   5.342  0.00  0.00    +0.000 N 
ATOM     24  C   UNL     1      47.403   2.419   6.464  0.00  0.00    +0.000 C 
ATOM     25  O   UNL     1      48.241   1.536   6.590  0.00  0.00    +0.000 OA
ATOM     26  H   UNL     1      48.107   3.053   4.669  0.00  0.00    +0.000 HD
ATOM     27  H   UNL     1      46.879   4.085   5.311  0.00  0.00    +0.000 HD
ENDBRANCH  17  24
ENDBRANCH  16  20
ENDBRANCH   1  16
TORSDOF 5
ENDMDL
MODEL 2
REMARK VINA RESULT:    -8.208      2.155      3.608
REMARK INTER + INTRA:         -11.353
REMARK INTER:                 -10.361
REMARK INTRA:                  -0.992
REMARK UNBOUND:                -0.746
REMARK  Name = 
REMARK  5 active torsions:
REMARK  status: ('A' for Active; 'I' for Inactive)
REMARK    1  A    between atoms: C_2  and  C_4
REMARK    2  A    between atoms: C_7  and  C_8
REMARK    3  A    between atoms: C_8  and  C_9
REMARK    4  A    between atoms: C_9  and  C_10
REMARK    5  A    between atoms: C_14  and  C_15
REMARK                            x       y       z     vdW  Elec       q    Type
REMARK                         _______ _______ _______ _____ _____    ______ ____
ROOT
ATOM      1  C   UNL     1      43.753   4.999  11.426  0.00  0.00    +0.000 C 
ATOM      2  C   UNL     1      42.514   5.535  12.146  0.00  0.00    +0.000 C 
ATOM      3  C   UNL     1      43.086   6.303  10.997  0.00  0.00    +0.000 C 
ENDROOT
BRANCH   1   4
ATOM      4  C   UNL     1      45.049   5.085  12.232  0.00  0.00    +0.000 A 
ATOM      5  C   UNL     1      45.493   4.036  13.049  0.00  0.00    +0.000 A 
ATOM      6  C   UNL     1      46.764   4.055  13.623  0.00  0.00    +0.000 A 
ATOM      7  C   UNL     1      47.612   5.143  13.406  0.00  0.00    +0.000 A 
ATOM      8  C   UNL     1      47.198   6.244  12.641  0.00  0.00    +0.000 A 
ATOM      9  C   UNL     1      45.904   6.193  12.083  0.00  0.00    +0.000 A 
BRANCH   8  10
ATOM     10  C   UNL     1      48.088   7.383  12.361  0.00  0.00    +0.000 A 
ATOM     11  N   UNL     1      49.417   7.157  12.316  0.00  0.00    +0.000 NA
ATOM     12  C   UNL     1      50.192   8.201  11.971  0.00  0.00    +0.000 A 
ATOM     13  C   UNL     1      49.701   9.452  11.683  0.00  0.00    +0.000 A 
ATOM     14  C   UNL     1      48.339   9.588  11.773  0.00  0.00    +0.000 A 
ATOM     15  N   UNL     1      47.513   8.580  12.106  0.00  0.00    +0.000 NA
ENDBRANCH   8  10
ENDBRANCH   1   4
BRANCH   1  16
ATOM     16  C   UNL     1      43.506   3.727  10.629  0.00  0.00    +0.000 C 
BRANCH  16  20
ATOM     17  C   UNL     1      46.388   2.728   7.654  0.00  0.00    +0.000 A 
ATOM     18  C   UNL     1      45.889   1.716   8.473  0.00  0.00    +0.000 A 
ATOM     19  C   UNL     1      44.988   2.040   9.487  0.00  0.00    +0.000 A 
ATOM     20  C   UNL     1      44.600   3.370   9.653  0.00  0.00    +0.000 A 
ATOM     21  N   UNL     1      45.098   4.370   8.883  0.00  0.00    +0.000 NA
ATOM     22  C   UNL     1      45.986   4.030   7.913  0.00  0.00    +0.000 A 
BRANCH  17  24
ATOM     23  N   UNL     1      47.144   3.202   5.390  0.00  0.00    +0.000 N 
ATOM     24  C   UNL     1      47.322   2.475   6.536  0.00  0.00    +0.000 C 
ATOM     25  O   UNL     1      48.246   1.679   6.640  0.00  0.00    +0.000 OA
ATOM     26  H   UNL     1      47.853   3.093   4.677  0.00  0.00    +0.000 HD
ATOM     27  H   UNL     1      46.574   4.035   5.357  0.00  0.00    +0.000 HD
ENDBRANCH  17  24
ENDBRANCH  16  20
ENDBRANCH   1  16
TORSDOF 5
ENDMDL
MODEL 3
REMARK VINA RESULT:    -7.911      2.695      7.527
REMARK INTER + INTRA:         -10.969
REMARK INTER:                 -10.202
REMARK INTRA:                  -0.768
REMARK UNBOUND:                -0.746
REMARK  Name = 
REMARK  5 active torsions:
REMARK  status: ('A' for Active; 'I' for Inactive)
REMARK    1  A    between atoms: C_2  and  C_4
REMARK    2  A    between atoms: C_7  and  C_8
REMARK    3  A    between atoms: C_8  and  C_9
REMARK    4  A    between atoms: C_9  and  C_10
REMARK    5  A    between atoms: C_14  and  C_15
REMARK                            x       y       z     vdW  Elec       q    Type
REMARK                         _______ _______ _______ _____ _____    ______ ____
ROOT
ATOM      1  C   UNL     1      46.424   7.344  12.454  0.00  0.00    +0.000 C 
ATOM      2  C   UNL     1      46.450   8.747  11.845  0.00  0.00    +0.000 C 
ATOM      3  C   UNL     1      45.866   8.548  13.208  0.00  0.00    +0.000 C 
ENDROOT
BRANCH   1   4
ATOM      4  C   UNL     1      45.432   6.381  11.802  0.00  0.00    +0.000 A 
ATOM      5  C   UNL     1      44.055   6.440  12.055  0.00  0.00    +0.000 A 
ATOM      6  C   UNL     1      43.150   5.683  11.310  0.00  0.00    +0.000 A 
ATOM      7  C   UNL     1      43.613   4.830  10.307  0.00  0.00    +0.000 A 
ATOM      8  C   UNL     1      44.985   4.691  10.048  0.00  0.00    +0.000 A 
ATOM      9  C   UNL     1      45.870   5.466  10.826  0.00  0.00    +0.000 A 
BRANCH   8  10
ATOM     10  C   UNL     1      45.497   3.832   8.967  0.00  0.00    +0.000 A 
ATOM     11  N   UNL     1      46.032   4.425   7.881  0.00  0.00    +0.000 NA
ATOM     12  C   UNL     1      46.568   3.611   6.955  0.00  0.00    +0.000 A 
ATOM     13  C   UNL     1      46.582   2.241   7.062  0.00  0.00    +0.000 A 
ATOM     14  C   UNL     1      45.998   1.730   8.193  0.00  0.00    +0.000 A 
ATOM     15  N   UNL     1      45.453   2.494   9.156  0.00  0.00    +0.000 NA
ENDBRANCH   8  10
ENDBRANCH   1   4
BRANCH   1  16
ATOM     16  C   UNL     1      47.797   6.798  12.814  0.00  0.00    +0.000 C 
BRANCH  16  20
ATOM     17  C   UNL     1      47.622   4.524  16.414  0.00  0.00    +0.000 A 
ATOM     18  C   UNL     1      48.324   5.729  16.414  0.00  0.00    +0.000 A 
ATOM     19  C   UNL     1      48.435   6.454  15.227  0.00  0.00    +0.000 A 
ATOM     20  C   UNL     1      47.835   5.960  14.068  0.00  0.00    +0.000 A 
ATOM     21  N   UNL     1      47.174   4.775  14.045  0.00  0.00    +0.000 NA
ATOM     22  C   UNL     1      47.093   4.081  15.210  0.00  0.00    +0.000 A 
BRANCH  17  24
ATOM     23  N   UNL     1      48.049   4.118  18.774  0.00  0.00    +0.000 N 
ATOM     24  C   UNL     1      47.426   3.704  17.628  0.00  0.00    +0.000 C 
ATOM     25  O   UNL     1      46.702   2.717  17.625  0.00  0.00    +0.000 OA
ATOM     26  H   UNL     1      47.819   3.607  19.617  0.00  0.00    +0.000 HD
ATOM     27  H   UNL     1      48.430   5.046  18.882  0.00  0.00    +0.000 HD
ENDBRANCH  17  24
ENDBRANCH  16  20
ENDBRANCH   1  16
TORSDOF 5
ENDMDL
MODEL 4
REMARK VINA RESULT:    -7.035      2.825      4.652
REMARK INTER + INTRA:          -9.837
REMARK INTER:                  -8.926
REMARK INTRA:                  -0.911
REMARK UNBOUND:                -0.746
REMARK  Name = 
REMARK  5 active torsions:
REMARK  status: ('A' for Active; 'I' for Inactive)
REMARK    1  A    between atoms: C_2  and  C_4
REMARK    2  A    between atoms: C_7  and  C_8
REMARK    3  A    between atoms: C_8  and  C_9
REMARK    4  A    between atoms: C_9  and  C_10
REMARK    5  A    between atoms: C_14  and  C_15
REMARK                            x       y       z     vdW  Elec       q    Type
REMARK                         _______ _______ _______ _____ _____    ______ ____
ROOT
ATOM      1  C   UNL     1      47.689   8.042  12.949  0.00  0.00    +0.000 C 
ATOM      2  C   UNL     1      48.322   9.170  12.131  0.00  0.00    +0.000 C 
ATOM      3  C   UNL     1      48.648   7.748  11.798  0.00  0.00    +0.000 C 
ENDROOT
BRANCH   1   4
ATOM      4  C   UNL     1      48.218   7.912  14.377  0.00  0.00    +0.000 A 
ATOM      5  C   UNL     1      48.198   8.981  15.282  0.00  0.00    +0.000 A 
ATOM      6  C   UNL     1      48.506   8.793  16.630  0.00  0.00    +0.000 A 
ATOM      7  C   UNL     1      48.863   7.526  17.094  0.00  0.00    +0.000 A 
ATOM      8  C   UNL     1      48.952   6.431  16.220  0.00  0.00    +0.000 A 
ATOM      9  C   UNL     1      48.641   6.661  14.865  0.00  0.00    +0.000 A 
BRANCH   8  10
ATOM     10  C   UNL     1      49.284   5.076  16.692  0.00  0.00    +0.000 A 
ATOM     11  N   UNL     1      48.328   4.127  16.627  0.00  0.00    +0.000 NA
ATOM     12  C   UNL     1      48.693   2.883  16.984  0.00  0.00    +0.000 A 
ATOM     13  C   UNL     1      49.957   2.552  17.408  0.00  0.00    +0.000 A 
ATOM     14  C   UNL     1      50.855   3.588  17.458  0.00  0.00    +0.000 A 
ATOM     15  N   UNL     1      50.551   4.850  17.108  0.00  0.00    +0.000 NA
ENDBRANCH   8  10
ENDBRANCH   1   4
BRANCH   1  16
ATOM     16  C   UNL     1      46.190   7.890  12.739  0.00  0.00    +0.000 C 
BRANCH  16  20
ATOM     17  C   UNL     1      44.666   4.113  11.484  0.00  0.00    +0.000 A 
ATOM     18  C   UNL     1      45.148   4.245  12.785  0.00  0.00    +0.000 A 
ATOM     19  C   UNL     1      45.701   5.460  13.190  0.00  0.00    +0.000 A 
ATOM     20  C   UNL     1      45.752   6.519  12.284  0.00  0.00    +0.000 A 
ATOM     21  N   UNL     1      45.314   6.399  11.005  0.00  0.00    +0.000 NA
ATOM     22  C   UNL     1      44.794   5.201  10.632  0.00  0.00    +0.000 A 
BRANCH  17  24
ATOM     23  N   UNL     1      44.655   2.234   9.938  0.00  0.00    +0.000 N 
ATOM     24  C   UNL     1      44.036   2.875  10.977  0.00  0.00    +0.000 C 
ATOM     25  O   UNL     1      43.025   2.415  11.490  0.00  0.00    +0.000 OA
ATOM     26  H   UNL     1      44.271   1.336   9.675  0.00  0.00    +0.000 HD
ATOM     27  H   UNL     1      45.608   2.430   9.667  0.00  0.00    +0.000 HD
ENDBRANCH  17  24
ENDBRANCH  16  20
ENDBRANCH   1  16
TORSDOF 5
ENDMDL
MODEL 5
REMARK VINA RESULT:    -6.566      2.898      7.423
REMARK INTER + INTRA:          -9.231
REMARK INTER:                  -8.553
REMARK INTRA:                  -0.678
REMARK UNBOUND:                -0.746
REMARK  Name = 
REMARK  5 active torsions:
REMARK  status: ('A' for Active; 'I' for Inactive)
REMARK    1  A    between atoms: C_2  and  C_4
REMARK    2  A    between atoms: C_7  and  C_8
REMARK    3  A    between atoms: C_8  and  C_9
REMARK    4  A    between atoms: C_9  and  C_10
REMARK    5  A    between atoms: C_14  and  C_15
REMARK                            x       y       z     vdW  Elec       q    Type
REMARK                         _______ _______ _______ _____ _____    ______ ____
ROOT
ATOM      1  C   UNL     1      44.377   5.722  11.505  0.00  0.00    +0.000 C 
ATOM      2  C   UNL     1      43.001   6.377  11.367  0.00  0.00    +0.000 C 
ATOM      3  C   UNL     1      43.463   5.913  12.712  0.00  0.00    +0.000 C 
ENDROOT
BRANCH   1   4
ATOM      4  C   UNL     1      44.485   4.324  10.898  0.00  0.00    +0.000 A 
ATOM      5  C   UNL     1      43.681   3.258  11.325  0.00  0.00    +0.000 A 
ATOM      6  C   UNL     1      43.659   2.047  10.634  0.00  0.00    +0.000 A 
ATOM      7  C   UNL     1      44.465   1.871   9.508  0.00  0.00    +0.000 A 
ATOM      8  C   UNL     1      45.330   2.885   9.069  0.00  0.00    +0.000 A 
ATOM      9  C   UNL     1      45.330   4.093   9.796  0.00  0.00    +0.000 A 
BRANCH   8  10
ATOM     10  C   UNL     1      46.158   2.741   7.859  0.00  0.00    +0.000 A 
ATOM     11  N   UNL     1      46.856   1.599   7.698  0.00  0.00    +0.000 NA
ATOM     12  C   UNL     1      47.530   1.466   6.542  0.00  0.00    +0.000 A 
ATOM     13  C   UNL     1      47.544   2.421   5.553  0.00  0.00    +0.000 A 
ATOM     14  C   UNL     1      46.819   3.555   5.817  0.00  0.00    +0.000 A 
ATOM     15  N   UNL     1      46.120   3.742   6.951  0.00  0.00    +0.000 NA
ENDBRANCH   8  10
ENDBRANCH   1   4
BRANCH   1  16
ATOM     16  C   UNL     1      45.543   6.674  11.284  0.00  0.00    +0.000 C 
BRANCH  16  20
ATOM     17  C   UNL     1      48.195   6.708  14.620  0.00  0.00    +0.000 A 
ATOM     18  C   UNL     1      47.907   7.911  13.978  0.00  0.00    +0.000 A 
ATOM     19  C   UNL     1      47.085   7.905  12.850  0.00  0.00    +0.000 A 
ATOM     20  C   UNL     1      46.563   6.694  12.396  0.00  0.00    +0.000 A 
ATOM     21  N   UNL     1      46.856   5.510  12.992  0.00  0.00    +0.000 NA
ATOM     22  C   UNL     1      47.671   5.542  14.079  0.00  0.00    +0.000 A 
BRANCH  17  24
ATOM     23  N   UNL     1      49.225   7.773  16.549  0.00  0.00    +0.000 N 
ATOM     24  C   UNL     1      49.029   6.621  15.837  0.00  0.00    +0.000 C 
ATOM     25  O   UNL     1      49.494   5.556  16.221  0.00  0.00    +0.000 OA
ATOM     26  H   UNL     1      49.708   7.676  17.433  0.00  0.00    +0.000 HD
ATOM     27  H   UNL     1      48.658   8.598  16.417  0.00  0.00    +0.000 HD
ENDBRANCH  17  24
ENDBRANCH  16  20
ENDBRANCH   1  16
TORSDOF 5
ENDMDL
