MODEL 1
REMARK VINA RESULT:    -7.282      0.000      0.000
REMARK INTER + INTRA:         -11.388
REMARK INTER:                 -10.262
REMARK INTRA:                  -1.126
REMARK UNBOUND:                -1.126
REMARK  Name = 
REMARK  9 active torsions:
REMARK  status: ('A' for Active; 'I' for Inactive)
REMARK    1  A    between atoms: C_1  and  O_2
REMARK    2  A    between atoms: O_2  and  C_3
REMARK    3  A    between atoms: C_8  and  N_9
REMARK    4  A    between atoms: N_9  and  C_10
REMARK    5  A    between atoms: N_9  and  C_11
REMARK    6  A    between atoms: C_11  and  C_12
REMARK    7  A    between atoms: C_15  and  C_16
REMARK    8  A    between atoms: C_16  and  N_17
REMARK    9  A    between atoms: C_18  and  C_20
REMARK                            x       y       z     vdW  Elec       q    Type
REMARK                         _______ _______ _______ _____ _____    ______ ____
ROOT
ATOM      1  C   UNL     1      47.166   5.947  13.180  0.00  0.00    +0.000 A 
ATOM      2  C   UNL     1      48.000   6.744  13.971  0.00  0.00    +0.000 A 
ATOM      3  C   UNL     1      48.360   6.340  15.261  0.00  0.00    +0.000 A 
ATOM      4  C   UNL     1      47.867   5.141  15.796  0.00  0.00    +0.000 A 
ATOM      5  C   UNL     1      46.977   4.376  15.032  0.00  0.00    +0.000 A 
ATOM      6  C   UNL     1      46.638   4.768  13.737  0.00  0.00    +0.000 A 
ENDROOT
BRANCH   1   7
ATOM      7  C   UNL     1      46.778   6.350  11.766  0.00  0.00    +0.000 C 
BRANCH   7   8
ATOM      8  N   UNL     1      45.406   5.985  11.344  0.00  0.00    +0.000 N 
ATOM      9  C   UNL     1      44.398   7.052  11.443  0.00  0.00    +0.000 C 
BRANCH   8  15
ATOM     10  C   UNL     1      44.324   3.952  10.271  0.00  0.00    +0.000 A 
ATOM     11  C   UNL     1      44.280   3.059   9.179  0.00  0.00    +0.000 A 
ATOM     12  C   UNL     1      45.120   3.218   8.082  0.00  0.00    +0.000 A 
ATOM     13  C   UNL     1      45.996   4.285   8.051  0.00  0.00    +0.000 A 
ATOM     14  C   UNL     1      46.050   5.175   9.130  0.00  0.00    +0.000 A 
ATOM     15  C   UNL     1      45.257   5.035  10.296  0.00  0.00    +0.000 A 
BRANCH  10  17
ATOM     16  C   UNL     1      43.691   2.893  12.333  0.00  0.00    +0.000 C 
ATOM     17  O   UNL     1      43.419   3.831  11.300  0.00  0.00    +0.000 OA
ENDBRANCH  10  17
ENDBRANCH   8  15
ENDBRANCH   7   8
ENDBRANCH   1   7
BRANCH   4  18
ATOM     18  C   UNL     1      48.234   4.703  17.188  0.00  0.00    +0.000 C 
BRANCH  18  19
ATOM     19  N   UNL     1      49.611   4.292  17.251  0.00  0.00    +0.000 N 
ATOM     20  C   UNL     1      50.320   4.345  18.424  0.00  0.00    +0.000 C 
ATOM     21  O   UNL     1      49.806   4.705  19.480  0.00  0.00    +0.000 OA
ATOM     22  H   UNL     1      50.110   4.223  16.370  0.00  0.00    +0.000 HD
BRANCH  20  23
ATOM     23  C   UNL     1      51.711   3.882  18.366  0.00  0.00    +0.000 A 
ATOM     24  C   UNL     1      52.733   4.725  18.781  0.00  0.00    +0.000 A 
ATOM     25  S   UNL     1      54.281   4.011  18.705  0.00  0.00    +0.000 S 
ATOM     26  C   UNL     1      53.644   2.570  18.063  0.00  0.00    +0.000 A 
ATOM     27  N   UNL     1      54.458   1.529  17.740  0.00  0.00    +0.000 NA
ATOM     28  C   UNL     1      53.847   0.509  17.240  0.00  0.00    +0.000 A 
ATOM     29  N   UNL     1      52.493   0.433  17.034  0.00  0.00    +0.000 N 
ATOM     30  C   UNL     1      51.629   1.448  17.365  0.00  0.00    +0.000 A 
ATOM     31  O   UNL     1      50.420   1.335  17.199  0.00  0.00    +0.000 OA
ATOM     32  C   UNL     1      52.270   2.624  17.925  0.00  0.00    +0.000 A 
ATOM     33  H   UNL     1      52.076  -0.400  16.644  0.00  0.00    +0.000 HD
ENDBRANCH  20  23
ENDBRANCH  18  19
ENDBRANCH   4  18
TORSDOF 7
ENDMDL
MODEL 2
REMARK VINA RESULT:    -7.257      1.467      2.227
REMARK INTER + INTRA:         -11.353
REMARK INTER:                 -10.307
REMARK INTRA:                  -1.046
REMARK UNBOUND:                -1.126
REMARK  Name = 
REMARK  9 active torsions:
REMARK  status: ('A' for Active; 'I' for Inactive)
REMARK    1  A    between atoms: C_1  and  O_2
REMARK    2  A    between atoms: O_2  and  C_3
REMARK    3  A    between atoms: C_8  and  N_9
REMARK    4  A    between atoms: N_9  and  C_10
REMARK    5  A    between atoms: N_9  and  C_11
REMARK    6  A    between atoms: C_11  and  C_12
REMARK    7  A    between atoms: C_15  and  C_16
REMARK    8  A    between atoms: C_16  and  N_17
REMARK    9  A    between atoms: C_18  and  C_20
REMARK                            x       y       z     vdW  Elec       q    Type
REMARK                         _______ _______ _______ _____ _____    ______ ____
ROOT
ATOM      1  C   UNL     1      47.264   5.664  13.527  0.00  0.00    +0.000 A 
ATOM      2  C   UNL     1      47.944   6.240  14.605  0.00  0.00    +0.000 A 
ATOM      3  C   UNL     1      48.087   5.548  15.813  0.00  0.00    +0.000 A 
ATOM      4  C   UNL     1      47.524   4.273  15.974  0.00  0.00    +0.000 A 
ATOM      5  C   UNL     1      46.785   3.724  14.920  0.00  0.00    +0.000 A 
ATOM      6  C   UNL     1      46.663   4.405  13.708  0.00  0.00    +0.000 A 
ENDROOT
BRANCH   1   7
ATOM      7  C   UNL     1      47.116   6.384  12.197  0.00  0.00    +0.000 C 
BRANCH   7   8
ATOM      8  N   UNL     1      45.745   6.428  11.636  0.00  0.00    +0.000 N 
ATOM      9  C   UNL     1      45.135   7.763  11.534  0.00  0.00    +0.000 C 
BRANCH   8  15
ATOM     10  C   UNL     1      44.377   4.468  10.774  0.00  0.00    +0.000 A 
ATOM     11  C   UNL     1      44.128   3.554   9.729  0.00  0.00    +0.000 A 
ATOM     12  C   UNL     1      44.840   3.610   8.535  0.00  0.00    +0.000 A 
ATOM     13  C   UNL     1      45.791   4.596   8.362  0.00  0.00    +0.000 A 
ATOM     14  C   UNL     1      46.048   5.506   9.393  0.00  0.00    +0.000 A 
ATOM     15  C   UNL     1      45.393   5.467  10.649  0.00  0.00    +0.000 A 
BRANCH  10  17
ATOM     16  C   UNL     1      42.450   5.295  11.949  0.00  0.00    +0.000 C 
ATOM     17  O   UNL     1      43.596   4.454  11.906  0.00  0.00    +0.000 OA
ENDBRANCH  10  17
ENDBRANCH   8  15
ENDBRANCH   7   8
ENDBRANCH   1   7
BRANCH   4  18
ATOM     18  C   UNL     1      47.657   3.525  17.273  0.00  0.00    +0.000 C 
BRANCH  18  19
ATOM     19  N   UNL     1      49.041   3.321  17.609  0.00  0.00    +0.000 N 
ATOM     20  C   UNL     1      49.801   2.380  16.964  0.00  0.00    +0.000 C 
ATOM     21  O   UNL     1      49.353   1.697  16.048  0.00  0.00    +0.000 OA
ATOM     22  H   UNL     1      49.356   3.694  18.499  0.00  0.00    +0.000 HD
BRANCH  20  23
ATOM     23  C   UNL     1      51.204   2.278  17.382  0.00  0.00    +0.000 A 
ATOM     24  C   UNL     1      51.764   1.028  17.607  0.00  0.00    +0.000 A 
ATOM     25  S   UNL     1      53.417   1.085  18.028  0.00  0.00    +0.000 S 
ATOM     26  C   UNL     1      53.426   2.786  17.979  0.00  0.00    +0.000 A 
ATOM     27  N   UNL     1      54.555   3.488  18.270  0.00  0.00    +0.000 NA
ATOM     28  C   UNL     1      54.414   4.769  18.219  0.00  0.00    +0.000 A 
ATOM     29  N   UNL     1      53.247   5.415  17.901  0.00  0.00    +0.000 N 
ATOM     30  C   UNL     1      52.089   4.751  17.578  0.00  0.00    +0.000 A 
ATOM     31  O   UNL     1      51.071   5.357  17.265  0.00  0.00    +0.000 OA
ATOM     32  C   UNL     1      52.193   3.303  17.629  0.00  0.00    +0.000 A 
ATOM     33  H   UNL     1      53.206   6.424  17.872  0.00  0.00    +0.000 HD
ENDBRANCH  20  23
ENDBRANCH  18  19
ENDBRANCH   4  18
TORSDOF 7
ENDMDL
MODEL 3
REMARK VINA RESULT:    -7.055      3.658      9.114
REMARK INTER + INTRA:         -11.067
REMARK INTER:                  -9.549
REMARK INTRA:                  -1.518
REMARK UNBOUND:                -1.126
REMARK  Name = 
REMARK  9 active torsions:
REMARK  status: ('A' for Active; 'I' for Inactive)
REMARK    1  A    between atoms: C_1  and  O_2
REMARK    2  A    between atoms: O_2  and  C_3
REMARK    3  A    between atoms: C_8  and  N_9
REMARK    4  A    between atoms: N_9  and  C_10
REMARK    5  A    between atoms: N_9  and  C_11
REMARK    6  A    between atoms: C_11  and  C_12
REMARK    7  A    between atoms: C_15  and  C_16
REMARK    8  A    between atoms: C_16  and  N_17
REMARK    9  A    between atoms: C_18  and  C_20
REMARK                            x       y       z     vdW  Elec       q    Type
REMARK                         _______ _______ _______ _____ _____    ______ ____
ROOT
ATOM      1  C   UNL     1      49.085   7.935  16.030  0.00  0.00    +0.000 A 
ATOM      2  C   UNL     1      48.120   8.872  15.646  0.00  0.00    +0.000 A 
ATOM      3  C   UNL     1      47.562   8.838  14.363  0.00  0.00    +0.000 A 
ATOM      4  C   UNL     1      47.984   7.881  13.428  0.00  0.00    +0.000 A 
ATOM      5  C   UNL     1      48.999   6.987  13.789  0.00  0.00    +0.000 A 
ATOM      6  C   UNL     1      49.537   7.007  15.075  0.00  0.00    +0.000 A 
ENDROOT
BRANCH   1   7
ATOM      7  C   UNL     1      49.689   7.935  17.425  0.00  0.00    +0.000 C 
BRANCH   7   8
ATOM      8  N   UNL     1      49.042   7.037  18.409  0.00  0.00    +0.000 N 
ATOM      9  C   UNL     1      48.038   7.660  19.286  0.00  0.00    +0.000 C 
BRANCH   8  15
ATOM     10  C   UNL     1      49.854   4.668  17.980  0.00  0.00    +0.000 A 
ATOM     11  C   UNL     1      49.539   3.350  17.587  0.00  0.00    +0.000 A 
ATOM     12  C   UNL     1      48.234   2.980  17.279  0.00  0.00    +0.000 A 
ATOM     13  C   UNL     1      47.224   3.918  17.384  0.00  0.00    +0.000 A 
ATOM     14  C   UNL     1      47.527   5.228  17.769  0.00  0.00    +0.000 A 
ATOM     15  C   UNL     1      48.843   5.676  18.045  0.00  0.00    +0.000 A 
BRANCH  10  17
ATOM     16  C   UNL     1      52.160   4.998  17.386  0.00  0.00    +0.000 C 
ATOM     17  O   UNL     1      51.134   4.985  18.371  0.00  0.00    +0.000 OA
ENDBRANCH  10  17
ENDBRANCH   8  15
ENDBRANCH   7   8
ENDBRANCH   1   7
BRANCH   4  18
ATOM     18  C   UNL     1      47.404   7.844  12.040  0.00  0.00    +0.000 C 
BRANCH  18  19
ATOM     19  N   UNL     1      46.747   6.589  11.791  0.00  0.00    +0.000 N 
ATOM     20  C   UNL     1      45.379   6.495  11.745  0.00  0.00    +0.000 C 
ATOM     21  O   UNL     1      44.654   7.477  11.874  0.00  0.00    +0.000 OA
ATOM     22  H   UNL     1      47.301   5.748  11.919  0.00  0.00    +0.000 HD
BRANCH  20  23
ATOM     23  C   UNL     1      44.827   5.165  11.465  0.00  0.00    +0.000 A 
ATOM     24  C   UNL     1      44.089   4.508  12.441  0.00  0.00    +0.000 A 
ATOM     25  S   UNL     1      43.470   3.002  11.932  0.00  0.00    +0.000 S 
ATOM     26  C   UNL     1      44.214   3.150  10.409  0.00  0.00    +0.000 A 
ATOM     27  N   UNL     1      44.100   2.166   9.476  0.00  0.00    +0.000 NA
ATOM     28  C   UNL     1      44.734   2.396   8.377  0.00  0.00    +0.000 A 
ATOM     29  N   UNL     1      45.472   3.524   8.123  0.00  0.00    +0.000 N 
ATOM     30  C   UNL     1      45.599   4.553   9.023  0.00  0.00    +0.000 A 
ATOM     31  O   UNL     1      46.239   5.563   8.752  0.00  0.00    +0.000 OA
ATOM     32  C   UNL     1      44.909   4.338  10.282  0.00  0.00    +0.000 A 
ATOM     33  H   UNL     1      45.940   3.646   7.235  0.00  0.00    +0.000 HD
ENDBRANCH  20  23
ENDBRANCH  18  19
ENDBRANCH   4  18
TORSDOF 7
ENDMDL
MODEL 4
REMARK VINA RESULT:    -6.687      3.599      8.625
REMARK INTER + INTRA:         -10.548
REMARK INTER:                  -8.923
REMARK INTRA:                  -1.625
REMARK UNBOUND:                -1.126
REMARK  Name = 
REMARK  9 active torsions:
REMARK  status: ('A' for Active; 'I' for Inactive)
REMARK    1  A    between atoms: C_1  and  O_2
REMARK    2  A    between atoms: O_2  and  C_3
REMARK    3  A    between atoms: C_8  and  N_9
REMARK    4  A    between atoms: N_9  and  C_10
REMARK    5  A    between atoms: N_9  and  C_11
REMARK    6  A    between atoms: C_11  and  C_12
REMARK    7  A    between atoms: C_15  and  C_16
REMARK    8  A    between atoms: C_16  and  N_17
REMARK    9  A    between atoms: C_18  and  C_20
REMARK                            x       y       z     vdW  Elec       q    Type
REMARK                         _______ _______ _______ _____ _____    ______ ____
ROOT
ATOM      1  C   UNL     1      50.369   7.098  17.286  0.00  0.00    +0.000 A 
ATOM      2  C   UNL     1      50.428   6.749  15.933  0.00  0.00    +0.000 A 
ATOM      3  C   UNL     1      49.663   7.435  14.983  0.00  0.00    +0.000 A 
ATOM      4  C   UNL     1      48.800   8.469  15.377  0.00  0.00    +0.000 A 
ATOM      5  C   UNL     1      48.688   8.774  16.738  0.00  0.00    +0.000 A 
ATOM      6  C   UNL     1      49.469   8.104  17.681  0.00  0.00    +0.000 A 
ENDROOT
BRANCH   1   7
ATOM      7  C   UNL     1      51.207   6.384  18.334  0.00  0.00    +0.000 C 
BRANCH   7   8
ATOM      8  N   UNL     1      50.526   5.295  19.072  0.00  0.00    +0.000 N 
ATOM      9  C   UNL     1      50.211   5.573  20.482  0.00  0.00    +0.000 C 
BRANCH   8  15
ATOM     10  C   UNL     1      49.987   3.249  17.665  0.00  0.00    +0.000 A 
ATOM     11  C   UNL     1      49.014   2.502  16.967  0.00  0.00    +0.000 A 
ATOM     12  C   UNL     1      47.679   2.893  16.949  0.00  0.00    +0.000 A 
ATOM     13  C   UNL     1      47.297   4.022  17.648  0.00  0.00    +0.000 A 
ATOM     14  C   UNL     1      48.254   4.772  18.340  0.00  0.00    +0.000 A 
ATOM     15  C   UNL     1      49.635   4.452  18.353  0.00  0.00    +0.000 A 
BRANCH  10  17
ATOM     16  C   UNL     1      51.547   1.442  17.385  0.00  0.00    +0.000 C 
ATOM     17  O   UNL     1      51.281   2.791  17.749  0.00  0.00    +0.000 OA
ENDBRANCH  10  17
ENDBRANCH   8  15
ENDBRANCH   7   8
ENDBRANCH   1   7
BRANCH   4  18
ATOM     18  C   UNL     1      47.960   9.204  14.367  0.00  0.00    +0.000 C 
BRANCH  18  19
ATOM     19  N   UNL     1      46.897   8.368  13.877  0.00  0.00    +0.000 N 
ATOM     20  C   UNL     1      46.953   7.799  12.631  0.00  0.00    +0.000 C 
ATOM     21  O   UNL     1      47.923   7.941  11.892  0.00  0.00    +0.000 OA
ATOM     22  H   UNL     1      46.005   8.431  14.357  0.00  0.00    +0.000 HD
BRANCH  20  23
ATOM     23  C   UNL     1      45.817   6.951  12.250  0.00  0.00    +0.000 A 
ATOM     24  C   UNL     1      44.730   7.513  11.595  0.00  0.00    +0.000 A 
ATOM     25  S   UNL     1      43.526   6.381  11.172  0.00  0.00    +0.000 S 
ATOM     26  C   UNL     1      44.391   5.109  11.899  0.00  0.00    +0.000 A 
ATOM     27  N   UNL     1      43.893   3.843  11.913  0.00  0.00    +0.000 NA
ATOM     28  C   UNL     1      44.639   2.982  12.519  0.00  0.00    +0.000 A 
ATOM     29  N   UNL     1      45.841   3.272  13.112  0.00  0.00    +0.000 N 
ATOM     30  C   UNL     1      46.395   4.528  13.105  0.00  0.00    +0.000 A 
ATOM     31  O   UNL     1      47.488   4.747  13.615  0.00  0.00    +0.000 OA
ATOM     32  C   UNL     1      45.588   5.537  12.441  0.00  0.00    +0.000 A 
ATOM     33  H   UNL     1      46.381   2.548  13.566  0.00  0.00    +0.000 HD
ENDBRANCH  20  23
ENDBRANCH  18  19
ENDBRANCH   4  18
TORSDOF 7
ENDMDL
MODEL 5
REMARK VINA RESULT:    -6.650      1.626      2.529
REMARK INTER + INTRA:         -10.497
REMARK INTER:                  -9.460
REMARK INTRA:                  -1.037
REMARK UNBOUND:                -1.126
REMARK  Name = 
REMARK  9 active torsions:
REMARK  status: ('A' for Active; 'I' for Inactive)
REMARK    1  A    between atoms: C_1  and  O_2
REMARK    2  A    between atoms: O_2  and  C_3
REMARK    3  A    between atoms: C_8  and  N_9
REMARK    4  A    between atoms: N_9  and  C_10
REMARK    5  A    between atoms: N_9  and  C_11
REMARK    6  A    between atoms: C_11  and  C_12
REMARK    7  A    between atoms: C_15  and  C_16
REMARK    8  A    between atoms: C_16  and  N_17
REMARK    9  A    between atoms: C_18  and  C_20
REMARK                            x       y       z     vdW  Elec       q    Type
REMARK                         _______ _______ _______ _____ _____    ______ ____
ROOT
ATOM      1  C   UNL     1      47.985   6.922  12.612  0.00  0.00    +0.000 A 
ATOM      2  C   UNL     1      49.037   7.827  12.440  0.00  0.00    +0.000 A 
ATOM      3  C   UNL     1      49.893   8.138  13.502  0.00  0.00    +0.000 A 
ATOM      4  C   UNL     1      49.693   7.568  14.768  0.00  0.00    +0.000 A 
ATOM      5  C   UNL     1      48.600   6.715  14.959  0.00  0.00    +0.000 A 
ATOM      6  C   UNL     1      47.761   6.388  13.894  0.00  0.00    +0.000 A 
ENDROOT
BRANCH   1   7
ATOM      7  C   UNL     1      47.055   6.549  11.468  0.00  0.00    +0.000 C 
BRANCH   7   8
ATOM      8  N   UNL     1      45.608   6.562  11.783  0.00  0.00    +0.000 N 
ATOM      9  C   UNL     1      44.884   7.795  11.431  0.00  0.00    +0.000 C 
BRANCH   8  15
ATOM     10  C   UNL     1      44.669   4.567  10.520  0.00  0.00    +0.000 A 
ATOM     11  C   UNL     1      43.926   3.369  10.564  0.00  0.00    +0.000 A 
ATOM     12  C   UNL     1      43.412   2.880  11.760  0.00  0.00    +0.000 A 
ATOM     13  C   UNL     1      43.656   3.570  12.931  0.00  0.00    +0.000 A 
ATOM     14  C   UNL     1      44.389   4.762  12.899  0.00  0.00    +0.000 A 
ATOM     15  C   UNL     1      44.893   5.335  11.706  0.00  0.00    +0.000 A 
BRANCH  10  17
ATOM     16  C   UNL     1      45.525   4.004   8.346  0.00  0.00    +0.000 C 
ATOM     17  O   UNL     1      45.248   4.980   9.343  0.00  0.00    +0.000 OA
ENDBRANCH  10  17
ENDBRANCH   8  15
ENDBRANCH   7   8
ENDBRANCH   1   7
BRANCH   4  18
ATOM     18  C   UNL     1      50.597   7.906  15.923  0.00  0.00    +0.000 C 
BRANCH  18  19
ATOM     19  N   UNL     1      51.381   6.764  16.313  0.00  0.00    +0.000 N 
ATOM     20  C   UNL     1      51.140   6.100  17.488  0.00  0.00    +0.000 C 
ATOM     21  O   UNL     1      50.225   6.420  18.242  0.00  0.00    +0.000 OA
ATOM     22  H   UNL     1      52.269   6.635  15.839  0.00  0.00    +0.000 HD
BRANCH  20  23
ATOM     23  C   UNL     1      51.994   4.940  17.768  0.00  0.00    +0.000 A 
ATOM     24  C   UNL     1      53.310   5.135  18.164  0.00  0.00    +0.000 A 
ATOM     25  S   UNL     1      54.143   3.685  18.506  0.00  0.00    +0.000 S 
ATOM     26  C   UNL     1      52.790   2.745  18.081  0.00  0.00    +0.000 A 
ATOM     27  N   UNL     1      52.841   1.386  18.128  0.00  0.00    +0.000 NA
ATOM     28  C   UNL     1      51.755   0.798  17.756  0.00  0.00    +0.000 A 
ATOM     29  N   UNL     1      50.619   1.446  17.342  0.00  0.00    +0.000 N 
ATOM     30  C   UNL     1      50.511   2.814  17.300  0.00  0.00    +0.000 A 
ATOM     31  O   UNL     1      49.470   3.362  16.958  0.00  0.00    +0.000 OA
ATOM     32  C   UNL     1      51.713   3.523  17.702  0.00  0.00    +0.000 A 
ATOM     33  H   UNL     1      49.797   0.924  17.070  0.00  0.00    +0.000 HD
ENDBRANCH  20  23
ENDBRANCH  18  19
ENDBRANCH   4  18
TORSDOF 7
ENDMDL
MODEL 6
REMARK VINA RESULT:    -6.316      6.359      9.350
REMARK INTER + INTRA:         -10.026
REMARK INTER:                  -9.078
REMARK INTRA:                  -0.948
REMARK UNBOUND:                -1.126
REMARK  Name = 
REMARK  9 active torsions:
REMARK  status: ('A' for Active; 'I' for Inactive)
REMARK    1  A    between atoms: C_1  and  O_2
REMARK    2  A    between atoms: O_2  and  C_3
REMARK    3  A    between atoms: C_8  and  N_9
REMARK    4  A    between atoms: N_9  and  C_10
REMARK    5  A    between atoms: N_9  and  C_11
REMARK    6  A    between atoms: C_11  and  C_12
REMARK    7  A    between atoms: C_15  and  C_16
REMARK    8  A    between atoms: C_16  and  N_17
REMARK    9  A    between atoms: C_18  and  C_20
REMARK                            x       y       z     vdW  Elec       q    Type
REMARK                         _______ _______ _______ _____ _____    ______ ____
ROOT
ATOM      1  C   UNL     1      50.976   8.631  11.552  0.00  0.00    +0.000 A 
ATOM      2  C   UNL     1      50.365   7.395  11.781  0.00  0.00    +0.000 A 
ATOM      3  C   UNL     1      48.980   7.305  11.962  0.00  0.00    +0.000 A 
ATOM      4  C   UNL     1      48.184   8.460  11.945  0.00  0.00    +0.000 A 
ATOM      5  C   UNL     1      48.803   9.705  11.784  0.00  0.00    +0.000 A 
ATOM      6  C   UNL     1      50.180   9.790  11.581  0.00  0.00    +0.000 A 
ENDROOT
BRANCH   1   7
ATOM      7  C   UNL     1      52.476   8.754  11.329  0.00  0.00    +0.000 C 
BRANCH   7   8
ATOM      8  N   UNL     1      52.899   9.072   9.945  0.00  0.00    +0.000 N 
ATOM      9  C   UNL     1      53.787  10.236   9.797  0.00  0.00    +0.000 C 
BRANCH   8  15
ATOM     10  C   UNL     1      52.938   8.076   7.608  0.00  0.00    +0.000 A 
ATOM     11  C   UNL     1      53.109   6.932   6.800  0.00  0.00    +0.000 A 
ATOM     12  C   UNL     1      53.436   5.699   7.354  0.00  0.00    +0.000 A 
ATOM     13  C   UNL     1      53.620   5.600   8.720  0.00  0.00    +0.000 A 
ATOM     14  C   UNL     1      53.448   6.727   9.531  0.00  0.00    +0.000 A 
ATOM     15  C   UNL     1      53.066   7.997   9.030  0.00  0.00    +0.000 A 
BRANCH  10  17
ATOM     16  C   UNL     1      52.301   9.344   5.668  0.00  0.00    +0.000 C 
ATOM     17  O   UNL     1      52.709   9.303   7.030  0.00  0.00    +0.000 OA
ENDBRANCH  10  17
ENDBRANCH   8  15
ENDBRANCH   7   8
ENDBRANCH   1   7
BRANCH   4  18
ATOM     18  C   UNL     1      46.696   8.378  12.154  0.00  0.00    +0.000 C 
BRANCH  18  19
ATOM     19  N   UNL     1      46.229   7.026  12.000  0.00  0.00    +0.000 N 
ATOM     20  C   UNL     1      44.961   6.754  11.554  0.00  0.00    +0.000 C 
ATOM     21  O   UNL     1      44.180   7.644  11.228  0.00  0.00    +0.000 OA
ATOM     22  H   UNL     1      46.755   6.302  12.478  0.00  0.00    +0.000 HD
BRANCH  20  23
ATOM     23  C   UNL     1      44.606   5.337  11.421  0.00  0.00    +0.000 A 
ATOM     24  C   UNL     1      43.916   4.702  12.445  0.00  0.00    +0.000 A 
ATOM     25  S   UNL     1      43.532   3.075  12.104  0.00  0.00    +0.000 S 
ATOM     26  C   UNL     1      44.324   3.147  10.600  0.00  0.00    +0.000 A 
ATOM     27  N   UNL     1      44.389   2.054   9.792  0.00  0.00    +0.000 NA
ATOM     28  C   UNL     1      45.040   2.240   8.694  0.00  0.00    +0.000 A 
ATOM     29  N   UNL     1      45.632   3.422   8.328  0.00  0.00    +0.000 N 
ATOM     30  C   UNL     1      45.574   4.557   9.099  0.00  0.00    +0.000 A 
ATOM     31  O   UNL     1      46.085   5.608   8.728  0.00  0.00    +0.000 OA
ATOM     32  C   UNL     1      44.858   4.397  10.352  0.00  0.00    +0.000 A 
ATOM     33  H   UNL     1      46.123   3.504   7.449  0.00  0.00    +0.000 HD
ENDBRANCH  20  23
ENDBRANCH  18  19
ENDBRANCH   4  18
TORSDOF 7
ENDMDL
MODEL 7
REMARK VINA RESULT:    -6.076      3.315      9.432
REMARK INTER + INTRA:          -9.688
REMARK INTER:                  -9.205
REMARK INTRA:                  -0.483
REMARK UNBOUND:                -1.126
REMARK  Name = 
REMARK  9 active torsions:
REMARK  status: ('A' for Active; 'I' for Inactive)
REMARK    1  A    between atoms: C_1  and  O_2
REMARK    2  A    between atoms: O_2  and  C_3
REMARK    3  A    between atoms: C_8  and  N_9
REMARK    4  A    between atoms: N_9  and  C_10
REMARK    5  A    between atoms: N_9  and  C_11
REMARK    6  A    between atoms: C_11  and  C_12
REMARK    7  A    between atoms: C_15  and  C_16
REMARK    8  A    between atoms: C_16  and  N_17
REMARK    9  A    between atoms: C_18  and  C_20
REMARK                            x       y       z     vdW  Elec       q    Type
REMARK                         _______ _______ _______ _____ _____    ______ ____
ROOT
ATOM      1  C   UNL     1      49.419   6.614  16.578  0.00  0.00    +0.000 A 
ATOM      2  C   UNL     1      49.995   7.729  15.961  0.00  0.00    +0.000 A 
ATOM      3  C   UNL     1      49.602   8.118  14.676  0.00  0.00    +0.000 A 
ATOM      4  C   UNL     1      48.642   7.377  13.970  0.00  0.00    +0.000 A 
ATOM      5  C   UNL     1      48.115   6.221  14.559  0.00  0.00    +0.000 A 
ATOM      6  C   UNL     1      48.491   5.848  15.850  0.00  0.00    +0.000 A 
ENDROOT
BRANCH   1   7
ATOM      7  C   UNL     1      49.812   6.184  17.983  0.00  0.00    +0.000 C 
BRANCH   7   8
ATOM      8  N   UNL     1      51.170   5.611  18.126  0.00  0.00    +0.000 N 
ATOM      9  C   UNL     1      52.026   6.236  19.147  0.00  0.00    +0.000 C 
BRANCH   8  15
ATOM     10  C   UNL     1      52.572   3.499  17.966  0.00  0.00    +0.000 A 
ATOM     11  C   UNL     1      52.621   2.116  17.688  0.00  0.00    +0.000 A 
ATOM     12  C   UNL     1      51.473   1.404  17.359  0.00  0.00    +0.000 A 
ATOM     13  C   UNL     1      50.258   2.061  17.327  0.00  0.00    +0.000 A 
ATOM     14  C   UNL     1      50.198   3.432  17.597  0.00  0.00    +0.000 A 
ATOM     15  C   UNL     1      51.340   4.220  17.888  0.00  0.00    +0.000 A 
BRANCH  10  17
ATOM     16  C   UNL     1      54.890   4.026  17.609  0.00  0.00    +0.000 C 
ATOM     17  O   UNL     1      53.704   4.161  18.382  0.00  0.00    +0.000 OA
ENDBRANCH  10  17
ENDBRANCH   8  15
ENDBRANCH   7   8
ENDBRANCH   1   7
BRANCH   4  18
ATOM     18  C   UNL     1      48.222   7.775  12.581  0.00  0.00    +0.000 C 
BRANCH  18  19
ATOM     19  N   UNL     1      47.516   6.702  11.931  0.00  0.00    +0.000 N 
ATOM     20  C   UNL     1      46.224   6.856  11.499  0.00  0.00    +0.000 C 
ATOM     21  O   UNL     1      45.622   7.920  11.609  0.00  0.00    +0.000 OA
ATOM     22  H   UNL     1      47.898   5.769  12.043  0.00  0.00    +0.000 HD
BRANCH  20  23
ATOM     23  C   UNL     1      45.618   5.697  10.833  0.00  0.00    +0.000 A 
ATOM     24  C   UNL     1      45.777   5.530   9.464  0.00  0.00    +0.000 A 
ATOM     25  S   UNL     1      45.061   4.104   8.862  0.00  0.00    +0.000 S 
ATOM     26  C   UNL     1      44.465   3.689  10.401  0.00  0.00    +0.000 A 
ATOM     27  N   UNL     1      43.723   2.562  10.583  0.00  0.00    +0.000 NA
ATOM     28  C   UNL     1      43.315   2.382  11.794  0.00  0.00    +0.000 A 
ATOM     29  N   UNL     1      43.582   3.226  12.841  0.00  0.00    +0.000 N 
ATOM     30  C   UNL     1      44.344   4.361  12.712  0.00  0.00    +0.000 A 
ATOM     31  O   UNL     1      44.592   5.076  13.676  0.00  0.00    +0.000 OA
ATOM     32  C   UNL     1      44.821   4.613  11.364  0.00  0.00    +0.000 A 
ATOM     33  H   UNL     1      43.237   3.023  13.769  0.00  0.00    +0.000 HD
ENDBRANCH  20  23
ENDBRANCH  18  19
ENDBRANCH   4  18
TORSDOF 7
ENDMDL
MODEL 8
REMARK VINA RESULT:    -5.780      5.585      9.827
REMARK INTER + INTRA:          -9.270
REMARK INTER:                  -8.284
REMARK INTRA:                  -0.986
REMARK UNBOUND:                -1.126
REMARK  Name = 
REMARK  9 active torsions:
REMARK  status: ('A' for Active; 'I' for Inactive)
REMARK    1  A    between atoms: C_1  and  O_2
REMARK    2  A    between atoms: O_2  and  C_3
REMARK    3  A    between atoms: C_8  and  N_9
REMARK    4  A    between atoms: N_9  and  C_10
REMARK    5  A    between atoms: N_9  and  C_11
REMARK    6  A    between atoms: C_11  and  C_12
REMARK    7  A    between atoms: C_15  and  C_16
REMARK    8  A    between atoms: C_16  and  N_17
REMARK    9  A    between atoms: C_18  and  C_20
REMARK                            x       y       z     vdW  Elec       q    Type
REMARK                         _______ _______ _______ _____ _____    ______ ____
ROOT
ATOM      1  C   UNL     1      50.153   9.043  11.534  0.00  0.00    +0.000 A 
ATOM      2  C   UNL     1      49.760   7.736  11.840  0.00  0.00    +0.000 A 
ATOM      3  C   UNL     1      48.416   7.434  12.086  0.00  0.00    +0.000 A 
ATOM      4  C   UNL     1      47.442   8.443  12.058  0.00  0.00    +0.000 A 
ATOM      5  C   UNL     1      47.844   9.763  11.820  0.00  0.00    +0.000 A 
ATOM      6  C   UNL     1      49.181  10.059  11.553  0.00  0.00    +0.000 A 
ENDROOT
BRANCH   1   7
ATOM      7  C   UNL     1      51.603   9.394  11.240  0.00  0.00    +0.000 C 
BRANCH   7   8
ATOM      8  N   UNL     1      52.401   9.864  12.396  0.00  0.00    +0.000 N 
ATOM      9  C   UNL     1      52.001  11.159  12.969  0.00  0.00    +0.000 C 
BRANCH   8  15
ATOM     10  C   UNL     1      54.158   8.170  13.104  0.00  0.00    +0.000 A 
ATOM     11  C   UNL     1      54.578   7.209  14.047  0.00  0.00    +0.000 A 
ATOM     12  C   UNL     1      53.835   6.949  15.194  0.00  0.00    +0.000 A 
ATOM     13  C   UNL     1      52.676   7.664  15.424  0.00  0.00    +0.000 A 
ATOM     14  C   UNL     1      52.248   8.617  14.493  0.00  0.00    +0.000 A 
ATOM     15  C   UNL     1      52.934   8.888  13.283  0.00  0.00    +0.000 A 
BRANCH  10  17
ATOM     16  C   UNL     1      55.750   9.656  12.088  0.00  0.00    +0.000 C 
ATOM     17  O   UNL     1      54.957   8.477  12.027  0.00  0.00    +0.000 OA
ENDBRANCH  10  17
ENDBRANCH   8  15
ENDBRANCH   7   8
ENDBRANCH   1   7
BRANCH   4  18
ATOM     18  C   UNL     1      45.996   8.134  12.337  0.00  0.00    +0.000 C 
BRANCH  18  19
ATOM     19  N   UNL     1      45.692   6.766  12.011  0.00  0.00    +0.000 N 
ATOM     20  C   UNL     1      44.465   6.405  11.514  0.00  0.00    +0.000 C 
ATOM     21  O   UNL     1      43.586   7.231  11.287  0.00  0.00    +0.000 OA
ATOM     22  H   UNL     1      46.299   6.055  12.405  0.00  0.00    +0.000 HD
BRANCH  20  23
ATOM     23  C   UNL     1      44.281   4.984  11.203  0.00  0.00    +0.000 A 
ATOM     24  C   UNL     1      43.519   4.188  12.048  0.00  0.00    +0.000 A 
ATOM     25  S   UNL     1      43.356   2.578  11.510  0.00  0.00    +0.000 S 
ATOM     26  C   UNL     1      44.345   2.874  10.157  0.00  0.00    +0.000 A 
ATOM     27  N   UNL     1      44.637   1.880   9.274  0.00  0.00    +0.000 NA
ATOM     28  C   UNL     1      45.417   2.235   8.310  0.00  0.00    +0.000 A 
ATOM     29  N   UNL     1      45.931   3.496   8.146  0.00  0.00    +0.000 N 
ATOM     30  C   UNL     1      45.647   4.536   8.997  0.00  0.00    +0.000 A 
ATOM     31  O   UNL     1      46.097   5.659   8.803  0.00  0.00    +0.000 OA
ATOM     32  C   UNL     1      44.779   4.184  10.106  0.00  0.00    +0.000 A 
ATOM     33  H   UNL     1      46.533   3.710   7.363  0.00  0.00    +0.000 HD
ENDBRANCH  20  23
ENDBRANCH  18  19
ENDBRANCH   4  18
TORSDOF 7
ENDMDL
MODEL 9
REMARK VINA RESULT:    -5.471      3.009      4.154
REMARK INTER + INTRA:          -8.835
REMARK INTER:                  -8.082
REMARK INTRA:                  -0.753
REMARK UNBOUND:                -1.126
REMARK  Name = 
REMARK  9 active torsions:
REMARK  status: ('A' for Active; 'I' for Inactive)
REMARK    1  A    between atoms: C_1  and  O_2
REMARK    2  A    between atoms: O_2  and  C_3
REMARK    3  A    between atoms: C_8  and  N_9
REMARK    4  A    between atoms: N_9  and  C_10
REMARK    5  A    between atoms: N_9  and  C_11
REMARK    6  A    between atoms: C_11  and  C_12
REMARK    7  A    between atoms: C_15  and  C_16
REMARK    8  A    between atoms: C_16  and  N_17
REMARK    9  A    between atoms: C_18  and  C_20
REMARK                            x       y       z     vdW  Elec       q    Type
REMARK                         _______ _______ _______ _____ _____    ______ ____
ROOT
ATOM      1  C   UNL     1      47.757   7.271  12.074  0.00  0.00    +0.000 A 
ATOM      2  C   UNL     1      48.380   6.465  13.033  0.00  0.00    +0.000 A 
ATOM      3  C   UNL     1      49.284   7.013  13.948  0.00  0.00    +0.000 A 
ATOM      4  C   UNL     1      49.605   8.379  13.903  0.00  0.00    +0.000 A 
ATOM      5  C   UNL     1      49.035   9.172  12.900  0.00  0.00    +0.000 A 
ATOM      6  C   UNL     1      48.116   8.629  12.003  0.00  0.00    +0.000 A 
ENDROOT
BRANCH   1   7
ATOM      7  C   UNL     1      46.753   6.705  11.082  0.00  0.00    +0.000 C 
BRANCH   7   8
ATOM      8  N   UNL     1      45.352   6.623  11.558  0.00  0.00    +0.000 N 
ATOM      9  C   UNL     1      44.509   7.797  11.278  0.00  0.00    +0.000 C 
BRANCH   8  15
ATOM     10  C   UNL     1      44.630   4.445  10.467  0.00  0.00    +0.000 A 
ATOM     11  C   UNL     1      43.961   3.210  10.595  0.00  0.00    +0.000 A 
ATOM     12  C   UNL     1      43.394   2.817  11.803  0.00  0.00    +0.000 A 
ATOM     13  C   UNL     1      43.512   3.644  12.904  0.00  0.00    +0.000 A 
ATOM     14  C   UNL     1      44.170   4.872  12.787  0.00  0.00    +0.000 A 
ATOM     15  C   UNL     1      44.722   5.349  11.571  0.00  0.00    +0.000 A 
BRANCH  10  17
ATOM     16  C   UNL     1      45.117   3.894   8.179  0.00  0.00    +0.000 C 
ATOM     17  O   UNL     1      45.264   4.769   9.290  0.00  0.00    +0.000 OA
ENDBRANCH  10  17
ENDBRANCH   8  15
ENDBRANCH   7   8
ENDBRANCH   1   7
BRANCH   4  18
ATOM     18  C   UNL     1      50.588   8.977  14.872  0.00  0.00    +0.000 C 
BRANCH  18  19
ATOM     19  N   UNL     1      50.280   8.588  16.222  0.00  0.00    +0.000 N 
ATOM     20  C   UNL     1      51.027   7.646  16.882  0.00  0.00    +0.000 C 
ATOM     21  O   UNL     1      52.013   7.121  16.371  0.00  0.00    +0.000 OA
ATOM     22  H   UNL     1      49.355   8.822  16.568  0.00  0.00    +0.000 HD
BRANCH  20  23
ATOM     23  C   UNL     1      50.627   7.346  18.261  0.00  0.00    +0.000 A 
ATOM     24  C   UNL     1      50.853   8.282  19.262  0.00  0.00    +0.000 A 
ATOM     25  S   UNL     1      50.274   7.799  20.792  0.00  0.00    +0.000 S 
ATOM     26  C   UNL     1      49.753   6.299  20.182  0.00  0.00    +0.000 A 
ATOM     27  N   UNL     1      49.175   5.376  20.998  0.00  0.00    +0.000 NA
ATOM     28  C   UNL     1      48.850   4.274  20.411  0.00  0.00    +0.000 A 
ATOM     29  N   UNL     1      49.050   4.010  19.080  0.00  0.00    +0.000 N 
ATOM     30  C   UNL     1      49.607   4.918  18.213  0.00  0.00    +0.000 A 
ATOM     31  O   UNL     1      49.741   4.664  17.022  0.00  0.00    +0.000 OA
ATOM     32  C   UNL     1      49.999   6.174  18.829  0.00  0.00    +0.000 A 
ATOM     33  H   UNL     1      48.765   3.127  18.680  0.00  0.00    +0.000 HD
ENDBRANCH  20  23
ENDBRANCH  18  19
ENDBRANCH   4  18
TORSDOF 7
ENDMDL
