MODEL 1
REMARK VINA RESULT:    -7.747      0.000      0.000
REMARK INTER + INTRA:         -10.871
REMARK INTER:                 -10.238
REMARK INTRA:                  -0.633
REMARK UNBOUND:                -0.633
REMARK  Name = 
REMARK  6 active torsions:
REMARK  status: ('A' for Active; 'I' for Inactive)
REMARK    1  A    between atoms: N_1  and  C_2
REMARK    2  A    between atoms: C_2  and  C_3
REMARK    3  A    between atoms: C_7  and  O_8
REMARK    4  A    between atoms: O_8  and  C_9
REMARK    5  A    between atoms: C_9  and  C_10
REMARK    6  A    between atoms: C_14  and  C_15
REMARK                            x       y       z     vdW  Elec       q    Type
REMARK                         _______ _______ _______ _____ _____    ______ ____
ROOT
ATOM      1  C   UNL     1      43.858   4.458  10.398  0.00  0.00    +0.000 C 
ENDROOT
BRANCH   1   2
ATOM      2  C   UNL     1      44.923   5.084  11.261  0.00  0.00    +0.000 A 
ATOM      3  C   UNL     1      45.364   6.387  11.049  0.00  0.00    +0.000 A 
ATOM      4  N   UNL     1      46.287   7.012  11.816  0.00  0.00    +0.000 NA
ATOM      5  C   UNL     1      46.796   6.308  12.856  0.00  0.00    +0.000 A 
ATOM      6  C   UNL     1      46.422   5.012  13.176  0.00  0.00    +0.000 A 
ATOM      7  C   UNL     1      45.463   4.399  12.360  0.00  0.00    +0.000 A 
BRANCH   6   8
ATOM      8  C   UNL     1      46.976   4.264  14.332  0.00  0.00    +0.000 C 
ATOM      9  N   UNL     1      47.134   4.908  15.530  0.00  0.00    +0.000 N 
ATOM     10  O   UNL     1      47.288   3.084  14.228  0.00  0.00    +0.000 OA
ATOM     11  H   UNL     1      46.912   5.871  15.724  0.00  0.00    +0.000 HD
ATOM     12  H   UNL     1      47.513   4.357  16.290  0.00  0.00    +0.000 HD
ENDBRANCH   6   8
ENDBRANCH   1   2
BRANCH   1  13
ATOM     13  O   UNL     1      44.272   4.459   9.030  0.00  0.00    +0.000 OA
BRANCH  13  18
ATOM     14  C   UNL     1      46.676   2.644   6.984  0.00  0.00    +0.000 A 
ATOM     15  C   UNL     1      46.597   1.353   7.524  0.00  0.00    +0.000 A 
ATOM     16  C   UNL     1      45.720   1.076   8.571  0.00  0.00    +0.000 A 
ATOM     17  C   UNL     1      44.917   2.086   9.105  0.00  0.00    +0.000 A 
ATOM     18  C   UNL     1      44.987   3.380   8.588  0.00  0.00    +0.000 A 
ATOM     19  C   UNL     1      45.860   3.650   7.526  0.00  0.00    +0.000 A 
BRANCH  14  20
ATOM     20  C   UNL     1      47.648   2.946   5.873  0.00  0.00    +0.000 C 
BRANCH  20  21
ATOM     21  N   UNL     1      48.558   1.832   5.633  0.00  0.00    +0.000 NA
ATOM     22  H   UNL     1      49.232   2.100   4.919  0.00  0.00    +0.000 HD
ATOM     23  H   UNL     1      48.027   1.052   5.250  0.00  0.00    +0.000 HD
ENDBRANCH  20  21
ENDBRANCH  14  20
ENDBRANCH  13  18
ENDBRANCH   1  13
TORSDOF 6
ENDMDL
MODEL 2
REMARK VINA RESULT:    -7.457      1.779      6.537
REMARK INTER + INTRA:         -10.488
REMARK INTER:                  -9.862
REMARK INTRA:                  -0.626
REMARK UNBOUND:                -0.633
REMARK  Name = 
REMARK  6 active torsions:
REMARK  status: ('A' for Active; 'I' for Inactive)
REMARK    1  A    between atoms: N_1  and  C_2
REMARK    2  A    between atoms: C_2  and  C_3
REMARK    3  A    between atoms: C_7  and  O_8
REMARK    4  A    between atoms: O_8  and  C_9
REMARK    5  A    between atoms: C_9  and  C_10
REMARK    6  A    between atoms: C_14  and  C_15
REMARK                            x       y       z     vdW  Elec       q    Type
REMARK                         _______ _______ _______ _____ _____    ______ ____
ROOT
ATOM      1  C   UNL     1      44.128   4.531   9.286  0.00  0.00    +0.000 C 
ENDROOT
BRANCH   1   2
ATOM      2  C   UNL     1      44.946   3.373   8.773  0.00  0.00    +0.000 A 
ATOM      3  C   UNL     1      44.783   2.084   9.272  0.00  0.00    +0.000 A 
ATOM      4  N   UNL     1      45.460   1.003   8.822  0.00  0.00    +0.000 NA
ATOM      5  C   UNL     1      46.342   1.210   7.814  0.00  0.00    +0.000 A 
ATOM      6  C   UNL     1      46.576   2.443   7.225  0.00  0.00    +0.000 A 
ATOM      7  C   UNL     1      45.856   3.538   7.718  0.00  0.00    +0.000 A 
BRANCH   6   8
ATOM      8  C   UNL     1      47.532   2.646   6.108  0.00  0.00    +0.000 C 
ATOM      9  N   UNL     1      48.871   2.479   6.337  0.00  0.00    +0.000 N 
ATOM     10  O   UNL     1      47.138   2.957   4.990  0.00  0.00    +0.000 OA
ATOM     11  H   UNL     1      49.301   2.226   7.213  0.00  0.00    +0.000 HD
ATOM     12  H   UNL     1      49.485   2.626   5.545  0.00  0.00    +0.000 HD
ENDBRANCH   6   8
ENDBRANCH   1   2
BRANCH   1  13
ATOM     13  O   UNL     1      44.100   4.515  10.716  0.00  0.00    +0.000 OA
BRANCH  13  18
ATOM     14  C   UNL     1      46.495   5.091  13.397  0.00  0.00    +0.000 A 
ATOM     15  C   UNL     1      47.226   6.180  12.902  0.00  0.00    +0.000 A 
ATOM     16  C   UNL     1      46.908   6.743  11.667  0.00  0.00    +0.000 A 
ATOM     17  C   UNL     1      45.863   6.221  10.902  0.00  0.00    +0.000 A 
ATOM     18  C   UNL     1      45.130   5.131  11.372  0.00  0.00    +0.000 A 
ATOM     19  C   UNL     1      45.446   4.578  12.619  0.00  0.00    +0.000 A 
BRANCH  14  20
ATOM     20  C   UNL     1      46.863   4.466  14.718  0.00  0.00    +0.000 C 
BRANCH  20  21
ATOM     21  N   UNL     1      47.460   3.146  14.543  0.00  0.00    +0.000 NA
ATOM     22  H   UNL     1      48.322   3.097  15.083  0.00  0.00    +0.000 HD
ATOM     23  H   UNL     1      47.725   3.034  13.566  0.00  0.00    +0.000 HD
ENDBRANCH  20  21
ENDBRANCH  14  20
ENDBRANCH  13  18
ENDBRANCH   1  13
TORSDOF 6
ENDMDL
MODEL 3
REMARK VINA RESULT:    -7.372      2.149      6.239
REMARK INTER + INTRA:         -10.376
REMARK INTER:                 -10.026
REMARK INTRA:                  -0.350
REMARK UNBOUND:                -0.633
REMARK  Name = 
REMARK  6 active torsions:
REMARK  status: ('A' for Active; 'I' for Inactive)
REMARK    1  A    between atoms: N_1  and  C_2
REMARK    2  A    between atoms: C_2  and  C_3
REMARK    3  A    between atoms: C_7  and  O_8
REMARK    4  A    between atoms: O_8  and  C_9
REMARK    5  A    between atoms: C_9  and  C_10
REMARK    6  A    between atoms: C_14  and  C_15
REMARK                            x       y       z     vdW  Elec       q    Type
REMARK                         _______ _______ _______ _____ _____    ______ ____
ROOT
ATOM      1  C   UNL     1      43.875   2.901  10.649  0.00  0.00    +0.000 C 
ENDROOT
BRANCH   1   2
ATOM      2  C   UNL     1      44.775   3.081   9.453  0.00  0.00    +0.000 A 
ATOM      3  C   UNL     1      44.980   4.328   8.872  0.00  0.00    +0.000 A 
ATOM      4  N   UNL     1      45.807   4.553   7.824  0.00  0.00    +0.000 NA
ATOM      5  C   UNL     1      46.473   3.481   7.331  0.00  0.00    +0.000 A 
ATOM      6  C   UNL     1      46.364   2.195   7.837  0.00  0.00    +0.000 A 
ATOM      7  C   UNL     1      45.499   2.003   8.922  0.00  0.00    +0.000 A 
BRANCH   6   8
ATOM      8  C   UNL     1      47.119   1.037   7.296  0.00  0.00    +0.000 C 
ATOM      9  N   UNL     1      46.787  -0.226   7.705  0.00  0.00    +0.000 N 
ATOM     10  O   UNL     1      48.027   1.199   6.490  0.00  0.00    +0.000 OA
ATOM     11  H   UNL     1      46.062  -0.470   8.361  0.00  0.00    +0.000 HD
ATOM     12  H   UNL     1      47.327  -0.985   7.307  0.00  0.00    +0.000 HD
ENDBRANCH   6   8
ENDBRANCH   1   2
BRANCH   1  13
ATOM     13  O   UNL     1      43.755   4.136  11.360  0.00  0.00    +0.000 OA
BRANCH  13  18
ATOM     14  C   UNL     1      46.086   6.450  12.931  0.00  0.00    +0.000 A 
ATOM     15  C   UNL     1      46.902   5.580  13.668  0.00  0.00    +0.000 A 
ATOM     16  C   UNL     1      46.687   4.204  13.630  0.00  0.00    +0.000 A 
ATOM     17  C   UNL     1      45.646   3.674  12.865  0.00  0.00    +0.000 A 
ATOM     18  C   UNL     1      44.816   4.523  12.132  0.00  0.00    +0.000 A 
ATOM     19  C   UNL     1      45.046   5.904  12.163  0.00  0.00    +0.000 A 
BRANCH  14  20
ATOM     20  C   UNL     1      46.304   7.940  13.000  0.00  0.00    +0.000 C 
BRANCH  20  21
ATOM     21  N   UNL     1      45.060   8.677  12.800  0.00  0.00    +0.000 NA
ATOM     22  H   UNL     1      44.432   8.488  13.578  0.00  0.00    +0.000 HD
ATOM     23  H   UNL     1      44.600   8.319  11.964  0.00  0.00    +0.000 HD
ENDBRANCH  20  21
ENDBRANCH  14  20
ENDBRANCH  13  18
ENDBRANCH   1  13
TORSDOF 6
ENDMDL
MODEL 4
REMARK VINA RESULT:    -7.208      1.520      2.071
REMARK INTER + INTRA:         -10.159
REMARK INTER:                  -9.583
REMARK INTRA:                  -0.576
REMARK UNBOUND:                -0.633
REMARK  Name = 
REMARK  6 active torsions:
REMARK  status: ('A' for Active; 'I' for Inactive)
REMARK    1  A    between atoms: N_1  and  C_2
REMARK    2  A    between atoms: C_2  and  C_3
REMARK    3  A    between atoms: C_7  and  O_8
REMARK    4  A    between atoms: O_8  and  C_9
REMARK    5  A    between atoms: C_9  and  C_10
REMARK    6  A    between atoms: C_14  and  C_15
REMARK                            x       y       z     vdW  Elec       q    Type
REMARK                         _______ _______ _______ _____ _____    ______ ____
ROOT
ATOM      1  C   UNL     1      43.818   4.383  10.260  0.00  0.00    +0.000 C 
ENDROOT
BRANCH   1   2
ATOM      2  C   UNL     1      44.793   4.588  11.392  0.00  0.00    +0.000 A 
ATOM      3  C   UNL     1      45.086   3.573  12.297  0.00  0.00    +0.000 A 
ATOM      4  N   UNL     1      45.980   3.689  13.306  0.00  0.00    +0.000 NA
ATOM      5  C   UNL     1      46.627   4.874  13.417  0.00  0.00    +0.000 A 
ATOM      6  C   UNL     1      46.432   5.950  12.564  0.00  0.00    +0.000 A 
ATOM      7  C   UNL     1      45.499   5.792  11.532  0.00  0.00    +0.000 A 
BRANCH   6   8
ATOM      8  C   UNL     1      47.165   7.235  12.690  0.00  0.00    +0.000 C 
ATOM      9  N   UNL     1      46.905   8.050  13.758  0.00  0.00    +0.000 N 
ATOM     10  O   UNL     1      47.998   7.569  11.855  0.00  0.00    +0.000 OA
ATOM     11  H   UNL     1      46.243   7.873  14.497  0.00  0.00    +0.000 HD
ATOM     12  H   UNL     1      47.430   8.915  13.803  0.00  0.00    +0.000 HD
ENDBRANCH   6   8
ENDBRANCH   1   2
BRANCH   1  13
ATOM     13  O   UNL     1      44.498   4.479   9.006  0.00  0.00    +0.000 OA
BRANCH  13  18
ATOM     14  C   UNL     1      47.048   2.609   7.199  0.00  0.00    +0.000 A 
ATOM     15  C   UNL     1      46.760   1.291   7.577  0.00  0.00    +0.000 A 
ATOM     16  C   UNL     1      45.693   1.015   8.430  0.00  0.00    +0.000 A 
ATOM     17  C   UNL     1      44.903   2.053   8.930  0.00  0.00    +0.000 A 
ATOM     18  C   UNL     1      45.179   3.373   8.574  0.00  0.00    +0.000 A 
ATOM     19  C   UNL     1      46.245   3.643   7.705  0.00  0.00    +0.000 A 
BRANCH  14  20
ATOM     20  C   UNL     1      48.222   2.905   6.302  0.00  0.00    +0.000 C 
BRANCH  20  21
ATOM     21  N   UNL     1      48.532   1.778   5.429  0.00  0.00    +0.000 NA
ATOM     22  H   UNL     1      48.580   0.927   5.987  0.00  0.00    +0.000 HD
ATOM     23  H   UNL     1      49.462   1.916   5.035  0.00  0.00    +0.000 HD
ENDBRANCH  20  21
ENDBRANCH  14  20
ENDBRANCH  13  18
ENDBRANCH   1  13
TORSDOF 6
ENDMDL
MODEL 5
REMARK VINA RESULT:    -6.912      1.885      6.576
REMARK INTER + INTRA:          -9.768
REMARK INTER:                  -9.227
REMARK INTRA:                  -0.541
REMARK UNBOUND:                -0.633
REMARK  Name = 
REMARK  6 active torsions:
REMARK  status: ('A' for Active; 'I' for Inactive)
REMARK    1  A    between atoms: N_1  and  C_2
REMARK    2  A    between atoms: C_2  and  C_3
REMARK    3  A    between atoms: C_7  and  O_8
REMARK    4  A    between atoms: O_8  and  C_9
REMARK    5  A    between atoms: C_9  and  C_10
REMARK    6  A    between atoms: C_14  and  C_15
REMARK                            x       y       z     vdW  Elec       q    Type
REMARK                         _______ _______ _______ _____ _____    ______ ____
ROOT
ATOM      1  C   UNL     1      44.166   4.535   9.222  0.00  0.00    +0.000 C 
ENDROOT
BRANCH   1   2
ATOM      2  C   UNL     1      44.978   3.364   8.730  0.00  0.00    +0.000 A 
ATOM      3  C   UNL     1      44.782   2.078   9.222  0.00  0.00    +0.000 A 
ATOM      4  N   UNL     1      45.453   0.987   8.789  0.00  0.00    +0.000 NA
ATOM      5  C   UNL     1      46.365   1.180   7.805  0.00  0.00    +0.000 A 
ATOM      6  C   UNL     1      46.634   2.410   7.224  0.00  0.00    +0.000 A 
ATOM      7  C   UNL     1      45.919   3.516   7.699  0.00  0.00    +0.000 A 
BRANCH   6   8
ATOM      8  C   UNL     1      47.622   2.599   6.133  0.00  0.00    +0.000 C 
ATOM      9  N   UNL     1      48.958   2.501   6.418  0.00  0.00    +0.000 N 
ATOM     10  O   UNL     1      47.259   2.836   4.987  0.00  0.00    +0.000 OA
ATOM     11  H   UNL     1      49.364   2.312   7.320  0.00  0.00    +0.000 HD
ATOM     12  H   UNL     1      49.594   2.635   5.641  0.00  0.00    +0.000 HD
ENDBRANCH   6   8
ENDBRANCH   1   2
BRANCH   1  13
ATOM     13  O   UNL     1      43.840   4.358  10.603  0.00  0.00    +0.000 OA
BRANCH  13  18
ATOM     14  C   UNL     1      45.962   6.720  12.386  0.00  0.00    +0.000 A 
ATOM     15  C   UNL     1      46.583   5.893  13.332  0.00  0.00    +0.000 A 
ATOM     16  C   UNL     1      46.307   4.527  13.368  0.00  0.00    +0.000 A 
ATOM     17  C   UNL     1      45.398   3.967  12.467  0.00  0.00    +0.000 A 
ATOM     18  C   UNL     1      44.761   4.775  11.525  0.00  0.00    +0.000 A 
ATOM     19  C   UNL     1      45.052   6.145  11.485  0.00  0.00    +0.000 A 
BRANCH  14  20
ATOM     20  C   UNL     1      46.239   8.201  12.372  0.00  0.00    +0.000 C 
BRANCH  20  21
ATOM     21  N   UNL     1      46.261   8.760  13.720  0.00  0.00    +0.000 NA
ATOM     22  H   UNL     1      45.929   9.722  13.687  0.00  0.00    +0.000 HD
ATOM     23  H   UNL     1      47.227   8.799  14.041  0.00  0.00    +0.000 HD
ENDBRANCH  20  21
ENDBRANCH  14  20
ENDBRANCH  13  18
ENDBRANCH   1  13
TORSDOF 6
ENDMDL
MODEL 6
REMARK VINA RESULT:    -6.722      2.171      6.470
REMARK INTER + INTRA:          -9.516
REMARK INTER:                  -9.385
REMARK INTRA:                  -0.131
REMARK UNBOUND:                -0.633
REMARK  Name = 
REMARK  6 active torsions:
REMARK  status: ('A' for Active; 'I' for Inactive)
REMARK    1  A    between atoms: N_1  and  C_2
REMARK    2  A    between atoms: C_2  and  C_3
REMARK    3  A    between atoms: C_7  and  O_8
REMARK    4  A    between atoms: O_8  and  C_9
REMARK    5  A    between atoms: C_9  and  C_10
REMARK    6  A    between atoms: C_14  and  C_15
REMARK                            x       y       z     vdW  Elec       q    Type
REMARK                         _______ _______ _______ _____ _____    ______ ____
ROOT
ATOM      1  C   UNL     1      44.025   3.041  10.776  0.00  0.00    +0.000 C 
ENDROOT
BRANCH   1   2
ATOM      2  C   UNL     1      44.776   3.102   9.471  0.00  0.00    +0.000 A 
ATOM      3  C   UNL     1      44.815   4.261   8.702  0.00  0.00    +0.000 A 
ATOM      4  N   UNL     1      45.505   4.383   7.545  0.00  0.00    +0.000 NA
ATOM      5  C   UNL     1      46.203   3.298   7.131  0.00  0.00    +0.000 A 
ATOM      6  C   UNL     1      46.255   2.097   7.821  0.00  0.00    +0.000 A 
ATOM      7  C   UNL     1      45.528   2.008   9.015  0.00  0.00    +0.000 A 
BRANCH   6   8
ATOM      8  C   UNL     1      47.042   0.925   7.363  0.00  0.00    +0.000 C 
ATOM      9  N   UNL     1      46.657  -0.331   7.749  0.00  0.00    +0.000 N 
ATOM     10  O   UNL     1      48.024   1.068   6.644  0.00  0.00    +0.000 OA
ATOM     11  H   UNL     1      45.871  -0.560   8.335  0.00  0.00    +0.000 HD
ATOM     12  H   UNL     1      47.223  -1.099   7.409  0.00  0.00    +0.000 HD
ENDBRANCH   6   8
ENDBRANCH   1   2
BRANCH   1  13
ATOM     13  O   UNL     1      44.940   2.858  11.860  0.00  0.00    +0.000 OA
BRANCH  13  18
ATOM     14  C   UNL     1      46.849   4.835  14.248  0.00  0.00    +0.000 A 
ATOM     15  C   UNL     1      46.857   6.096  13.637  0.00  0.00    +0.000 A 
ATOM     16  C   UNL     1      46.203   6.299  12.423  0.00  0.00    +0.000 A 
ATOM     17  C   UNL     1      45.543   5.242  11.793  0.00  0.00    +0.000 A 
ATOM     18  C   UNL     1      45.532   3.977  12.379  0.00  0.00    +0.000 A 
ATOM     19  C   UNL     1      46.179   3.782  13.606  0.00  0.00    +0.000 A 
BRANCH  14  20
ATOM     20  C   UNL     1      47.584   4.613  15.545  0.00  0.00    +0.000 C 
BRANCH  20  21
ATOM     21  N   UNL     1      47.744   3.193  15.839  0.00  0.00    +0.000 NA
ATOM     22  H   UNL     1      46.983   2.675  15.405  0.00  0.00    +0.000 HD
ATOM     23  H   UNL     1      47.650   3.055  16.844  0.00  0.00    +0.000 HD
ENDBRANCH  20  21
ENDBRANCH  14  20
ENDBRANCH  13  18
ENDBRANCH   1  13
TORSDOF 6
ENDMDL
MODEL 7
REMARK VINA RESULT:    -6.382      2.091      6.487
REMARK INTER + INTRA:          -9.067
REMARK INTER:                  -8.623
REMARK INTRA:                  -0.444
REMARK UNBOUND:                -0.633
REMARK  Name = 
REMARK  6 active torsions:
REMARK  status: ('A' for Active; 'I' for Inactive)
REMARK    1  A    between atoms: N_1  and  C_2
REMARK    2  A    between atoms: C_2  and  C_3
REMARK    3  A    between atoms: C_7  and  O_8
REMARK    4  A    between atoms: O_8  and  C_9
REMARK    5  A    between atoms: C_9  and  C_10
REMARK    6  A    between atoms: C_14  and  C_15
REMARK                            x       y       z     vdW  Elec       q    Type
REMARK                         _______ _______ _______ _____ _____    ______ ____
ROOT
ATOM      1  C   UNL     1      44.571   5.766  10.950  0.00  0.00    +0.000 C 
ENDROOT
BRANCH   1   2
ATOM      2  C   UNL     1      44.716   4.471  10.192  0.00  0.00    +0.000 A 
ATOM      3  C   UNL     1      43.974   3.342  10.523  0.00  0.00    +0.000 A 
ATOM      4  N   UNL     1      44.034   2.169   9.853  0.00  0.00    +0.000 NA
ATOM      5  C   UNL     1      44.872   2.114   8.789  0.00  0.00    +0.000 A 
ATOM      6  C   UNL     1      45.647   3.178   8.353  0.00  0.00    +0.000 A 
ATOM      7  C   UNL     1      45.556   4.377   9.072  0.00  0.00    +0.000 A 
BRANCH   6   8
ATOM      8  C   UNL     1      46.543   3.106   7.173  0.00  0.00    +0.000 C 
ATOM      9  N   UNL     1      47.430   2.068   7.071  0.00  0.00    +0.000 N 
ATOM     10  O   UNL     1      46.497   3.957   6.293  0.00  0.00    +0.000 OA
ATOM     11  H   UNL     1      47.551   1.318   7.733  0.00  0.00    +0.000 HD
ATOM     12  H   UNL     1      48.019   2.059   6.247  0.00  0.00    +0.000 HD
ENDBRANCH   6   8
ENDBRANCH   1   2
BRANCH   1  13
ATOM     13  O   UNL     1      45.747   6.562  10.788  0.00  0.00    +0.000 OA
BRANCH  13  18
ATOM     14  C   UNL     1      47.241   5.583  13.961  0.00  0.00    +0.000 A 
ATOM     15  C   UNL     1      48.268   6.526  14.099  0.00  0.00    +0.000 A 
ATOM     16  C   UNL     1      48.457   7.514  13.134  0.00  0.00    +0.000 A 
ATOM     17  C   UNL     1      47.632   7.568  12.009  0.00  0.00    +0.000 A 
ATOM     18  C   UNL     1      46.610   6.632  11.848  0.00  0.00    +0.000 A 
ATOM     19  C   UNL     1      46.416   5.650  12.827  0.00  0.00    +0.000 A 
BRANCH  14  20
ATOM     20  C   UNL     1      47.060   4.497  14.991  0.00  0.00    +0.000 C 
BRANCH  20  21
ATOM     21  N   UNL     1      47.417   3.185  14.462  0.00  0.00    +0.000 NA
ATOM     22  H   UNL     1      46.565   2.659  14.274  0.00  0.00    +0.000 HD
ATOM     23  H   UNL     1      47.922   2.669  15.181  0.00  0.00    +0.000 HD
ENDBRANCH  20  21
ENDBRANCH  14  20
ENDBRANCH  13  18
ENDBRANCH   1  13
TORSDOF 6
ENDMDL
MODEL 8
REMARK VINA RESULT:    -6.338      1.396      2.055
REMARK INTER + INTRA:          -9.009
REMARK INTER:                  -8.418
REMARK INTRA:                  -0.591
REMARK UNBOUND:                -0.633
REMARK  Name = 
REMARK  6 active torsions:
REMARK  status: ('A' for Active; 'I' for Inactive)
REMARK    1  A    between atoms: N_1  and  C_2
REMARK    2  A    between atoms: C_2  and  C_3
REMARK    3  A    between atoms: C_7  and  O_8
REMARK    4  A    between atoms: O_8  and  C_9
REMARK    5  A    between atoms: C_9  and  C_10
REMARK    6  A    between atoms: C_14  and  C_15
REMARK                            x       y       z     vdW  Elec       q    Type
REMARK                         _______ _______ _______ _____ _____    ______ ____
ROOT
ATOM      1  C   UNL     1      44.841   6.500  11.799  0.00  0.00    +0.000 C 
ENDROOT
BRANCH   1   2
ATOM      2  C   UNL     1      46.000   6.350  12.752  0.00  0.00    +0.000 A 
ATOM      3  C   UNL     1      46.951   7.353  12.910  0.00  0.00    +0.000 A 
ATOM      4  N   UNL     1      47.986   7.290  13.779  0.00  0.00    +0.000 NA
ATOM      5  C   UNL     1      48.079   6.171  14.538  0.00  0.00    +0.000 A 
ATOM      6  C   UNL     1      47.183   5.115  14.482  0.00  0.00    +0.000 A 
ATOM      7  C   UNL     1      46.124   5.218  13.571  0.00  0.00    +0.000 A 
BRANCH   6   8
ATOM      8  C   UNL     1      47.290   3.906  15.337  0.00  0.00    +0.000 C 
ATOM      9  N   UNL     1      46.844   3.962  16.630  0.00  0.00    +0.000 N 
ATOM     10  O   UNL     1      47.767   2.866  14.901  0.00  0.00    +0.000 OA
ATOM     11  H   UNL     1      46.437   4.762  17.088  0.00  0.00    +0.000 HD
ATOM     12  H   UNL     1      46.935   3.113  17.174  0.00  0.00    +0.000 HD
ENDBRANCH   6   8
ENDBRANCH   1   2
BRANCH   1  13
ATOM     13  O   UNL     1      45.271   6.233  10.461  0.00  0.00    +0.000 OA
BRANCH  13  18
ATOM     14  C   UNL     1      45.692   3.421   8.188  0.00  0.00    +0.000 A 
ATOM     15  C   UNL     1      44.940   2.422   8.822  0.00  0.00    +0.000 A 
ATOM     16  C   UNL     1      44.269   2.691  10.013  0.00  0.00    +0.000 A 
ATOM     17  C   UNL     1      44.347   3.957  10.597  0.00  0.00    +0.000 A 
ATOM     18  C   UNL     1      45.098   4.962   9.987  0.00  0.00    +0.000 A 
ATOM     19  C   UNL     1      45.760   4.690   8.783  0.00  0.00    +0.000 A 
BRANCH  14  20
ATOM     20  C   UNL     1      46.442   3.117   6.916  0.00  0.00    +0.000 C 
BRANCH  20  21
ATOM     21  N   UNL     1      47.417   2.048   7.107  0.00  0.00    +0.000 NA
ATOM     22  H   UNL     1      47.340   1.692   8.058  0.00  0.00    +0.000 HD
ATOM     23  H   UNL     1      48.353   2.441   7.021  0.00  0.00    +0.000 HD
ENDBRANCH  20  21
ENDBRANCH  14  20
ENDBRANCH  13  18
ENDBRANCH   1  13
TORSDOF 6
ENDMDL
MODEL 9
REMARK VINA RESULT:    -6.178      2.381      6.765
REMARK INTER + INTRA:          -8.798
REMARK INTER:                  -8.397
REMARK INTRA:                  -0.401
REMARK UNBOUND:                -0.633
REMARK  Name = 
REMARK  6 active torsions:
REMARK  status: ('A' for Active; 'I' for Inactive)
REMARK    1  A    between atoms: N_1  and  C_2
REMARK    2  A    between atoms: C_2  and  C_3
REMARK    3  A    between atoms: C_7  and  O_8
REMARK    4  A    between atoms: O_8  and  C_9
REMARK    5  A    between atoms: C_9  and  C_10
REMARK    6  A    between atoms: C_14  and  C_15
REMARK                            x       y       z     vdW  Elec       q    Type
REMARK                         _______ _______ _______ _____ _____    ______ ____
ROOT
ATOM      1  C   UNL     1      45.056   5.407   9.637  0.00  0.00    +0.000 C 
ENDROOT
BRANCH   1   2
ATOM      2  C   UNL     1      45.355   4.023   9.119  0.00  0.00    +0.000 A 
ATOM      3  C   UNL     1      44.735   2.895   9.646  0.00  0.00    +0.000 A 
ATOM      4  N   UNL     1      44.935   1.636   9.193  0.00  0.00    +0.000 NA
ATOM      5  C   UNL     1      45.792   1.489   8.153  0.00  0.00    +0.000 A 
ATOM      6  C   UNL     1      46.453   2.539   7.534  0.00  0.00    +0.000 A 
ATOM      7  C   UNL     1      46.220   3.828   8.031  0.00  0.00    +0.000 A 
BRANCH   6   8
ATOM      8  C   UNL     1      47.372   2.361   6.383  0.00  0.00    +0.000 C 
ATOM      9  N   UNL     1      47.279   3.213   5.316  0.00  0.00    +0.000 N 
ATOM     10  O   UNL     1      48.210   1.467   6.378  0.00  0.00    +0.000 OA
ATOM     11  H   UNL     1      46.630   3.977   5.217  0.00  0.00    +0.000 HD
ATOM     12  H   UNL     1      47.929   3.054   4.555  0.00  0.00    +0.000 HD
ENDBRANCH   6   8
ENDBRANCH   1   2
BRANCH   1  13
ATOM     13  O   UNL     1      44.953   5.384  11.063  0.00  0.00    +0.000 OA
BRANCH  13  18
ATOM     14  C   UNL     1      47.436   7.167  13.042  0.00  0.00    +0.000 A 
ATOM     15  C   UNL     1      46.844   8.431  13.176  0.00  0.00    +0.000 A 
ATOM     16  C   UNL     1      45.594   8.690  12.617  0.00  0.00    +0.000 A 
ATOM     17  C   UNL     1      44.920   7.696  11.904  0.00  0.00    +0.000 A 
ATOM     18  C   UNL     1      45.497   6.435  11.750  0.00  0.00    +0.000 A 
ATOM     19  C   UNL     1      46.747   6.176  12.326  0.00  0.00    +0.000 A 
BRANCH  14  20
ATOM     20  C   UNL     1      48.801   6.901  13.622  0.00  0.00    +0.000 C 
BRANCH  20  21
ATOM     21  N   UNL     1      49.861   7.181  12.659  0.00  0.00    +0.000 NA
ATOM     22  H   UNL     1      49.515   7.840  11.965  0.00  0.00    +0.000 HD
ATOM     23  H   UNL     1      50.080   6.322  12.156  0.00  0.00    +0.000 HD
ENDBRANCH  20  21
ENDBRANCH  14  20
ENDBRANCH  13  18
ENDBRANCH   1  13
TORSDOF 6
ENDMDL
