MODEL 1
REMARK VINA RESULT:    -8.462      0.000      0.000
REMARK INTER + INTRA:         -11.366
REMARK INTER:                 -10.688
REMARK INTRA:                  -0.678
REMARK UNBOUND:                -0.678
REMARK  Name = 
REMARK  6 active torsions:
REMARK  status: ('A' for Active; 'I' for Inactive)
REMARK    1  A    between atoms: C_1  and  S_2
REMARK    2  A    between atoms: S_2  and  C_5
REMARK    3  A    between atoms: N_12  and  C_13
REMARK    4  A    between atoms: C_13  and  C_14
REMARK    5  A    between atoms: C_17  and  C_18
REMARK    6  A    between atoms: C_18  and  N_19
REMARK                            x       y       z     vdW  Elec       q    Type
REMARK                         _______ _______ _______ _____ _____    ______ ____
ROOT
ATOM      1  C   UNL     1      46.866   4.170  14.476  0.00  0.00    +0.000 A 
ATOM      2  C   UNL     1      46.324   3.133  13.717  0.00  0.00    +0.000 A 
ATOM      3  C   UNL     1      45.673   3.404  12.508  0.00  0.00    +0.000 A 
ATOM      4  C   UNL     1      45.575   4.743  12.089  0.00  0.00    +0.000 A 
ATOM      5  C   UNL     1      46.137   5.787  12.835  0.00  0.00    +0.000 A 
ATOM      6  C   UNL     1      45.899   6.993  12.126  0.00  0.00    +0.000 A 
ATOM      7  C   UNL     1      45.183   6.679  10.996  0.00  0.00    +0.000 A 
ATOM      8  N   UNL     1      44.958   5.322  10.991  0.00  0.00    +0.000 N 
ATOM      9  C   UNL     1      46.780   5.502  14.055  0.00  0.00    +0.000 A 
ENDROOT
BRANCH   1  11
ATOM     10  C   UNL     1      48.501   5.306  16.422  0.00  0.00    +0.000 C 
ATOM     11  S   UNL     1      47.636   3.807  16.037  0.00  0.00    +0.000 S 
ATOM     12  O   UNL     1      48.619   2.767  15.809  0.00  0.00    +0.000 OA
ATOM     13  O   UNL     1      46.584   3.631  17.020  0.00  0.00    +0.000 OA
ENDBRANCH   1  11
BRANCH   8  14
ATOM     14  C   UNL     1      44.090   4.651  10.021  0.00  0.00    +0.000 C 
BRANCH  14  15
ATOM     15  C   UNL     1      44.883   3.787   9.075  0.00  0.00    +0.000 A 
ATOM     16  C   UNL     1      44.859   2.393   9.195  0.00  0.00    +0.000 A 
ATOM     17  C   UNL     1      45.733   1.602   8.444  0.00  0.00    +0.000 A 
ATOM     18  C   UNL     1      46.642   2.185   7.551  0.00  0.00    +0.000 A 
ATOM     19  C   UNL     1      46.598   3.573   7.365  0.00  0.00    +0.000 A 
ATOM     20  C   UNL     1      45.722   4.366   8.112  0.00  0.00    +0.000 A 
BRANCH  18  21
ATOM     21  C   UNL     1      47.739   1.336   6.955  0.00  0.00    +0.000 C 
BRANCH  21  22
ATOM     22  N   UNL     1      48.400   1.943   5.803  0.00  0.00    +0.000 NA
ATOM     23  H   UNL     1      49.405   1.924   5.957  0.00  0.00    +0.000 HD
ATOM     24  H   UNL     1      48.132   2.922   5.754  0.00  0.00    +0.000 HD
ENDBRANCH  21  22
ENDBRANCH  18  21
ENDBRANCH  14  15
ENDBRANCH   8  14
TORSDOF 5
ENDMDL
MODEL 2
REMARK VINA RESULT:    -8.335      2.001      2.587
REMARK INTER + INTRA:         -11.205
REMARK INTER:                 -10.459
REMARK INTRA:                  -0.746
REMARK UNBOUND:                -0.678
REMARK  Name = 
REMARK  6 active torsions:
REMARK  status: ('A' for Active; 'I' for Inactive)
REMARK    1  A    between atoms: C_1  and  S_2
REMARK    2  A    between atoms: S_2  and  C_5
REMARK    3  A    between atoms: N_12  and  C_13
REMARK    4  A    between atoms: C_13  and  C_14
REMARK    5  A    between atoms: C_17  and  C_18
REMARK    6  A    between atoms: C_18  and  N_19
REMARK                            x       y       z     vdW  Elec       q    Type
REMARK                         _______ _______ _______ _____ _____    ______ ____
ROOT
ATOM      1  C   UNL     1      47.453   6.438  13.030  0.00  0.00    +0.000 A 
ATOM      2  C   UNL     1      47.170   6.853  11.728  0.00  0.00    +0.000 A 
ATOM      3  C   UNL     1      46.122   6.265  11.009  0.00  0.00    +0.000 A 
ATOM      4  C   UNL     1      45.376   5.248  11.630  0.00  0.00    +0.000 A 
ATOM      5  C   UNL     1      45.640   4.843  12.945  0.00  0.00    +0.000 A 
ATOM      6  C   UNL     1      44.694   3.839  13.279  0.00  0.00    +0.000 A 
ATOM      7  C   UNL     1      43.902   3.627  12.177  0.00  0.00    +0.000 A 
ATOM      8  N   UNL     1      44.336   4.455  11.168  0.00  0.00    +0.000 N 
ATOM      9  C   UNL     1      46.704   5.435  13.653  0.00  0.00    +0.000 A 
ENDROOT
BRANCH   1  11
ATOM     10  C   UNL     1      48.158   8.679  14.524  0.00  0.00    +0.000 C 
ATOM     11  S   UNL     1      48.825   7.158  13.901  0.00  0.00    +0.000 S 
ATOM     12  O   UNL     1      49.844   7.483  12.924  0.00  0.00    +0.000 OA
ATOM     13  O   UNL     1      49.128   6.304  15.033  0.00  0.00    +0.000 OA
ENDBRANCH   1  11
BRANCH   8  14
ATOM     14  C   UNL     1      43.830   4.390   9.796  0.00  0.00    +0.000 C 
BRANCH  14  15
ATOM     15  C   UNL     1      44.760   3.615   8.899  0.00  0.00    +0.000 A 
ATOM     16  C   UNL     1      44.894   2.229   9.041  0.00  0.00    +0.000 A 
ATOM     17  C   UNL     1      45.887   1.538   8.343  0.00  0.00    +0.000 A 
ATOM     18  C   UNL     1      46.761   2.214   7.480  0.00  0.00    +0.000 A 
ATOM     19  C   UNL     1      46.564   3.585   7.269  0.00  0.00    +0.000 A 
ATOM     20  C   UNL     1      45.569   4.277   7.964  0.00  0.00    +0.000 A 
BRANCH  18  21
ATOM     21  C   UNL     1      47.976   1.492   6.946  0.00  0.00    +0.000 C 
BRANCH  21  22
ATOM     22  N   UNL     1      48.405   1.949   5.627  0.00  0.00    +0.000 NA
ATOM     23  H   UNL     1      47.633   2.443   5.187  0.00  0.00    +0.000 HD
ATOM     24  H   UNL     1      48.597   1.135   5.049  0.00  0.00    +0.000 HD
ENDBRANCH  21  22
ENDBRANCH  18  21
ENDBRANCH  14  15
ENDBRANCH   8  14
TORSDOF 5
ENDMDL
MODEL 3
REMARK VINA RESULT:    -6.736      3.821      4.865
REMARK INTER + INTRA:          -9.185
REMARK INTER:                  -8.601
REMARK INTRA:                  -0.584
REMARK UNBOUND:                -0.678
REMARK  Name = 
REMARK  6 active torsions:
REMARK  status: ('A' for Active; 'I' for Inactive)
REMARK    1  A    between atoms: C_1  and  S_2
REMARK    2  A    between atoms: S_2  and  C_5
REMARK    3  A    between atoms: N_12  and  C_13
REMARK    4  A    between atoms: C_13  and  C_14
REMARK    5  A    between atoms: C_17  and  C_18
REMARK    6  A    between atoms: C_18  and  N_19
REMARK                            x       y       z     vdW  Elec       q    Type
REMARK                         _______ _______ _______ _____ _____    ______ ____
ROOT
ATOM      1  C   UNL     1      44.414   9.164  11.513  0.00  0.00    +0.000 A 
ATOM      2  C   UNL     1      43.374   8.404  10.978  0.00  0.00    +0.000 A 
ATOM      3  C   UNL     1      43.423   7.006  11.020  0.00  0.00    +0.000 A 
ATOM      4  C   UNL     1      44.545   6.395  11.606  0.00  0.00    +0.000 A 
ATOM      5  C   UNL     1      45.583   7.152  12.166  0.00  0.00    +0.000 A 
ATOM      6  C   UNL     1      46.532   6.243  12.701  0.00  0.00    +0.000 A 
ATOM      7  C   UNL     1      46.086   4.970  12.439  0.00  0.00    +0.000 A 
ATOM      8  N   UNL     1      44.901   5.062  11.746  0.00  0.00    +0.000 N 
ATOM      9  C   UNL     1      45.527   8.558  12.107  0.00  0.00    +0.000 A 
ENDROOT
BRANCH   1  11
ATOM     10  C   UNL     1      44.253  11.225   9.648  0.00  0.00    +0.000 C 
ATOM     11  S   UNL     1      44.358  10.937  11.395  0.00  0.00    +0.000 S 
ATOM     12  O   UNL     1      45.632  11.448  11.859  0.00  0.00    +0.000 OA
ATOM     13  O   UNL     1      43.115  11.381  11.998  0.00  0.00    +0.000 OA
ENDBRANCH   1  11
BRANCH   8  14
ATOM     14  C   UNL     1      44.216   3.908  11.160  0.00  0.00    +0.000 C 
BRANCH  14  15
ATOM     15  C   UNL     1      44.809   3.532   9.826  0.00  0.00    +0.000 A 
ATOM     16  C   UNL     1      45.019   2.189   9.495  0.00  0.00    +0.000 A 
ATOM     17  C   UNL     1      45.736   1.846   8.346  0.00  0.00    +0.000 A 
ATOM     18  C   UNL     1      46.250   2.836   7.498  0.00  0.00    +0.000 A 
ATOM     19  C   UNL     1      45.959   4.177   7.783  0.00  0.00    +0.000 A 
ATOM     20  C   UNL     1      45.239   4.521   8.930  0.00  0.00    +0.000 A 
BRANCH  18  21
ATOM     21  C   UNL     1      47.232   2.447   6.419  0.00  0.00    +0.000 C 
BRANCH  21  22
ATOM     22  N   UNL     1      48.275   1.530   6.868  0.00  0.00    +0.000 NA
ATOM     23  H   UNL     1      47.868   0.604   6.981  0.00  0.00    +0.000 HD
ATOM     24  H   UNL     1      48.591   1.823   7.789  0.00  0.00    +0.000 HD
ENDBRANCH  21  22
ENDBRANCH  18  21
ENDBRANCH  14  15
ENDBRANCH   8  14
TORSDOF 5
ENDMDL
MODEL 4
REMARK VINA RESULT:    -6.307      1.649      2.330
REMARK INTER + INTRA:          -8.644
REMARK INTER:                  -8.147
REMARK INTRA:                  -0.498
REMARK UNBOUND:                -0.678
REMARK  Name = 
REMARK  6 active torsions:
REMARK  status: ('A' for Active; 'I' for Inactive)
REMARK    1  A    between atoms: C_1  and  S_2
REMARK    2  A    between atoms: S_2  and  C_5
REMARK    3  A    between atoms: N_12  and  C_13
REMARK    4  A    between atoms: C_13  and  C_14
REMARK    5  A    between atoms: C_17  and  C_18
REMARK    6  A    between atoms: C_18  and  N_19
REMARK                            x       y       z     vdW  Elec       q    Type
REMARK                         _______ _______ _______ _____ _____    ______ ____
ROOT
ATOM      1  C   UNL     1      47.457   4.642  15.413  0.00  0.00    +0.000 A 
ATOM      2  C   UNL     1      46.298   4.244  14.747  0.00  0.00    +0.000 A 
ATOM      3  C   UNL     1      45.858   4.940  13.615  0.00  0.00    +0.000 A 
ATOM      4  C   UNL     1      46.607   6.046  13.178  0.00  0.00    +0.000 A 
ATOM      5  C   UNL     1      47.785   6.436  13.829  0.00  0.00    +0.000 A 
ATOM      6  C   UNL     1      48.313   7.549  13.123  0.00  0.00    +0.000 A 
ATOM      7  C   UNL     1      47.453   7.835  12.090  0.00  0.00    +0.000 A 
ATOM      8  N   UNL     1      46.403   6.947  12.145  0.00  0.00    +0.000 N 
ATOM      9  C   UNL     1      48.211   5.735  14.973  0.00  0.00    +0.000 A 
ENDROOT
BRANCH   1  11
ATOM     10  C   UNL     1      48.332   5.092  18.018  0.00  0.00    +0.000 C 
ATOM     11  S   UNL     1      47.964   3.780  16.883  0.00  0.00    +0.000 S 
ATOM     12  O   UNL     1      49.201   3.088  16.581  0.00  0.00    +0.000 OA
ATOM     13  O   UNL     1      46.814   3.057  17.391  0.00  0.00    +0.000 OA
ENDBRANCH   1  11
BRANCH   8  14
ATOM     14  C   UNL     1      45.213   7.051  11.297  0.00  0.00    +0.000 C 
BRANCH  14  15
ATOM     15  C   UNL     1      44.975   5.782  10.521  0.00  0.00    +0.000 A 
ATOM     16  C   UNL     1      43.953   4.901  10.894  0.00  0.00    +0.000 A 
ATOM     17  C   UNL     1      43.850   3.642  10.297  0.00  0.00    +0.000 A 
ATOM     18  C   UNL     1      44.757   3.240   9.307  0.00  0.00    +0.000 A 
ATOM     19  C   UNL     1      45.720   4.159   8.870  0.00  0.00    +0.000 A 
ATOM     20  C   UNL     1      45.822   5.420   9.464  0.00  0.00    +0.000 A 
BRANCH  18  21
ATOM     21  C   UNL     1      44.780   1.794   8.871  0.00  0.00    +0.000 C 
BRANCH  21  22
ATOM     22  N   UNL     1      46.089   1.332   8.418  0.00  0.00    +0.000 NA
ATOM     23  H   UNL     1      45.963   0.774   7.577  0.00  0.00    +0.000 HD
ATOM     24  H   UNL     1      46.477   0.712   9.123  0.00  0.00    +0.000 HD
ENDBRANCH  21  22
ENDBRANCH  18  21
ENDBRANCH  14  15
ENDBRANCH   8  14
TORSDOF 5
ENDMDL
MODEL 5
REMARK VINA RESULT:    -6.298      1.791      2.263
REMARK INTER + INTRA:          -8.632
REMARK INTER:                  -8.021
REMARK INTRA:                  -0.611
REMARK UNBOUND:                -0.678
REMARK  Name = 
REMARK  6 active torsions:
REMARK  status: ('A' for Active; 'I' for Inactive)
REMARK    1  A    between atoms: C_1  and  S_2
REMARK    2  A    between atoms: S_2  and  C_5
REMARK    3  A    between atoms: N_12  and  C_13
REMARK    4  A    between atoms: C_13  and  C_14
REMARK    5  A    between atoms: C_17  and  C_18
REMARK    6  A    between atoms: C_18  and  N_19
REMARK                            x       y       z     vdW  Elec       q    Type
REMARK                         _______ _______ _______ _____ _____    ______ ____
ROOT
ATOM      1  C   UNL     1      47.884   6.437  14.534  0.00  0.00    +0.000 A 
ATOM      2  C   UNL     1      47.537   5.148  14.126  0.00  0.00    +0.000 A 
ATOM      3  C   UNL     1      46.568   4.956  13.135  0.00  0.00    +0.000 A 
ATOM      4  C   UNL     1      45.954   6.089  12.573  0.00  0.00    +0.000 A 
ATOM      5  C   UNL     1      46.314   7.386  12.962  0.00  0.00    +0.000 A 
ATOM      6  C   UNL     1      45.544   8.292  12.186  0.00  0.00    +0.000 A 
ATOM      7  C   UNL     1      44.721   7.551  11.373  0.00  0.00    +0.000 A 
ATOM      8  N   UNL     1      44.944   6.219  11.632  0.00  0.00    +0.000 N 
ATOM      9  C   UNL     1      47.283   7.566  13.968  0.00  0.00    +0.000 A 
ENDROOT
BRANCH   1  11
ATOM     10  C   UNL     1      50.456   7.394  15.004  0.00  0.00    +0.000 C 
ATOM     11  S   UNL     1      49.075   6.655  15.836  0.00  0.00    +0.000 S 
ATOM     12  O   UNL     1      49.476   5.338  16.288  0.00  0.00    +0.000 OA
ATOM     13  O   UNL     1      48.539   7.628  16.768  0.00  0.00    +0.000 OA
ENDBRANCH   1  11
BRANCH   8  14
ATOM     14  C   UNL     1      44.132   5.139  11.067  0.00  0.00    +0.000 C 
BRANCH  14  15
ATOM     15  C   UNL     1      44.885   4.377  10.007  0.00  0.00    +0.000 A 
ATOM     16  C   UNL     1      45.686   5.053   9.080  0.00  0.00    +0.000 A 
ATOM     17  C   UNL     1      46.233   4.375   7.988  0.00  0.00    +0.000 A 
ATOM     18  C   UNL     1      45.999   3.005   7.803  0.00  0.00    +0.000 A 
ATOM     19  C   UNL     1      45.274   2.313   8.782  0.00  0.00    +0.000 A 
ATOM     20  C   UNL     1      44.730   2.990   9.877  0.00  0.00    +0.000 A 
BRANCH  18  21
ATOM     21  C   UNL     1      46.380   2.362   6.491  0.00  0.00    +0.000 C 
BRANCH  21  22
ATOM     22  N   UNL     1      47.525   2.986   5.834  0.00  0.00    +0.000 NA
ATOM     23  H   UNL     1      47.361   2.992   4.831  0.00  0.00    +0.000 HD
ATOM     24  H   UNL     1      48.345   2.406   5.991  0.00  0.00    +0.000 HD
ENDBRANCH  21  22
ENDBRANCH  18  21
ENDBRANCH  14  15
ENDBRANCH   8  14
TORSDOF 5
ENDMDL
MODEL 6
REMARK VINA RESULT:    -6.296      3.011      3.711
REMARK INTER + INTRA:          -8.630
REMARK INTER:                  -8.459
REMARK INTRA:                  -0.170
REMARK UNBOUND:                -0.678
REMARK  Name = 
REMARK  6 active torsions:
REMARK  status: ('A' for Active; 'I' for Inactive)
REMARK    1  A    between atoms: C_1  and  S_2
REMARK    2  A    between atoms: S_2  and  C_5
REMARK    3  A    between atoms: N_12  and  C_13
REMARK    4  A    between atoms: C_13  and  C_14
REMARK    5  A    between atoms: C_17  and  C_18
REMARK    6  A    between atoms: C_18  and  N_19
REMARK                            x       y       z     vdW  Elec       q    Type
REMARK                         _______ _______ _______ _____ _____    ______ ____
ROOT
ATOM      1  C   UNL     1      46.768   8.131  12.270  0.00  0.00    +0.000 A 
ATOM      2  C   UNL     1      47.380   6.904  12.010  0.00  0.00    +0.000 A 
ATOM      3  C   UNL     1      46.628   5.825  11.530  0.00  0.00    +0.000 A 
ATOM      4  C   UNL     1      45.249   6.010  11.329  0.00  0.00    +0.000 A 
ATOM      5  C   UNL     1      44.632   7.246  11.566  0.00  0.00    +0.000 A 
ATOM      6  C   UNL     1      43.260   7.108  11.232  0.00  0.00    +0.000 A 
ATOM      7  C   UNL     1      43.055   5.810  10.832  0.00  0.00    +0.000 A 
ATOM      8  N   UNL     1      44.251   5.137  10.923  0.00  0.00    +0.000 N 
ATOM      9  C   UNL     1      45.398   8.320  12.059  0.00  0.00    +0.000 A 
ENDROOT
BRANCH   1  11
ATOM     10  C   UNL     1      49.313   9.254  12.160  0.00  0.00    +0.000 C 
ATOM     11  S   UNL     1      47.732   9.469  12.934  0.00  0.00    +0.000 S 
ATOM     12  O   UNL     1      47.893   9.231  14.355  0.00  0.00    +0.000 OA
ATOM     13  O   UNL     1      47.160  10.710  12.449  0.00  0.00    +0.000 OA
ENDBRANCH   1  11
BRANCH   8  14
ATOM     14  C   UNL     1      44.381   3.691  10.730  0.00  0.00    +0.000 C 
BRANCH  14  15
ATOM     15  C   UNL     1      45.239   3.367   9.534  0.00  0.00    +0.000 A 
ATOM     16  C   UNL     1      45.637   4.377   8.650  0.00  0.00    +0.000 A 
ATOM     17  C   UNL     1      46.270   4.057   7.447  0.00  0.00    +0.000 A 
ATOM     18  C   UNL     1      46.529   2.722   7.105  0.00  0.00    +0.000 A 
ATOM     19  C   UNL     1      46.214   1.722   8.033  0.00  0.00    +0.000 A 
ATOM     20  C   UNL     1      45.583   2.041   9.239  0.00  0.00    +0.000 A 
BRANCH  18  21
ATOM     21  C   UNL     1      46.973   2.394   5.699  0.00  0.00    +0.000 C 
BRANCH  21  22
ATOM     22  N   UNL     1      48.405   2.141   5.573  0.00  0.00    +0.000 NA
ATOM     23  H   UNL     1      48.898   3.030   5.624  0.00  0.00    +0.000 HD
ATOM     24  H   UNL     1      48.587   1.762   4.648  0.00  0.00    +0.000 HD
ENDBRANCH  21  22
ENDBRANCH  18  21
ENDBRANCH  14  15
ENDBRANCH   8  14
TORSDOF 5
ENDMDL
MODEL 7
REMARK VINA RESULT:    -5.957      4.483      8.055
REMARK INTER + INTRA:          -8.202
REMARK INTER:                  -7.553
REMARK INTRA:                  -0.649
REMARK UNBOUND:                -0.678
REMARK  Name = 
REMARK  6 active torsions:
REMARK  status: ('A' for Active; 'I' for Inactive)
REMARK    1  A    between atoms: C_1  and  S_2
REMARK    2  A    between atoms: S_2  and  C_5
REMARK    3  A    between atoms: N_12  and  C_13
REMARK    4  A    between atoms: C_13  and  C_14
REMARK    5  A    between atoms: C_17  and  C_18
REMARK    6  A    between atoms: C_18  and  N_19
REMARK                            x       y       z     vdW  Elec       q    Type
REMARK                         _______ _______ _______ _____ _____    ______ ____
ROOT
ATOM      1  C   UNL     1      44.893   5.234  11.990  0.00  0.00    +0.000 A 
ATOM      2  C   UNL     1      45.691   4.400  12.773  0.00  0.00    +0.000 A 
ATOM      3  C   UNL     1      46.731   4.933  13.543  0.00  0.00    +0.000 A 
ATOM      4  C   UNL     1      46.952   6.321  13.497  0.00  0.00    +0.000 A 
ATOM      5  C   UNL     1      46.140   7.167  12.730  0.00  0.00    +0.000 A 
ATOM      6  C   UNL     1      46.599   8.495  12.932  0.00  0.00    +0.000 A 
ATOM      7  C   UNL     1      47.681   8.439  13.777  0.00  0.00    +0.000 A 
ATOM      8  N   UNL     1      47.916   7.121  14.091  0.00  0.00    +0.000 N 
ATOM      9  C   UNL     1      45.103   6.616  11.952  0.00  0.00    +0.000 A 
ENDROOT
BRANCH   1  11
ATOM     10  C   UNL     1      43.353   2.932  11.704  0.00  0.00    +0.000 C 
ATOM     11  S   UNL     1      43.615   4.527  10.975  0.00  0.00    +0.000 S 
ATOM     12  O   UNL     1      44.167   4.329   9.650  0.00  0.00    +0.000 OA
ATOM     13  O   UNL     1      42.411   5.312  11.169  0.00  0.00    +0.000 OA
ENDBRANCH   1  11
BRANCH   8  14
ATOM     14  C   UNL     1      49.087   6.666  14.843  0.00  0.00    +0.000 C 
BRANCH  14  15
ATOM     15  C   UNL     1      48.733   6.323  16.266  0.00  0.00    +0.000 A 
ATOM     16  C   UNL     1      48.696   7.318  17.250  0.00  0.00    +0.000 A 
ATOM     17  C   UNL     1      48.553   6.977  18.597  0.00  0.00    +0.000 A 
ATOM     18  C   UNL     1      48.432   5.637  18.990  0.00  0.00    +0.000 A 
ATOM     19  C   UNL     1      48.376   4.652  17.996  0.00  0.00    +0.000 A 
ATOM     20  C   UNL     1      48.515   4.991  16.648  0.00  0.00    +0.000 A 
BRANCH  18  21
ATOM     21  C   UNL     1      48.540   5.286  20.455  0.00  0.00    +0.000 C 
BRANCH  21  22
ATOM     22  N   UNL     1      48.414   3.858  20.734  0.00  0.00    +0.000 NA
ATOM     23  H   UNL     1      49.304   3.408  20.534  0.00  0.00    +0.000 HD
ATOM     24  H   UNL     1      47.736   3.460  20.089  0.00  0.00    +0.000 HD
ENDBRANCH  21  22
ENDBRANCH  18  21
ENDBRANCH  14  15
ENDBRANCH   8  14
TORSDOF 5
ENDMDL
MODEL 8
REMARK VINA RESULT:    -5.538      4.649      6.520
REMARK INTER + INTRA:          -7.673
REMARK INTER:                  -6.993
REMARK INTRA:                  -0.680
REMARK UNBOUND:                -0.678
REMARK  Name = 
REMARK  6 active torsions:
REMARK  status: ('A' for Active; 'I' for Inactive)
REMARK    1  A    between atoms: C_1  and  S_2
REMARK    2  A    between atoms: S_2  and  C_5
REMARK    3  A    between atoms: N_12  and  C_13
REMARK    4  A    between atoms: C_13  and  C_14
REMARK    5  A    between atoms: C_17  and  C_18
REMARK    6  A    between atoms: C_18  and  N_19
REMARK                            x       y       z     vdW  Elec       q    Type
REMARK                         _______ _______ _______ _____ _____    ______ ____
ROOT
ATOM      1  C   UNL     1      45.077   4.670  12.031  0.00  0.00    +0.000 A 
ATOM      2  C   UNL     1      45.369   5.775  11.231  0.00  0.00    +0.000 A 
ATOM      3  C   UNL     1      46.360   6.686  11.615  0.00  0.00    +0.000 A 
ATOM      4  C   UNL     1      47.041   6.461  12.824  0.00  0.00    +0.000 A 
ATOM      5  C   UNL     1      46.769   5.341  13.621  0.00  0.00    +0.000 A 
ATOM      6  C   UNL     1      47.645   5.389  14.736  0.00  0.00    +0.000 A 
ATOM      7  C   UNL     1      48.403   6.530  14.624  0.00  0.00    +0.000 A 
ATOM      8  N   UNL     1      48.013   7.196  13.485  0.00  0.00    +0.000 N 
ATOM      9  C   UNL     1      45.762   4.437  13.228  0.00  0.00    +0.000 A 
ENDROOT
BRANCH   1  11
ATOM     10  C   UNL     1      44.420   2.779  10.096  0.00  0.00    +0.000 C 
ATOM     11  S   UNL     1      43.775   3.559  11.552  0.00  0.00    +0.000 S 
ATOM     12  O   UNL     1      42.634   4.362  11.162  0.00  0.00    +0.000 OA
ATOM     13  O   UNL     1      43.653   2.548  12.585  0.00  0.00    +0.000 OA
ENDBRANCH   1  11
BRANCH   8  14
ATOM     14  C   UNL     1      48.492   8.533  13.127  0.00  0.00    +0.000 C 
BRANCH  14  15
ATOM     15  C   UNL     1      49.854   8.480  12.485  0.00  0.00    +0.000 A 
ATOM     16  C   UNL     1      50.036   7.835  11.256  0.00  0.00    +0.000 A 
ATOM     17  C   UNL     1      51.321   7.622  10.752  0.00  0.00    +0.000 A 
ATOM     18  C   UNL     1      52.451   8.056  11.458  0.00  0.00    +0.000 A 
ATOM     19  C   UNL     1      52.261   8.782  12.641  0.00  0.00    +0.000 A 
ATOM     20  C   UNL     1      50.976   9.000  13.145  0.00  0.00    +0.000 A 
BRANCH  18  21
ATOM     21  C   UNL     1      53.819   7.587  11.023  0.00  0.00    +0.000 C 
BRANCH  21  22
ATOM     22  N   UNL     1      53.929   6.139  10.870  0.00  0.00    +0.000 NA
ATOM     23  H   UNL     1      53.155   5.700  11.363  0.00  0.00    +0.000 HD
ATOM     24  H   UNL     1      54.781   5.828  11.329  0.00  0.00    +0.000 HD
ENDBRANCH  21  22
ENDBRANCH  18  21
ENDBRANCH  14  15
ENDBRANCH   8  14
TORSDOF 5
ENDMDL
MODEL 9
REMARK VINA RESULT:    -5.502      4.150      8.406
REMARK INTER + INTRA:          -7.627
REMARK INTER:                  -6.956
REMARK INTRA:                  -0.671
REMARK UNBOUND:                -0.678
REMARK  Name = 
REMARK  6 active torsions:
REMARK  status: ('A' for Active; 'I' for Inactive)
REMARK    1  A    between atoms: C_1  and  S_2
REMARK    2  A    between atoms: S_2  and  C_5
REMARK    3  A    between atoms: N_12  and  C_13
REMARK    4  A    between atoms: C_13  and  C_14
REMARK    5  A    between atoms: C_17  and  C_18
REMARK    6  A    between atoms: C_18  and  N_19
REMARK                            x       y       z     vdW  Elec       q    Type
REMARK                         _______ _______ _______ _____ _____    ______ ____
ROOT
ATOM      1  C   UNL     1      45.570   4.708  12.464  0.00  0.00    +0.000 A 
ATOM      2  C   UNL     1      46.039   4.463  13.754  0.00  0.00    +0.000 A 
ATOM      3  C   UNL     1      47.054   5.256  14.301  0.00  0.00    +0.000 A 
ATOM      4  C   UNL     1      47.588   6.293  13.516  0.00  0.00    +0.000 A 
ATOM      5  C   UNL     1      47.105   6.559  12.228  0.00  0.00    +0.000 A 
ATOM      6  C   UNL     1      47.820   7.679  11.728  0.00  0.00    +0.000 A 
ATOM      7  C   UNL     1      48.731   8.054  12.686  0.00  0.00    +0.000 A 
ATOM      8  N   UNL     1      48.614   7.194  13.753  0.00  0.00    +0.000 N 
ATOM      9  C   UNL     1      46.091   5.746  11.685  0.00  0.00    +0.000 A 
ENDROOT
BRANCH   1  11
ATOM     10  C   UNL     1      43.078   4.793  11.224  0.00  0.00    +0.000 C 
ATOM     11  S   UNL     1      44.321   3.651  11.768  0.00  0.00    +0.000 S 
ATOM     12  O   UNL     1      43.763   2.861  12.848  0.00  0.00    +0.000 OA
ATOM     13  O   UNL     1      44.886   3.011  10.596  0.00  0.00    +0.000 OA
ENDBRANCH   1  11
BRANCH   8  14
ATOM     14  C   UNL     1      49.535   7.191  14.892  0.00  0.00    +0.000 C 
BRANCH  14  15
ATOM     15  C   UNL     1      48.870   7.708  16.142  0.00  0.00    +0.000 A 
ATOM     16  C   UNL     1      48.439   9.038  16.219  0.00  0.00    +0.000 A 
ATOM     17  C   UNL     1      47.996   9.569  17.433  0.00  0.00    +0.000 A 
ATOM     18  C   UNL     1      47.965   8.782  18.593  0.00  0.00    +0.000 A 
ATOM     19  C   UNL     1      48.308   7.428  18.491  0.00  0.00    +0.000 A 
ATOM     20  C   UNL     1      48.748   6.894  17.276  0.00  0.00    +0.000 A 
BRANCH  18  21
ATOM     21  C   UNL     1      47.732   9.447  19.929  0.00  0.00    +0.000 C 
BRANCH  21  22
ATOM     22  N   UNL     1      46.446  10.130  20.036  0.00  0.00    +0.000 NA
ATOM     23  H   UNL     1      46.616  11.124  20.166  0.00  0.00    +0.000 HD
ATOM     24  H   UNL     1      45.975   9.803  20.875  0.00  0.00    +0.000 HD
ENDBRANCH  21  22
ENDBRANCH  18  21
ENDBRANCH  14  15
ENDBRANCH   8  14
TORSDOF 5
ENDMDL
