MODEL 1
REMARK VINA RESULT:    -7.956      0.000      0.000
REMARK INTER + INTRA:         -10.189
REMARK INTER:                  -9.817
REMARK INTRA:                  -0.372
REMARK UNBOUND:                -0.372
REMARK  Name = 
REMARK  4 active torsions:
REMARK  status: ('A' for Active; 'I' for Inactive)
REMARK    1  A    between atoms: C_2  and  C_4
REMARK    2  A    between atoms: C_7  and  O_8
REMARK    3  A    between atoms: O_8  and  C_9
REMARK    4  A    between atoms: C_9  and  C_10
REMARK                            x       y       z     vdW  Elec       q    Type
REMARK                         _______ _______ _______ _____ _____    ______ ____
ROOT
ATOM      1  C   UNL     1      46.394   2.722   7.561  0.00  0.00    +0.000 A 
ATOM      2  C   UNL     1      45.898   1.743   8.420  0.00  0.00    +0.000 A 
ATOM      3  C   UNL     1      44.998   2.119   9.414  0.00  0.00    +0.000 A 
ATOM      4  C   UNL     1      44.616   3.452   9.510  0.00  0.00    +0.000 A 
ATOM      5  N   UNL     1      45.070   4.428   8.695  0.00  0.00    +0.000 NA
ATOM      6  C   UNL     1      45.963   4.033   7.742  0.00  0.00    +0.000 A 
ENDROOT
BRANCH   1   8
ATOM      7  N   UNL     1      47.311   3.122   5.335  0.00  0.00    +0.000 N 
ATOM      8  C   UNL     1      47.393   2.421   6.508  0.00  0.00    +0.000 C 
ATOM      9  O   UNL     1      48.267   1.582   6.683  0.00  0.00    +0.000 OA
ATOM     10  H   UNL     1      48.036   2.947   4.650  0.00  0.00    +0.000 HD
ATOM     11  H   UNL     1      46.758   3.959   5.225  0.00  0.00    +0.000 HD
ENDBRANCH   1   8
BRANCH   4  12
ATOM     12  O   UNL     1      43.772   3.738  10.564  0.00  0.00    +0.000 OA
BRANCH  12  13
ATOM     13  C   UNL     1      43.918   4.999  11.254  0.00  0.00    +0.000 C 
ATOM     14  C   UNL     1      42.696   5.230  12.145  0.00  0.00    +0.000 C 
ATOM     15  C   UNL     1      42.963   6.153  11.004  0.00  0.00    +0.000 C 
BRANCH  13  16
ATOM     16  C   UNL     1      45.290   5.307  11.849  0.00  0.00    +0.000 A 
ATOM     17  C   UNL     1      46.041   6.395  11.385  0.00  0.00    +0.000 A 
ATOM     18  C   UNL     1      47.247   6.729  12.004  0.00  0.00    +0.000 A 
ATOM     19  C   UNL     1      47.686   5.960  13.066  0.00  0.00    +0.000 A 
ATOM     20  F   UNL     1      48.826   6.262  13.698  0.00  0.00    +0.000 F 
ATOM     21  C   UNL     1      46.917   4.884  13.468  0.00  0.00    +0.000 A 
ATOM     22  N   UNL     1      45.742   4.545  12.887  0.00  0.00    +0.000 NA
ENDBRANCH  13  16
ENDBRANCH  12  13
ENDBRANCH   4  12
TORSDOF 4
ENDMDL
MODEL 2
REMARK VINA RESULT:    -6.532      3.333      6.459
REMARK INTER + INTRA:          -8.431
REMARK INTER:                  -8.169
REMARK INTRA:                  -0.263
REMARK UNBOUND:                -0.372
REMARK  Name = 
REMARK  4 active torsions:
REMARK  status: ('A' for Active; 'I' for Inactive)
REMARK    1  A    between atoms: C_2  and  C_4
REMARK    2  A    between atoms: C_7  and  O_8
REMARK    3  A    between atoms: O_8  and  C_9
REMARK    4  A    between atoms: C_9  and  C_10
REMARK                            x       y       z     vdW  Elec       q    Type
REMARK                         _______ _______ _______ _____ _____    ______ ____
ROOT
ATOM      1  C   UNL     1      47.216   7.986  13.545  0.00  0.00    +0.000 A 
ATOM      2  C   UNL     1      46.034   8.589  13.124  0.00  0.00    +0.000 A 
ATOM      3  C   UNL     1      45.262   7.948  12.158  0.00  0.00    +0.000 A 
ATOM      4  C   UNL     1      45.690   6.726  11.654  0.00  0.00    +0.000 A 
ATOM      5  N   UNL     1      46.827   6.107  12.038  0.00  0.00    +0.000 NA
ATOM      6  C   UNL     1      47.570   6.766  12.973  0.00  0.00    +0.000 A 
ENDROOT
BRANCH   1   8
ATOM      7  N   UNL     1      47.558   9.197  15.635  0.00  0.00    +0.000 N 
ATOM      8  C   UNL     1      48.124   8.621  14.530  0.00  0.00    +0.000 C 
ATOM      9  O   UNL     1      49.337   8.623  14.367  0.00  0.00    +0.000 OA
ATOM     10  H   UNL     1      48.195   9.573  16.328  0.00  0.00    +0.000 HD
ATOM     11  H   UNL     1      46.604   9.035  15.921  0.00  0.00    +0.000 HD
ENDBRANCH   1   8
BRANCH   4  12
ATOM     12  O   UNL     1      44.894   6.199  10.657  0.00  0.00    +0.000 OA
BRANCH  12  13
ATOM     13  C   UNL     1      44.531   4.801  10.717  0.00  0.00    +0.000 C 
ATOM     14  C   UNL     1      43.044   4.682  11.059  0.00  0.00    +0.000 C 
ATOM     15  C   UNL     1      44.066   4.160  12.012  0.00  0.00    +0.000 C 
BRANCH  13  16
ATOM     16  C   UNL     1      45.073   3.899   9.612  0.00  0.00    +0.000 A 
ATOM     17  C   UNL     1      45.673   4.450   8.472  0.00  0.00    +0.000 A 
ATOM     18  C   UNL     1      46.258   3.618   7.516  0.00  0.00    +0.000 A 
ATOM     19  C   UNL     1      46.220   2.249   7.711  0.00  0.00    +0.000 A 
ATOM     20  F   UNL     1      46.787   1.420   6.827  0.00  0.00    +0.000 F 
ATOM     21  C   UNL     1      45.595   1.759   8.842  0.00  0.00    +0.000 A 
ATOM     22  N   UNL     1      45.027   2.546   9.786  0.00  0.00    +0.000 NA
ENDBRANCH  13  16
ENDBRANCH  12  13
ENDBRANCH   4  12
TORSDOF 4
ENDMDL
MODEL 3
REMARK VINA RESULT:    -6.054      3.111      6.394
REMARK INTER + INTRA:          -7.842
REMARK INTER:                  -8.085
REMARK INTRA:                   0.243
REMARK UNBOUND:                -0.372
REMARK  Name = 
REMARK  4 active torsions:
REMARK  status: ('A' for Active; 'I' for Inactive)
REMARK    1  A    between atoms: C_2  and  C_4
REMARK    2  A    between atoms: C_7  and  O_8
REMARK    3  A    between atoms: O_8  and  C_9
REMARK    4  A    between atoms: C_9  and  C_10
REMARK                            x       y       z     vdW  Elec       q    Type
REMARK                         _______ _______ _______ _____ _____    ______ ____
ROOT
ATOM      1  C   UNL     1      47.282   5.039  14.583  0.00  0.00    +0.000 A 
ATOM      2  C   UNL     1      47.555   6.147  13.785  0.00  0.00    +0.000 A 
ATOM      3  C   UNL     1      46.966   6.226  12.525  0.00  0.00    +0.000 A 
ATOM      4  C   UNL     1      46.119   5.205  12.111  0.00  0.00    +0.000 A 
ATOM      5  N   UNL     1      45.827   4.118  12.856  0.00  0.00    +0.000 NA
ATOM      6  C   UNL     1      46.430   4.060  14.077  0.00  0.00    +0.000 A 
ENDROOT
BRANCH   1   8
ATOM      7  N   UNL     1      47.329   3.938  16.760  0.00  0.00    +0.000 N 
ATOM      8  C   UNL     1      47.904   4.848  15.915  0.00  0.00    +0.000 C 
ATOM      9  O   UNL     1      48.902   5.475  16.245  0.00  0.00    +0.000 OA
ATOM     10  H   UNL     1      47.801   3.776  17.642  0.00  0.00    +0.000 HD
ATOM     11  H   UNL     1      46.653   3.252  16.462  0.00  0.00    +0.000 HD
ENDBRANCH   1   8
BRANCH   4  12
ATOM     12  O   UNL     1      45.635   5.341  10.826  0.00  0.00    +0.000 OA
BRANCH  12  13
ATOM     13  C   UNL     1      44.841   4.272  10.262  0.00  0.00    +0.000 C 
ATOM     14  C   UNL     1      43.397   4.752  10.094  0.00  0.00    +0.000 C 
ATOM     15  C   UNL     1      43.700   3.639  11.039  0.00  0.00    +0.000 C 
BRANCH  13  16
ATOM     16  C   UNL     1      45.459   3.487   9.108  0.00  0.00    +0.000 A 
ATOM     17  C   UNL     1      46.057   4.154   8.031  0.00  0.00    +0.000 A 
ATOM     18  C   UNL     1      46.710   3.429   7.033  0.00  0.00    +0.000 A 
ATOM     19  C   UNL     1      46.742   2.049   7.124  0.00  0.00    +0.000 A 
ATOM     20  F   UNL     1      47.376   1.322   6.198  0.00  0.00    +0.000 F 
ATOM     21  C   UNL     1      46.117   1.442   8.197  0.00  0.00    +0.000 A 
ATOM     22  N   UNL     1      45.482   2.124   9.179  0.00  0.00    +0.000 NA
ENDBRANCH  13  16
ENDBRANCH  12  13
ENDBRANCH   4  12
TORSDOF 4
ENDMDL
MODEL 4
REMARK VINA RESULT:    -5.797      4.399      7.948
REMARK INTER + INTRA:          -7.525
REMARK INTER:                  -7.103
REMARK INTRA:                  -0.422
REMARK UNBOUND:                -0.372
REMARK  Name = 
REMARK  4 active torsions:
REMARK  status: ('A' for Active; 'I' for Inactive)
REMARK    1  A    between atoms: C_2  and  C_4
REMARK    2  A    between atoms: C_7  and  O_8
REMARK    3  A    between atoms: O_8  and  C_9
REMARK    4  A    between atoms: C_9  and  C_10
REMARK                            x       y       z     vdW  Elec       q    Type
REMARK                         _______ _______ _______ _____ _____    ______ ____
ROOT
ATOM      1  C   UNL     1      48.265   5.133  17.843  0.00  0.00    +0.000 A 
ATOM      2  C   UNL     1      48.789   6.307  17.307  0.00  0.00    +0.000 A 
ATOM      3  C   UNL     1      48.689   6.520  15.935  0.00  0.00    +0.000 A 
ATOM      4  C   UNL     1      48.061   5.563  15.147  0.00  0.00    +0.000 A 
ATOM      5  N   UNL     1      47.538   4.415  15.628  0.00  0.00    +0.000 NA
ATOM      6  C   UNL     1      47.665   4.226  16.972  0.00  0.00    +0.000 A 
ENDROOT
BRANCH   1   8
ATOM      7  N   UNL     1      48.491   3.480  19.623  0.00  0.00    +0.000 N 
ATOM      8  C   UNL     1      48.373   4.800  19.283  0.00  0.00    +0.000 C 
ATOM      9  O   UNL     1      48.365   5.675  20.139  0.00  0.00    +0.000 OA
ATOM     10  H   UNL     1      48.624   3.273  20.606  0.00  0.00    +0.000 HD
ATOM     11  H   UNL     1      48.719   2.753  18.961  0.00  0.00    +0.000 HD
ENDBRANCH   1   8
BRANCH   4  12
ATOM     12  O   UNL     1      48.067   5.832  13.794  0.00  0.00    +0.000 OA
BRANCH  12  13
ATOM     13  C   UNL     1      46.870   6.365  13.182  0.00  0.00    +0.000 C 
ATOM     14  C   UNL     1      47.264   7.332  12.063  0.00  0.00    +0.000 C 
ATOM     15  C   UNL     1      46.534   7.844  13.258  0.00  0.00    +0.000 C 
BRANCH  13  16
ATOM     16  C   UNL     1      45.743   5.376  12.893  0.00  0.00    +0.000 A 
ATOM     17  C   UNL     1      44.407   5.796  12.903  0.00  0.00    +0.000 A 
ATOM     18  C   UNL     1      43.391   4.911  12.537  0.00  0.00    +0.000 A 
ATOM     19  C   UNL     1      43.731   3.618  12.181  0.00  0.00    +0.000 A 
ATOM     20  F   UNL     1      42.788   2.747  11.805  0.00  0.00    +0.000 F 
ATOM     21  C   UNL     1      45.063   3.251  12.212  0.00  0.00    +0.000 A 
ATOM     22  N   UNL     1      46.065   4.094  12.557  0.00  0.00    +0.000 NA
ENDBRANCH  13  16
ENDBRANCH  12  13
ENDBRANCH   4  12
TORSDOF 4
ENDMDL
MODEL 5
REMARK VINA RESULT:    -5.772      3.264      5.095
REMARK INTER + INTRA:          -7.494
REMARK INTER:                  -7.238
REMARK INTRA:                  -0.256
REMARK UNBOUND:                -0.372
REMARK  Name = 
REMARK  4 active torsions:
REMARK  status: ('A' for Active; 'I' for Inactive)
REMARK    1  A    between atoms: C_2  and  C_4
REMARK    2  A    between atoms: C_7  and  O_8
REMARK    3  A    between atoms: O_8  and  C_9
REMARK    4  A    between atoms: C_9  and  C_10
REMARK                            x       y       z     vdW  Elec       q    Type
REMARK                         _______ _______ _______ _____ _____    ______ ____
ROOT
ATOM      1  C   UNL     1      44.713   4.119  11.405  0.00  0.00    +0.000 A 
ATOM      2  C   UNL     1      45.111   5.095  10.495  0.00  0.00    +0.000 A 
ATOM      3  C   UNL     1      45.728   6.247  10.975  0.00  0.00    +0.000 A 
ATOM      4  C   UNL     1      45.936   6.381  12.343  0.00  0.00    +0.000 A 
ATOM      5  N   UNL     1      45.569   5.458  13.257  0.00  0.00    +0.000 NA
ATOM      6  C   UNL     1      44.952   4.348  12.758  0.00  0.00    +0.000 A 
ENDROOT
BRANCH   1   8
ATOM      7  N   UNL     1      44.515   2.189   9.926  0.00  0.00    +0.000 N 
ATOM      8  C   UNL     1      44.004   2.886  10.988  0.00  0.00    +0.000 C 
ATOM      9  O   UNL     1      43.003   2.499  11.576  0.00  0.00    +0.000 OA
ATOM     10  H   UNL     1      44.054   1.318   9.691  0.00  0.00    +0.000 HD
ATOM     11  H   UNL     1      45.440   2.340   9.554  0.00  0.00    +0.000 HD
ENDBRANCH   1   8
BRANCH   4  12
ATOM     12  O   UNL     1      46.495   7.582  12.729  0.00  0.00    +0.000 OA
BRANCH  12  13
ATOM     13  C   UNL     1      47.916   7.640  12.992  0.00  0.00    +0.000 C 
ATOM     14  C   UNL     1      48.535   8.771  12.169  0.00  0.00    +0.000 C 
ATOM     15  C   UNL     1      48.934   7.359  11.902  0.00  0.00    +0.000 C 
BRANCH  13  16
ATOM     16  C   UNL     1      48.354   7.508  14.449  0.00  0.00    +0.000 A 
ATOM     17  C   UNL     1      48.356   8.623  15.296  0.00  0.00    +0.000 A 
ATOM     18  C   UNL     1      48.659   8.474  16.651  0.00  0.00    +0.000 A 
ATOM     19  C   UNL     1      48.967   7.213  17.130  0.00  0.00    +0.000 A 
ATOM     20  F   UNL     1      49.242   7.027  18.425  0.00  0.00    +0.000 F 
ATOM     21  C   UNL     1      48.972   6.152  16.244  0.00  0.00    +0.000 A 
ATOM     22  N   UNL     1      48.676   6.271  14.928  0.00  0.00    +0.000 NA
ENDBRANCH  13  16
ENDBRANCH  12  13
ENDBRANCH   4  12
TORSDOF 4
ENDMDL
MODEL 6
REMARK VINA RESULT:    -5.758      4.199      7.145
REMARK INTER + INTRA:          -7.477
REMARK INTER:                  -7.153
REMARK INTRA:                  -0.324
REMARK UNBOUND:                -0.372
REMARK  Name = 
REMARK  4 active torsions:
REMARK  status: ('A' for Active; 'I' for Inactive)
REMARK    1  A    between atoms: C_2  and  C_4
REMARK    2  A    between atoms: C_7  and  O_8
REMARK    3  A    between atoms: O_8  and  C_9
REMARK    4  A    between atoms: C_9  and  C_10
REMARK                            x       y       z     vdW  Elec       q    Type
REMARK                         _______ _______ _______ _____ _____    ______ ____
ROOT
ATOM      1  C   UNL     1      47.817   4.212  16.567  0.00  0.00    +0.000 A 
ATOM      2  C   UNL     1      48.438   5.448  16.734  0.00  0.00    +0.000 A 
ATOM      3  C   UNL     1      48.532   6.303  15.639  0.00  0.00    +0.000 A 
ATOM      4  C   UNL     1      47.996   5.902  14.421  0.00  0.00    +0.000 A 
ATOM      5  N   UNL     1      47.384   4.716  14.219  0.00  0.00    +0.000 NA
ATOM      6  C   UNL     1      47.321   3.893  15.305  0.00  0.00    +0.000 A 
ENDROOT
BRANCH   1   8
ATOM      7  N   UNL     1      48.770   3.127  18.533  0.00  0.00    +0.000 N 
ATOM      8  C   UNL     1      47.718   3.220  17.662  0.00  0.00    +0.000 C 
ATOM      9  O   UNL     1      46.727   2.513  17.791  0.00  0.00    +0.000 OA
ATOM     10  H   UNL     1      48.662   2.487  19.311  0.00  0.00    +0.000 HD
ATOM     11  H   UNL     1      49.499   3.822  18.601  0.00  0.00    +0.000 HD
ENDBRANCH   1   8
BRANCH   4  12
ATOM     12  O   UNL     1      48.194   6.788  13.382  0.00  0.00    +0.000 OA
BRANCH  12  13
ATOM     13  C   UNL     1      47.063   7.528  12.868  0.00  0.00    +0.000 C 
ATOM     14  C   UNL     1      47.564   8.792  12.167  0.00  0.00    +0.000 C 
ATOM     15  C   UNL     1      46.719   8.911  13.390  0.00  0.00    +0.000 C 
BRANCH  13  16
ATOM     16  C   UNL     1      45.970   6.722  12.169  0.00  0.00    +0.000 A 
ATOM     17  C   UNL     1      46.222   6.094  10.942  0.00  0.00    +0.000 A 
ATOM     18  C   UNL     1      45.252   5.275  10.361  0.00  0.00    +0.000 A 
ATOM     19  C   UNL     1      44.043   5.110  11.012  0.00  0.00    +0.000 A 
ATOM     20  F   UNL     1      43.097   4.317  10.497  0.00  0.00    +0.000 F 
ATOM     21  C   UNL     1      43.840   5.772  12.209  0.00  0.00    +0.000 A 
ATOM     22  N   UNL     1      44.767   6.565  12.794  0.00  0.00    +0.000 NA
ENDBRANCH  13  16
ENDBRANCH  12  13
ENDBRANCH   4  12
TORSDOF 4
ENDMDL
MODEL 7
REMARK VINA RESULT:    -5.264      1.852      2.319
REMARK INTER + INTRA:          -6.867
REMARK INTER:                  -6.593
REMARK INTRA:                  -0.274
REMARK UNBOUND:                -0.372
REMARK  Name = 
REMARK  4 active torsions:
REMARK  status: ('A' for Active; 'I' for Inactive)
REMARK    1  A    between atoms: C_2  and  C_4
REMARK    2  A    between atoms: C_7  and  O_8
REMARK    3  A    between atoms: O_8  and  C_9
REMARK    4  A    between atoms: C_9  and  C_10
REMARK                            x       y       z     vdW  Elec       q    Type
REMARK                         _______ _______ _______ _____ _____    ______ ____
ROOT
ATOM      1  C   UNL     1      45.871   2.905   8.369  0.00  0.00    +0.000 A 
ATOM      2  C   UNL     1      45.153   2.495   9.489  0.00  0.00    +0.000 A 
ATOM      3  C   UNL     1      44.661   3.464  10.360  0.00  0.00    +0.000 A 
ATOM      4  C   UNL     1      44.892   4.805  10.079  0.00  0.00    +0.000 A 
ATOM      5  N   UNL     1      45.580   5.243   9.002  0.00  0.00    +0.000 NA
ATOM      6  C   UNL     1      46.063   4.271   8.177  0.00  0.00    +0.000 A 
ENDROOT
BRANCH   1   8
ATOM      7  N   UNL     1      46.537   0.629   7.797  0.00  0.00    +0.000 N 
ATOM      8  C   UNL     1      46.475   1.943   7.417  0.00  0.00    +0.000 C 
ATOM      9  O   UNL     1      46.895   2.306   6.327  0.00  0.00    +0.000 OA
ATOM     10  H   UNL     1      46.897  -0.025   7.112  0.00  0.00    +0.000 HD
ATOM     11  H   UNL     1      46.018   0.249   8.574  0.00  0.00    +0.000 HD
ENDBRANCH   1   8
BRANCH   4  12
ATOM     12  O   UNL     1      44.422   5.686  11.031  0.00  0.00    +0.000 OA
BRANCH  12  13
ATOM     13  C   UNL     1      45.360   6.557  11.703  0.00  0.00    +0.000 C 
ATOM     14  C   UNL     1      44.759   7.960  11.809  0.00  0.00    +0.000 C 
ATOM     15  C   UNL     1      45.988   7.742  10.992  0.00  0.00    +0.000 C 
BRANCH  13  16
ATOM     16  C   UNL     1      46.059   5.996  12.939  0.00  0.00    +0.000 A 
ATOM     17  C   UNL     1      45.569   4.848  13.575  0.00  0.00    +0.000 A 
ATOM     18  C   UNL     1      46.272   4.284  14.642  0.00  0.00    +0.000 A 
ATOM     19  C   UNL     1      47.445   4.885  15.059  0.00  0.00    +0.000 A 
ATOM     20  F   UNL     1      48.157   4.362  16.064  0.00  0.00    +0.000 F 
ATOM     21  C   UNL     1      47.870   6.029  14.410  0.00  0.00    +0.000 A 
ATOM     22  N   UNL     1      47.209   6.591  13.371  0.00  0.00    +0.000 NA
ENDBRANCH  13  16
ENDBRANCH  12  13
ENDBRANCH   4  12
TORSDOF 4
ENDMDL
MODEL 8
REMARK VINA RESULT:    -5.155      3.941      7.447
REMARK INTER + INTRA:          -6.733
REMARK INTER:                  -6.542
REMARK INTRA:                  -0.191
REMARK UNBOUND:                -0.372
REMARK  Name = 
REMARK  4 active torsions:
REMARK  status: ('A' for Active; 'I' for Inactive)
REMARK    1  A    between atoms: C_2  and  C_4
REMARK    2  A    between atoms: C_7  and  O_8
REMARK    3  A    between atoms: O_8  and  C_9
REMARK    4  A    between atoms: C_9  and  C_10
REMARK                            x       y       z     vdW  Elec       q    Type
REMARK                         _______ _______ _______ _____ _____    ______ ____
ROOT
ATOM      1  C   UNL     1      48.403   5.701  16.712  0.00  0.00    +0.000 A 
ATOM      2  C   UNL     1      48.759   6.893  16.086  0.00  0.00    +0.000 A 
ATOM      3  C   UNL     1      48.476   7.047  14.731  0.00  0.00    +0.000 A 
ATOM      4  C   UNL     1      47.840   6.015  14.052  0.00  0.00    +0.000 A 
ATOM      5  N   UNL     1      47.476   4.847  14.623  0.00  0.00    +0.000 NA
ATOM      6  C   UNL     1      47.780   4.718  15.946  0.00  0.00    +0.000 A 
ENDROOT
BRANCH   1   8
ATOM      7  N   UNL     1      49.046   6.497  18.927  0.00  0.00    +0.000 N 
ATOM      8  C   UNL     1      48.711   5.430  18.136  0.00  0.00    +0.000 C 
ATOM      9  O   UNL     1      48.659   4.296  18.593  0.00  0.00    +0.000 OA
ATOM     10  H   UNL     1      49.195   6.304  19.911  0.00  0.00    +0.000 HD
ATOM     11  H   UNL     1      48.893   7.458  18.660  0.00  0.00    +0.000 HD
ENDBRANCH   1   8
BRANCH   4  12
ATOM     12  O   UNL     1      47.659   6.234  12.701  0.00  0.00    +0.000 OA
BRANCH  12  13
ATOM     13  C   UNL     1      46.316   6.400  12.193  0.00  0.00    +0.000 C 
ATOM     14  C   UNL     1      46.128   7.847  11.732  0.00  0.00    +0.000 C 
ATOM     15  C   UNL     1      45.322   7.325  12.873  0.00  0.00    +0.000 C 
BRANCH  13  16
ATOM     16  C   UNL     1      45.780   5.297  11.285  0.00  0.00    +0.000 A 
ATOM     17  C   UNL     1      45.194   4.147  11.829  0.00  0.00    +0.000 A 
ATOM     18  C   UNL     1      44.615   3.191  10.992  0.00  0.00    +0.000 A 
ATOM     19  C   UNL     1      44.645   3.398   9.625  0.00  0.00    +0.000 A 
ATOM     20  F   UNL     1      44.083   2.515   8.792  0.00  0.00    +0.000 F 
ATOM     21  C   UNL     1      45.257   4.539   9.141  0.00  0.00    +0.000 A 
ATOM     22  N   UNL     1      45.820   5.481   9.933  0.00  0.00    +0.000 NA
ENDBRANCH  13  16
ENDBRANCH  12  13
ENDBRANCH   4  12
TORSDOF 4
ENDMDL
MODEL 9
REMARK VINA RESULT:    -5.030      4.726      6.849
REMARK INTER + INTRA:          -6.578
REMARK INTER:                  -6.972
REMARK INTRA:                   0.394
REMARK UNBOUND:                -0.372
REMARK  Name = 
REMARK  4 active torsions:
REMARK  status: ('A' for Active; 'I' for Inactive)
REMARK    1  A    between atoms: C_2  and  C_4
REMARK    2  A    between atoms: C_7  and  O_8
REMARK    3  A    between atoms: O_8  and  C_9
REMARK    4  A    between atoms: C_9  and  C_10
REMARK                            x       y       z     vdW  Elec       q    Type
REMARK                         _______ _______ _______ _____ _____    ______ ____
ROOT
ATOM      1  C   UNL     1      45.269   5.176  13.315  0.00  0.00    +0.000 A 
ATOM      2  C   UNL     1      45.608   6.491  13.004  0.00  0.00    +0.000 A 
ATOM      3  C   UNL     1      46.902   6.930  13.273  0.00  0.00    +0.000 A 
ATOM      4  C   UNL     1      47.814   6.042  13.832  0.00  0.00    +0.000 A 
ATOM      5  N   UNL     1      47.526   4.761  14.144  0.00  0.00    +0.000 NA
ATOM      6  C   UNL     1      46.247   4.364  13.884  0.00  0.00    +0.000 A 
ENDROOT
BRANCH   1   8
ATOM      7  N   UNL     1      42.872   5.537  13.044  0.00  0.00    +0.000 N 
ATOM      8  C   UNL     1      43.903   4.640  13.110  0.00  0.00    +0.000 C 
ATOM      9  O   UNL     1      43.704   3.438  12.995  0.00  0.00    +0.000 OA
ATOM     10  H   UNL     1      41.953   5.160  12.844  0.00  0.00    +0.000 HD
ATOM     11  H   UNL     1      43.004   6.529  12.916  0.00  0.00    +0.000 HD
ENDBRANCH   1   8
BRANCH   4  12
ATOM     12  O   UNL     1      49.049   6.586  14.121  0.00  0.00    +0.000 OA
BRANCH  12  13
ATOM     13  C   UNL     1      49.339   6.980  15.481  0.00  0.00    +0.000 C 
ATOM     14  C   UNL     1      48.799   8.391  15.723  0.00  0.00    +0.000 C 
ATOM     15  C   UNL     1      50.268   8.140  15.788  0.00  0.00    +0.000 C 
BRANCH  13  16
ATOM     16  C   UNL     1      49.094   5.936  16.569  0.00  0.00    +0.000 A 
ATOM     17  C   UNL     1      47.976   6.031  17.408  0.00  0.00    +0.000 A 
ATOM     18  C   UNL     1      47.704   5.019  18.330  0.00  0.00    +0.000 A 
ATOM     19  C   UNL     1      48.563   3.937  18.405  0.00  0.00    +0.000 A 
ATOM     20  F   UNL     1      48.325   2.938  19.261  0.00  0.00    +0.000 F 
ATOM     21  C   UNL     1      49.663   3.907  17.568  0.00  0.00    +0.000 A 
ATOM     22  N   UNL     1      49.944   4.873  16.663  0.00  0.00    +0.000 NA
ENDBRANCH  13  16
ENDBRANCH  12  13
ENDBRANCH   4  12
TORSDOF 4
ENDMDL
