MODEL 1
REMARK VINA RESULT:    -8.238      0.000      0.000
REMARK INTER + INTRA:         -12.268
REMARK INTER:                 -11.128
REMARK INTRA:                  -1.140
REMARK UNBOUND:                -1.140
REMARK  Name = 
REMARK  6 active torsions:
REMARK  status: ('A' for Active; 'I' for Inactive)
REMARK    1  A    between atoms: C_2  and  C_25
REMARK    2  A    between atoms: N_3  and  C_4
REMARK    3  A    between atoms: C_4  and  C_5
REMARK    4  A    between atoms: C_8  and  C_9
REMARK    5  A    between atoms: C_9  and  N_10
REMARK    6  A    between atoms: C_11  and  C_13
REMARK                            x       y       z     vdW  Elec       q    Type
REMARK                         _______ _______ _______ _____ _____    ______ ____
ROOT
ATOM      1  C   UNL     1      45.031   5.539  10.718  0.00  0.00    +0.000 A 
ATOM      2  C   UNL     1      44.407   5.899  11.920  0.00  0.00    +0.000 A 
ATOM      3  C   UNL     1      45.049   6.740  12.839  0.00  0.00    +0.000 A 
ATOM      4  C   UNL     1      46.321   7.260  12.565  0.00  0.00    +0.000 A 
ATOM      5  C   UNL     1      46.939   6.906  11.359  0.00  0.00    +0.000 A 
ATOM      6  C   UNL     1      46.298   6.067  10.440  0.00  0.00    +0.000 A 
ENDROOT
BRANCH   1   7
ATOM      7  C   UNL     1      44.368   4.567   9.774  0.00  0.00    +0.000 C 
BRANCH   7  10
ATOM      8  O   UNL     1      45.302   1.986   9.382  0.00  0.00    +0.000 OA
ATOM      9  C   UNL     1      45.618   2.846   8.567  0.00  0.00    +0.000 C 
ATOM     10  N   UNL     1      45.221   4.164   8.680  0.00  0.00    +0.000 N 
ATOM     11  H   UNL     1      45.324   4.786   7.894  0.00  0.00    +0.000 HD
BRANCH   9  12
ATOM     12  C   UNL     1      46.424   2.551   7.410  0.00  0.00    +0.000 A 
ATOM     13  C   UNL     1      46.601   3.187   6.198  0.00  0.00    +0.000 A 
ATOM     14  C   UNL     1      47.545   2.410   5.505  0.00  0.00    +0.000 A 
ATOM     15  N   UNL     1      47.946   1.351   6.212  0.00  0.00    +0.000 NA
ATOM     16  N   UNL     1      47.259   1.463   7.365  0.00  0.00    +0.000 N 
ATOM     17  H   UNL     1      47.398   0.766   8.089  0.00  0.00    +0.000 HD
ENDBRANCH   9  12
ENDBRANCH   7  10
ENDBRANCH   1   7
BRANCH   4  18
ATOM     18  C   UNL     1      47.029   8.162  13.552  0.00  0.00    +0.000 C 
BRANCH  18  19
ATOM     19  N   UNL     1      47.481   7.436  14.710  0.00  0.00    +0.000 N 
ATOM     20  C   UNL     1      48.738   6.882  14.761  0.00  0.00    +0.000 C 
ATOM     21  O   UNL     1      49.542   7.003  13.840  0.00  0.00    +0.000 OA
ATOM     22  H   UNL     1      46.767   7.088  15.347  0.00  0.00    +0.000 HD
BRANCH  20  23
ATOM     23  C   UNL     1      49.098   6.193  16.006  0.00  0.00    +0.000 A 
ATOM     24  C   UNL     1      50.185   6.630  16.755  0.00  0.00    +0.000 A 
ATOM     25  S   UNL     1      50.424   5.747  18.194  0.00  0.00    +0.000 S 
ATOM     26  C   UNL     1      49.118   4.714  17.843  0.00  0.00    +0.000 A 
ATOM     27  N   UNL     1      48.790   3.689  18.675  0.00  0.00    +0.000 NA
ATOM     28  C   UNL     1      47.802   2.965  18.264  0.00  0.00    +0.000 A 
ATOM     29  N   UNL     1      47.106   3.178  17.103  0.00  0.00    +0.000 N 
ATOM     30  C   UNL     1      47.377   4.222  16.253  0.00  0.00    +0.000 A 
ATOM     31  O   UNL     1      46.698   4.418  15.249  0.00  0.00    +0.000 OA
ATOM     32  C   UNL     1      48.492   5.055  16.657  0.00  0.00    +0.000 A 
ATOM     33  H   UNL     1      46.335   2.580  16.845  0.00  0.00    +0.000 HD
ENDBRANCH  20  23
ENDBRANCH  18  19
ENDBRANCH   4  18
TORSDOF 6
ENDMDL
MODEL 2
REMARK VINA RESULT:    -7.876      1.223      1.341
REMARK INTER + INTRA:         -11.779
REMARK INTER:                 -10.948
REMARK INTRA:                  -0.831
REMARK UNBOUND:                -1.140
REMARK  Name = 
REMARK  6 active torsions:
REMARK  status: ('A' for Active; 'I' for Inactive)
REMARK    1  A    between atoms: C_2  and  C_25
REMARK    2  A    between atoms: N_3  and  C_4
REMARK    3  A    between atoms: C_4  and  C_5
REMARK    4  A    between atoms: C_8  and  C_9
REMARK    5  A    between atoms: C_9  and  N_10
REMARK    6  A    between atoms: C_11  and  C_13
REMARK                            x       y       z     vdW  Elec       q    Type
REMARK                         _______ _______ _______ _____ _____    ______ ____
ROOT
ATOM      1  C   UNL     1      44.686   5.330  11.357  0.00  0.00    +0.000 A 
ATOM      2  C   UNL     1      45.673   4.774  12.182  0.00  0.00    +0.000 A 
ATOM      3  C   UNL     1      46.564   5.593  12.889  0.00  0.00    +0.000 A 
ATOM      4  C   UNL     1      46.473   6.988  12.804  0.00  0.00    +0.000 A 
ATOM      5  C   UNL     1      45.480   7.543  11.985  0.00  0.00    +0.000 A 
ATOM      6  C   UNL     1      44.589   6.725  11.280  0.00  0.00    +0.000 A 
ENDROOT
BRANCH   1   7
ATOM      7  C   UNL     1      43.785   4.441  10.535  0.00  0.00    +0.000 C 
BRANCH   7  10
ATOM      8  O   UNL     1      45.323   4.814   8.259  0.00  0.00    +0.000 OA
ATOM      9  C   UNL     1      45.248   3.684   8.728  0.00  0.00    +0.000 C 
ATOM     10  N   UNL     1      44.496   3.389   9.848  0.00  0.00    +0.000 N 
ATOM     11  H   UNL     1      44.625   2.505  10.318  0.00  0.00    +0.000 HD
BRANCH   9  12
ATOM     12  C   UNL     1      45.954   2.566   8.157  0.00  0.00    +0.000 A 
ATOM     13  C   UNL     1      46.953   2.466   7.210  0.00  0.00    +0.000 A 
ATOM     14  C   UNL     1      47.234   1.093   7.108  0.00  0.00    +0.000 A 
ATOM     15  N   UNL     1      46.475   0.360   7.924  0.00  0.00    +0.000 NA
ATOM     16  N   UNL     1      45.714   1.275   8.554  0.00  0.00    +0.000 N 
ATOM     17  H   UNL     1      45.042   0.962   9.248  0.00  0.00    +0.000 HD
ENDBRANCH   9  12
ENDBRANCH   7  10
ENDBRANCH   1   7
BRANCH   4  18
ATOM     18  C   UNL     1      47.433   7.884  13.554  0.00  0.00    +0.000 C 
BRANCH  18  19
ATOM     19  N   UNL     1      47.782   7.335  14.839  0.00  0.00    +0.000 N 
ATOM     20  C   UNL     1      49.074   6.968  15.134  0.00  0.00    +0.000 C 
ATOM     21  O   UNL     1      49.992   7.118  14.332  0.00  0.00    +0.000 OA
ATOM     22  H   UNL     1      47.025   6.949  15.400  0.00  0.00    +0.000 HD
BRANCH  20  23
ATOM     23  C   UNL     1      49.314   6.451  16.486  0.00  0.00    +0.000 A 
ATOM     24  C   UNL     1      50.089   7.177  17.383  0.00  0.00    +0.000 A 
ATOM     25  S   UNL     1      50.219   6.452  18.920  0.00  0.00    +0.000 S 
ATOM     26  C   UNL     1      49.289   5.114  18.429  0.00  0.00    +0.000 A 
ATOM     27  N   UNL     1      49.039   4.082  19.279  0.00  0.00    +0.000 NA
ATOM     28  C   UNL     1      48.354   3.118  18.759  0.00  0.00    +0.000 A 
ATOM     29  N   UNL     1      47.886   3.097  17.472  0.00  0.00    +0.000 N 
ATOM     30  C   UNL     1      48.081   4.132  16.591  0.00  0.00    +0.000 A 
ATOM     31  O   UNL     1      47.601   4.107  15.461  0.00  0.00    +0.000 OA
ATOM     32  C   UNL     1      48.864   5.233  17.117  0.00  0.00    +0.000 A 
ATOM     33  H   UNL     1      47.344   2.316  17.130  0.00  0.00    +0.000 HD
ENDBRANCH  20  23
ENDBRANCH  18  19
ENDBRANCH   4  18
TORSDOF 6
ENDMDL
MODEL 3
REMARK VINA RESULT:    -7.428      4.604      9.512
REMARK INTER + INTRA:         -11.174
REMARK INTER:                 -10.421
REMARK INTRA:                  -0.753
REMARK UNBOUND:                -1.140
REMARK  Name = 
REMARK  6 active torsions:
REMARK  status: ('A' for Active; 'I' for Inactive)
REMARK    1  A    between atoms: C_2  and  C_25
REMARK    2  A    between atoms: N_3  and  C_4
REMARK    3  A    between atoms: C_4  and  C_5
REMARK    4  A    between atoms: C_8  and  C_9
REMARK    5  A    between atoms: C_9  and  N_10
REMARK    6  A    between atoms: C_11  and  C_13
REMARK                            x       y       z     vdW  Elec       q    Type
REMARK                         _______ _______ _______ _____ _____    ______ ____
ROOT
ATOM      1  C   UNL     1      51.405   3.018  17.685  0.00  0.00    +0.000 A 
ATOM      2  C   UNL     1      50.647   1.992  17.104  0.00  0.00    +0.000 A 
ATOM      3  C   UNL     1      49.276   2.158  16.866  0.00  0.00    +0.000 A 
ATOM      4  C   UNL     1      48.637   3.364  17.182  0.00  0.00    +0.000 A 
ATOM      5  C   UNL     1      49.397   4.392  17.754  0.00  0.00    +0.000 A 
ATOM      6  C   UNL     1      50.767   4.227  17.992  0.00  0.00    +0.000 A 
ENDROOT
BRANCH   1   7
ATOM      7  C   UNL     1      52.861   2.801  18.015  0.00  0.00    +0.000 C 
BRANCH   7  10
ATOM      8  O   UNL     1      54.320   0.799  16.771  0.00  0.00    +0.000 OA
ATOM      9  C   UNL     1      53.880   0.582  17.895  0.00  0.00    +0.000 C 
ATOM     10  N   UNL     1      53.128   1.506  18.593  0.00  0.00    +0.000 N 
ATOM     11  H   UNL     1      52.965   1.374  19.580  0.00  0.00    +0.000 HD
BRANCH   9  12
ATOM     12  C   UNL     1      54.124  -0.655  18.591  0.00  0.00    +0.000 A 
ATOM     13  C   UNL     1      55.263  -1.231  19.118  0.00  0.00    +0.000 A 
ATOM     14  C   UNL     1      54.835  -2.437  19.697  0.00  0.00    +0.000 A 
ATOM     15  N   UNL     1      53.523  -2.630  19.554  0.00  0.00    +0.000 NA
ATOM     16  N   UNL     1      53.113  -1.534  18.888  0.00  0.00    +0.000 N 
ATOM     17  H   UNL     1      52.129  -1.436  18.660  0.00  0.00    +0.000 HD
ENDBRANCH   9  12
ENDBRANCH   7  10
ENDBRANCH   1   7
BRANCH   4  18
ATOM     18  C   UNL     1      47.156   3.553  16.938  0.00  0.00    +0.000 C 
BRANCH  18  19
ATOM     19  N   UNL     1      46.904   4.535  15.915  0.00  0.00    +0.000 N 
ATOM     20  C   UNL     1      46.966   4.209  14.581  0.00  0.00    +0.000 C 
ATOM     21  O   UNL     1      47.206   3.066  14.200  0.00  0.00    +0.000 OA
ATOM     22  H   UNL     1      46.982   5.514  16.183  0.00  0.00    +0.000 HD
BRANCH  20  23
ATOM     23  C   UNL     1      46.660   5.285  13.631  0.00  0.00    +0.000 A 
ATOM     24  C   UNL     1      47.609   6.262  13.354  0.00  0.00    +0.000 A 
ATOM     25  S   UNL     1      47.102   7.400  12.190  0.00  0.00    +0.000 S 
ATOM     26  C   UNL     1      45.575   6.662  12.053  0.00  0.00    +0.000 A 
ATOM     27  N   UNL     1      44.622   7.169  11.225  0.00  0.00    +0.000 NA
ATOM     28  C   UNL     1      43.500   6.530  11.251  0.00  0.00    +0.000 A 
ATOM     29  N   UNL     1      43.247   5.424  12.020  0.00  0.00    +0.000 N 
ATOM     30  C   UNL     1      44.190   4.855  12.840  0.00  0.00    +0.000 A 
ATOM     31  O   UNL     1      43.950   3.831  13.473  0.00  0.00    +0.000 OA
ATOM     32  C   UNL     1      45.464   5.547  12.865  0.00  0.00    +0.000 A 
ATOM     33  H   UNL     1      42.350   4.963  11.984  0.00  0.00    +0.000 HD
ENDBRANCH  20  23
ENDBRANCH  18  19
ENDBRANCH   4  18
TORSDOF 6
ENDMDL
MODEL 4
REMARK VINA RESULT:    -7.265      3.971      4.876
REMARK INTER + INTRA:         -10.954
REMARK INTER:                 -10.205
REMARK INTRA:                  -0.749
REMARK UNBOUND:                -1.140
REMARK  Name = 
REMARK  6 active torsions:
REMARK  status: ('A' for Active; 'I' for Inactive)
REMARK    1  A    between atoms: C_2  and  C_25
REMARK    2  A    between atoms: N_3  and  C_4
REMARK    3  A    between atoms: C_4  and  C_5
REMARK    4  A    between atoms: C_8  and  C_9
REMARK    5  A    between atoms: C_9  and  N_10
REMARK    6  A    between atoms: C_11  and  C_13
REMARK                            x       y       z     vdW  Elec       q    Type
REMARK                         _______ _______ _______ _____ _____    ______ ____
ROOT
ATOM      1  C   UNL     1      44.315   3.953  11.116  0.00  0.00    +0.000 A 
ATOM      2  C   UNL     1      45.447   4.196  11.906  0.00  0.00    +0.000 A 
ATOM      3  C   UNL     1      45.692   5.469  12.438  0.00  0.00    +0.000 A 
ATOM      4  C   UNL     1      44.798   6.523  12.211  0.00  0.00    +0.000 A 
ATOM      5  C   UNL     1      43.662   6.276  11.429  0.00  0.00    +0.000 A 
ATOM      6  C   UNL     1      43.416   5.005  10.898  0.00  0.00    +0.000 A 
ENDROOT
BRANCH   1   7
ATOM      7  C   UNL     1      44.103   2.602  10.478  0.00  0.00    +0.000 C 
BRANCH   7  10
ATOM      8  O   UNL     1      44.392   3.797   7.993  0.00  0.00    +0.000 OA
ATOM      9  C   UNL     1      45.192   2.925   8.313  0.00  0.00    +0.000 C 
ATOM     10  N   UNL     1      45.126   2.257   9.519  0.00  0.00    +0.000 N 
ATOM     11  H   UNL     1      45.912   1.705   9.829  0.00  0.00    +0.000 HD
BRANCH   9  12
ATOM     12  C   UNL     1      46.284   2.533   7.459  0.00  0.00    +0.000 A 
ATOM     13  C   UNL     1      46.816   3.068   6.303  0.00  0.00    +0.000 A 
ATOM     14  C   UNL     1      47.895   2.232   5.968  0.00  0.00    +0.000 A 
ATOM     15  N   UNL     1      48.048   1.231   6.837  0.00  0.00    +0.000 NA
ATOM     16  N   UNL     1      47.066   1.440   7.735  0.00  0.00    +0.000 N 
ATOM     17  H   UNL     1      46.973   0.802   8.519  0.00  0.00    +0.000 HD
ENDBRANCH   9  12
ENDBRANCH   7  10
ENDBRANCH   1   7
BRANCH   4  18
ATOM     18  C   UNL     1      45.054   7.904  12.773  0.00  0.00    +0.000 C 
BRANCH  18  19
ATOM     19  N   UNL     1      46.213   8.516  12.177  0.00  0.00    +0.000 N 
ATOM     20  C   UNL     1      47.254   8.979  12.946  0.00  0.00    +0.000 C 
ATOM     21  O   UNL     1      47.260   8.866  14.170  0.00  0.00    +0.000 OA
ATOM     22  H   UNL     1      46.114   8.868  11.226  0.00  0.00    +0.000 HD
BRANCH  20  23
ATOM     23  C   UNL     1      48.395   9.554  12.225  0.00  0.00    +0.000 A 
ATOM     24  C   UNL     1      48.392  10.901  11.877  0.00  0.00    +0.000 A 
ATOM     25  S   UNL     1      49.818  11.408  11.091  0.00  0.00    +0.000 S 
ATOM     26  C   UNL     1      50.469   9.836  11.138  0.00  0.00    +0.000 A 
ATOM     27  N   UNL     1      51.685   9.563  10.593  0.00  0.00    +0.000 NA
ATOM     28  C   UNL     1      52.035   8.322  10.667  0.00  0.00    +0.000 A 
ATOM     29  N   UNL     1      51.286   7.331  11.246  0.00  0.00    +0.000 N 
ATOM     30  C   UNL     1      50.072   7.567  11.841  0.00  0.00    +0.000 A 
ATOM     31  O   UNL     1      49.451   6.667  12.401  0.00  0.00    +0.000 OA
ATOM     32  C   UNL     1      49.620   8.943  11.768  0.00  0.00    +0.000 A 
ATOM     33  H   UNL     1      51.624   6.381  11.281  0.00  0.00    +0.000 HD
ENDBRANCH  20  23
ENDBRANCH  18  19
ENDBRANCH   4  18
TORSDOF 6
ENDMDL
MODEL 5
REMARK VINA RESULT:    -7.250      1.702      2.017
REMARK INTER + INTRA:         -10.934
REMARK INTER:                 -10.085
REMARK INTRA:                  -0.849
REMARK UNBOUND:                -1.140
REMARK  Name = 
REMARK  6 active torsions:
REMARK  status: ('A' for Active; 'I' for Inactive)
REMARK    1  A    between atoms: C_2  and  C_25
REMARK    2  A    between atoms: N_3  and  C_4
REMARK    3  A    between atoms: C_4  and  C_5
REMARK    4  A    between atoms: C_8  and  C_9
REMARK    5  A    between atoms: C_9  and  N_10
REMARK    6  A    between atoms: C_11  and  C_13
REMARK                            x       y       z     vdW  Elec       q    Type
REMARK                         _______ _______ _______ _____ _____    ______ ____
ROOT
ATOM      1  C   UNL     1      44.780   4.851  11.612  0.00  0.00    +0.000 A 
ATOM      2  C   UNL     1      45.755   4.486  12.551  0.00  0.00    +0.000 A 
ATOM      3  C   UNL     1      46.549   5.457  13.176  0.00  0.00    +0.000 A 
ATOM      4  C   UNL     1      46.369   6.817  12.895  0.00  0.00    +0.000 A 
ATOM      5  C   UNL     1      45.387   7.181  11.964  0.00  0.00    +0.000 A 
ATOM      6  C   UNL     1      44.594   6.212  11.339  0.00  0.00    +0.000 A 
ENDROOT
BRANCH   1   7
ATOM      7  C   UNL     1      43.988   3.795  10.882  0.00  0.00    +0.000 C 
BRANCH   7  10
ATOM      8  O   UNL     1      44.811   4.403   8.305  0.00  0.00    +0.000 OA
ATOM      9  C   UNL     1      45.175   3.339   8.793  0.00  0.00    +0.000 C 
ATOM     10  N   UNL     1      44.807   2.934  10.061  0.00  0.00    +0.000 N 
ATOM     11  H   UNL     1      45.289   2.164  10.499  0.00  0.00    +0.000 HD
BRANCH   9  12
ATOM     12  C   UNL     1      46.034   2.423   8.087  0.00  0.00    +0.000 A 
ATOM     13  C   UNL     1      47.005   2.595   7.122  0.00  0.00    +0.000 A 
ATOM     14  C   UNL     1      47.502   1.307   6.859  0.00  0.00    +0.000 A 
ATOM     15  N   UNL     1      46.897   0.372   7.595  0.00  0.00    +0.000 NA
ATOM     16  N   UNL     1      46.018   1.073   8.336  0.00  0.00    +0.000 N 
ATOM     17  H   UNL     1      45.428   0.579   8.998  0.00  0.00    +0.000 HD
ENDBRANCH   9  12
ENDBRANCH   7  10
ENDBRANCH   1   7
BRANCH   4  18
ATOM     18  C   UNL     1      47.224   7.875  13.558  0.00  0.00    +0.000 C 
BRANCH  18  19
ATOM     19  N   UNL     1      48.402   7.308  14.162  0.00  0.00    +0.000 N 
ATOM     20  C   UNL     1      48.897   7.787  15.352  0.00  0.00    +0.000 C 
ATOM     21  O   UNL     1      48.345   8.695  15.968  0.00  0.00    +0.000 OA
ATOM     22  H   UNL     1      49.019   6.769  13.558  0.00  0.00    +0.000 HD
BRANCH  20  23
ATOM     23  C   UNL     1      50.084   7.109  15.886  0.00  0.00    +0.000 A 
ATOM     24  C   UNL     1      51.351   7.623  15.637  0.00  0.00    +0.000 A 
ATOM     25  S   UNL     1      52.607   6.739  16.377  0.00  0.00    +0.000 S 
ATOM     26  C   UNL     1      51.508   5.605  17.013  0.00  0.00    +0.000 A 
ATOM     27  N   UNL     1      51.941   4.541  17.742  0.00  0.00    +0.000 NA
ATOM     28  C   UNL     1      51.001   3.743  18.127  0.00  0.00    +0.000 A 
ATOM     29  N   UNL     1      49.668   3.917  17.860  0.00  0.00    +0.000 N 
ATOM     30  C   UNL     1      49.183   4.994  17.161  0.00  0.00    +0.000 A 
ATOM     31  O   UNL     1      47.978   5.151  16.986  0.00  0.00    +0.000 OA
ATOM     32  C   UNL     1      50.199   5.913  16.686  0.00  0.00    +0.000 A 
ATOM     33  H   UNL     1      48.982   3.260  18.201  0.00  0.00    +0.000 HD
ENDBRANCH  20  23
ENDBRANCH  18  19
ENDBRANCH   4  18
TORSDOF 6
ENDMDL
MODEL 6
REMARK VINA RESULT:    -7.203      2.186      2.550
REMARK INTER + INTRA:         -10.870
REMARK INTER:                  -9.901
REMARK INTRA:                  -0.970
REMARK UNBOUND:                -1.140
REMARK  Name = 
REMARK  6 active torsions:
REMARK  status: ('A' for Active; 'I' for Inactive)
REMARK    1  A    between atoms: C_2  and  C_25
REMARK    2  A    between atoms: N_3  and  C_4
REMARK    3  A    between atoms: C_4  and  C_5
REMARK    4  A    between atoms: C_8  and  C_9
REMARK    5  A    between atoms: C_9  and  N_10
REMARK    6  A    between atoms: C_11  and  C_13
REMARK                            x       y       z     vdW  Elec       q    Type
REMARK                         _______ _______ _______ _____ _____    ______ ____
ROOT
ATOM      1  C   UNL     1      45.509   5.478  11.380  0.00  0.00    +0.000 A 
ATOM      2  C   UNL     1      45.952   4.758  12.497  0.00  0.00    +0.000 A 
ATOM      3  C   UNL     1      46.872   5.319  13.394  0.00  0.00    +0.000 A 
ATOM      4  C   UNL     1      47.351   6.621  13.207  0.00  0.00    +0.000 A 
ATOM      5  C   UNL     1      46.900   7.343  12.094  0.00  0.00    +0.000 A 
ATOM      6  C   UNL     1      45.980   6.785  11.198  0.00  0.00    +0.000 A 
ENDROOT
BRANCH   1   7
ATOM      7  C   UNL     1      44.584   4.837  10.374  0.00  0.00    +0.000 C 
BRANCH   7  10
ATOM      8  O   UNL     1      45.101   2.167   9.841  0.00  0.00    +0.000 OA
ATOM      9  C   UNL     1      45.462   3.002   9.019  0.00  0.00    +0.000 C 
ATOM     10  N   UNL     1      45.268   4.357   9.197  0.00  0.00    +0.000 N 
ATOM     11  H   UNL     1      45.387   4.985   8.417  0.00  0.00    +0.000 HD
BRANCH   9  12
ATOM     12  C   UNL     1      46.109   2.636   7.785  0.00  0.00    +0.000 A 
ATOM     13  C   UNL     1      46.315   3.305   6.595  0.00  0.00    +0.000 A 
ATOM     14  C   UNL     1      47.039   2.411   5.787  0.00  0.00    +0.000 A 
ATOM     15  N   UNL     1      47.281   1.253   6.405  0.00  0.00    +0.000 NA
ATOM     16  N   UNL     1      46.715   1.417   7.615  0.00  0.00    +0.000 N 
ATOM     17  H   UNL     1      46.770   0.661   8.290  0.00  0.00    +0.000 HD
ENDBRANCH   9  12
ENDBRANCH   7  10
ENDBRANCH   1   7
BRANCH   4  18
ATOM     18  C   UNL     1      48.350   7.235  14.162  0.00  0.00    +0.000 C 
BRANCH  18  19
ATOM     19  N   UNL     1      48.162   6.760  15.509  0.00  0.00    +0.000 N 
ATOM     20  C   UNL     1      49.224   6.340  16.274  0.00  0.00    +0.000 C 
ATOM     21  O   UNL     1      50.380   6.378  15.861  0.00  0.00    +0.000 OA
ATOM     22  H   UNL     1      47.225   6.460  15.768  0.00  0.00    +0.000 HD
BRANCH  20  23
ATOM     23  C   UNL     1      48.914   5.908  17.642  0.00  0.00    +0.000 A 
ATOM     24  C   UNL     1      49.140   4.591  18.025  0.00  0.00    +0.000 A 
ATOM     25  S   UNL     1      48.772   4.280  19.660  0.00  0.00    +0.000 S 
ATOM     26  C   UNL     1      48.245   5.880  19.903  0.00  0.00    +0.000 A 
ATOM     27  N   UNL     1      47.761   6.284  21.109  0.00  0.00    +0.000 NA
ATOM     28  C   UNL     1      47.362   7.512  21.137  0.00  0.00    +0.000 A 
ATOM     29  N   UNL     1      47.415   8.376  20.075  0.00  0.00    +0.000 N 
ATOM     30  C   UNL     1      47.930   8.024  18.852  0.00  0.00    +0.000 A 
ATOM     31  O   UNL     1      48.014   8.838  17.937  0.00  0.00    +0.000 OA
ATOM     32  C   UNL     1      48.373   6.647  18.759  0.00  0.00    +0.000 A 
ATOM     33  H   UNL     1      47.097   9.330  20.167  0.00  0.00    +0.000 HD
ENDBRANCH  20  23
ENDBRANCH  18  19
ENDBRANCH   4  18
TORSDOF 6
ENDMDL
MODEL 7
REMARK VINA RESULT:    -6.959      2.324      3.138
REMARK INTER + INTRA:         -10.541
REMARK INTER:                  -9.623
REMARK INTRA:                  -0.918
REMARK UNBOUND:                -1.140
REMARK  Name = 
REMARK  6 active torsions:
REMARK  status: ('A' for Active; 'I' for Inactive)
REMARK    1  A    between atoms: C_2  and  C_25
REMARK    2  A    between atoms: N_3  and  C_4
REMARK    3  A    between atoms: C_4  and  C_5
REMARK    4  A    between atoms: C_8  and  C_9
REMARK    5  A    between atoms: C_9  and  N_10
REMARK    6  A    between atoms: C_11  and  C_13
REMARK                            x       y       z     vdW  Elec       q    Type
REMARK                         _______ _______ _______ _____ _____    ______ ____
ROOT
ATOM      1  C   UNL     1      45.276   4.667  11.782  0.00  0.00    +0.000 A 
ATOM      2  C   UNL     1      45.885   4.261  12.977  0.00  0.00    +0.000 A 
ATOM      3  C   UNL     1      46.718   5.133  13.692  0.00  0.00    +0.000 A 
ATOM      4  C   UNL     1      46.941   6.439  13.239  0.00  0.00    +0.000 A 
ATOM      5  C   UNL     1      46.325   6.847  12.049  0.00  0.00    +0.000 A 
ATOM      6  C   UNL     1      45.492   5.977  11.335  0.00  0.00    +0.000 A 
ENDROOT
BRANCH   1   7
ATOM      7  C   UNL     1      44.450   3.696  10.975  0.00  0.00    +0.000 C 
BRANCH   7  10
ATOM      8  O   UNL     1      44.692   4.366   8.297  0.00  0.00    +0.000 OA
ATOM      9  C   UNL     1      45.292   3.378   8.703  0.00  0.00    +0.000 C 
ATOM     10  N   UNL     1      45.225   2.949  10.013  0.00  0.00    +0.000 N 
ATOM     11  H   UNL     1      45.887   2.268  10.351  0.00  0.00    +0.000 HD
BRANCH   9  12
ATOM     12  C   UNL     1      46.136   2.584   7.845  0.00  0.00    +0.000 A 
ATOM     13  C   UNL     1      46.889   2.882   6.728  0.00  0.00    +0.000 A 
ATOM     14  C   UNL     1      47.509   1.674   6.365  0.00  0.00    +0.000 A 
ATOM     15  N   UNL     1      47.182   0.672   7.183  0.00  0.00    +0.000 NA
ATOM     16  N   UNL     1      46.356   1.250   8.076  0.00  0.00    +0.000 N 
ATOM     17  H   UNL     1      45.967   0.685   8.824  0.00  0.00    +0.000 HD
ENDBRANCH   9  12
ENDBRANCH   7  10
ENDBRANCH   1   7
BRANCH   4  18
ATOM     18  C   UNL     1      47.844   7.388  13.997  0.00  0.00    +0.000 C 
BRANCH  18  19
ATOM     19  N   UNL     1      48.843   6.682  14.757  0.00  0.00    +0.000 N 
ATOM     20  C   UNL     1      49.059   6.958  16.086  0.00  0.00    +0.000 C 
ATOM     21  O   UNL     1      48.394   7.794  16.694  0.00  0.00    +0.000 OA
ATOM     22  H   UNL     1      49.574   6.206  14.232  0.00  0.00    +0.000 HD
BRANCH  20  23
ATOM     23  C   UNL     1      50.081   6.153  16.763  0.00  0.00    +0.000 A 
ATOM     24  C   UNL     1      49.708   5.205  17.710  0.00  0.00    +0.000 A 
ATOM     25  S   UNL     1      51.020   4.328  18.355  0.00  0.00    +0.000 S 
ATOM     26  C   UNL     1      52.140   5.218  17.434  0.00  0.00    +0.000 A 
ATOM     27  N   UNL     1      53.477   4.985  17.537  0.00  0.00    +0.000 NA
ATOM     28  C   UNL     1      54.210   5.761  16.809  0.00  0.00    +0.000 A 
ATOM     29  N   UNL     1      53.729   6.739  15.979  0.00  0.00    +0.000 N 
ATOM     30  C   UNL     1      52.388   6.984  15.814  0.00  0.00    +0.000 A 
ATOM     31  O   UNL     1      51.987   7.830  15.021  0.00  0.00    +0.000 OA
ATOM     32  C   UNL     1      51.519   6.154  16.626  0.00  0.00    +0.000 A 
ATOM     33  H   UNL     1      54.357   7.304  15.427  0.00  0.00    +0.000 HD
ENDBRANCH  20  23
ENDBRANCH  18  19
ENDBRANCH   4  18
TORSDOF 6
ENDMDL
MODEL 8
REMARK VINA RESULT:    -6.920      4.846      9.130
REMARK INTER + INTRA:         -10.487
REMARK INTER:                  -9.445
REMARK INTRA:                  -1.042
REMARK UNBOUND:                -1.140
REMARK  Name = 
REMARK  6 active torsions:
REMARK  status: ('A' for Active; 'I' for Inactive)
REMARK    1  A    between atoms: C_2  and  C_25
REMARK    2  A    between atoms: N_3  and  C_4
REMARK    3  A    between atoms: C_4  and  C_5
REMARK    4  A    between atoms: C_8  and  C_9
REMARK    5  A    between atoms: C_9  and  N_10
REMARK    6  A    between atoms: C_11  and  C_13
REMARK                            x       y       z     vdW  Elec       q    Type
REMARK                         _______ _______ _______ _____ _____    ______ ____
ROOT
ATOM      1  C   UNL     1      51.485   2.875  17.630  0.00  0.00    +0.000 A 
ATOM      2  C   UNL     1      50.661   1.866  17.112  0.00  0.00    +0.000 A 
ATOM      3  C   UNL     1      49.300   2.099  16.875  0.00  0.00    +0.000 A 
ATOM      4  C   UNL     1      48.736   3.356  17.127  0.00  0.00    +0.000 A 
ATOM      5  C   UNL     1      49.562   4.367  17.636  0.00  0.00    +0.000 A 
ATOM      6  C   UNL     1      50.922   4.135  17.873  0.00  0.00    +0.000 A 
ENDROOT
BRANCH   1   7
ATOM      7  C   UNL     1      52.928   2.590  17.962  0.00  0.00    +0.000 C 
BRANCH   7  10
ATOM      8  O   UNL     1      54.389   0.672  19.330  0.00  0.00    +0.000 OA
ATOM      9  C   UNL     1      54.124   0.466  18.151  0.00  0.00    +0.000 C 
ATOM     10  N   UNL     1      53.417   1.365  17.377  0.00  0.00    +0.000 N 
ATOM     11  H   UNL     1      53.044   1.072  16.486  0.00  0.00    +0.000 HD
BRANCH   9  12
ATOM     12  C   UNL     1      54.516  -0.744  17.474  0.00  0.00    +0.000 A 
ATOM     13  C   UNL     1      55.025  -1.948  17.917  0.00  0.00    +0.000 A 
ATOM     14  C   UNL     1      55.174  -2.735  16.762  0.00  0.00    +0.000 A 
ATOM     15  N   UNL     1      54.794  -2.090  15.657  0.00  0.00    +0.000 NA
ATOM     16  N   UNL     1      54.393  -0.889  16.116  0.00  0.00    +0.000 N 
ATOM     17  H   UNL     1      54.043  -0.203  15.455  0.00  0.00    +0.000 HD
ENDBRANCH   9  12
ENDBRANCH   7  10
ENDBRANCH   1   7
BRANCH   4  18
ATOM     18  C   UNL     1      47.267   3.620  16.883  0.00  0.00    +0.000 C 
BRANCH  18  19
ATOM     19  N   UNL     1      47.065   4.623  15.869  0.00  0.00    +0.000 N 
ATOM     20  C   UNL     1      47.116   4.310  14.532  0.00  0.00    +0.000 C 
ATOM     21  O   UNL     1      47.304   3.161  14.139  0.00  0.00    +0.000 OA
ATOM     22  H   UNL     1      47.188   5.595  16.148  0.00  0.00    +0.000 HD
BRANCH  20  23
ATOM     23  C   UNL     1      46.864   5.409  13.593  0.00  0.00    +0.000 A 
ATOM     24  C   UNL     1      45.764   5.363  12.745  0.00  0.00    +0.000 A 
ATOM     25  S   UNL     1      45.598   6.745  11.761  0.00  0.00    +0.000 S 
ATOM     26  C   UNL     1      47.021   7.433  12.393  0.00  0.00    +0.000 A 
ATOM     27  N   UNL     1      47.479   8.633  11.946  0.00  0.00    +0.000 NA
ATOM     28  C   UNL     1      48.589   9.014  12.486  0.00  0.00    +0.000 A 
ATOM     29  N   UNL     1      49.276   8.310  13.440  0.00  0.00    +0.000 N 
ATOM     30  C   UNL     1      48.833   7.114  13.948  0.00  0.00    +0.000 A 
ATOM     31  O   UNL     1      49.443   6.536  14.842  0.00  0.00    +0.000 OA
ATOM     32  C   UNL     1      47.599   6.630  13.359  0.00  0.00    +0.000 A 
ATOM     33  H   UNL     1      50.135   8.670  13.831  0.00  0.00    +0.000 HD
ENDBRANCH  20  23
ENDBRANCH  18  19
ENDBRANCH   4  18
TORSDOF 6
ENDMDL
MODEL 9
REMARK VINA RESULT:    -6.873      3.183      3.918
REMARK INTER + INTRA:         -10.424
REMARK INTER:                  -9.754
REMARK INTRA:                  -0.670
REMARK UNBOUND:                -1.140
REMARK  Name = 
REMARK  6 active torsions:
REMARK  status: ('A' for Active; 'I' for Inactive)
REMARK    1  A    between atoms: C_2  and  C_25
REMARK    2  A    between atoms: N_3  and  C_4
REMARK    3  A    between atoms: C_4  and  C_5
REMARK    4  A    between atoms: C_8  and  C_9
REMARK    5  A    between atoms: C_9  and  N_10
REMARK    6  A    between atoms: C_11  and  C_13
REMARK                            x       y       z     vdW  Elec       q    Type
REMARK                         _______ _______ _______ _____ _____    ______ ____
ROOT
ATOM      1  C   UNL     1      44.530   4.454  11.615  0.00  0.00    +0.000 A 
ATOM      2  C   UNL     1      45.508   4.538  12.615  0.00  0.00    +0.000 A 
ATOM      3  C   UNL     1      45.940   5.782  13.096  0.00  0.00    +0.000 A 
ATOM      4  C   UNL     1      45.385   6.970  12.604  0.00  0.00    +0.000 A 
ATOM      5  C   UNL     1      44.400   6.884  11.610  0.00  0.00    +0.000 A 
ATOM      6  C   UNL     1      43.968   5.643  11.130  0.00  0.00    +0.000 A 
ENDROOT
BRANCH   1   7
ATOM      7  C   UNL     1      44.133   3.116  11.043  0.00  0.00    +0.000 C 
BRANCH   7  10
ATOM      8  O   UNL     1      44.284   3.839   8.372  0.00  0.00    +0.000 OA
ATOM      9  C   UNL     1      45.096   3.026   8.798  0.00  0.00    +0.000 C 
ATOM     10  N   UNL     1      45.096   2.587  10.107  0.00  0.00    +0.000 N 
ATOM     11  H   UNL     1      45.894   2.086  10.466  0.00  0.00    +0.000 HD
BRANCH   9  12
ATOM     12  C   UNL     1      46.133   2.468   7.969  0.00  0.00    +0.000 A 
ATOM     13  C   UNL     1      47.027   3.023   7.076  0.00  0.00    +0.000 A 
ATOM     14  C   UNL     1      47.803   1.949   6.609  0.00  0.00    +0.000 A 
ATOM     15  N   UNL     1      47.438   0.787   7.153  0.00  0.00    +0.000 NA
ATOM     16  N   UNL     1      46.431   1.128   7.980  0.00  0.00    +0.000 N 
ATOM     17  H   UNL     1      45.978   0.404   8.529  0.00  0.00    +0.000 HD
ENDBRANCH   9  12
ENDBRANCH   7  10
ENDBRANCH   1   7
BRANCH   4  18
ATOM     18  C   UNL     1      45.847   8.319  13.109  0.00  0.00    +0.000 C 
BRANCH  18  19
ATOM     19  N   UNL     1      47.107   8.228  13.800  0.00  0.00    +0.000 N 
ATOM     20  C   UNL     1      48.129   9.111  13.543  0.00  0.00    +0.000 C 
ATOM     21  O   UNL     1      48.008  10.032  12.739  0.00  0.00    +0.000 OA
ATOM     22  H   UNL     1      47.329   7.339  14.244  0.00  0.00    +0.000 HD
BRANCH  20  23
ATOM     23  C   UNL     1      49.355   8.938  14.331  0.00  0.00    +0.000 A 
ATOM     24  C   UNL     1      49.321   9.087  15.713  0.00  0.00    +0.000 A 
ATOM     25  S   UNL     1      50.822   8.800  16.470  0.00  0.00    +0.000 S 
ATOM     26  C   UNL     1      51.585   8.520  14.974  0.00  0.00    +0.000 A 
ATOM     27  N   UNL     1      52.915   8.244  14.906  0.00  0.00    +0.000 NA
ATOM     28  C   UNL     1      53.366   8.093  13.705  0.00  0.00    +0.000 A 
ATOM     29  N   UNL     1      52.606   8.181  12.567  0.00  0.00    +0.000 N 
ATOM     30  C   UNL     1      51.255   8.420  12.591  0.00  0.00    +0.000 A 
ATOM     31  O   UNL     1      50.592   8.438  11.557  0.00  0.00    +0.000 OA
ATOM     32  C   UNL     1      50.700   8.619  13.915  0.00  0.00    +0.000 A 
ATOM     33  H   UNL     1      53.019   8.041  11.657  0.00  0.00    +0.000 HD
ENDBRANCH  20  23
ENDBRANCH  18  19
ENDBRANCH   4  18
TORSDOF 6
ENDMDL
