MODEL 1
REMARK VINA RESULT:    -8.231      0.000      0.000
REMARK INTER + INTRA:         -12.326
REMARK INTER:                 -11.119
REMARK INTRA:                  -1.208
REMARK UNBOUND:                -1.208
REMARK  Name = 
REMARK  7 active torsions:
REMARK  status: ('A' for Active; 'I' for Inactive)
REMARK    1  A    between atoms: C_1  and  C_2
REMARK    2  A    between atoms: C_2  and  N_3
REMARK    3  A    between atoms: C_2  and  C_16
REMARK    4  A    between atoms: C_4  and  C_6
REMARK    5  A    between atoms: C_19  and  C_20
REMARK    6  A    between atoms: C_20  and  N_21
REMARK    7  A    between atoms: C_22  and  C_24
REMARK                            x       y       z     vdW  Elec       q    Type
REMARK                         _______ _______ _______ _____ _____    ______ ____
ROOT
ATOM      1  C   UNL     1      46.774   8.852  13.541  0.00  0.00    +0.000 C 
ATOM      2  C   UNL     1      47.473   7.496  13.707  0.00  0.00    +0.000 C 
ENDROOT
BRANCH   2   3
ATOM      3  C   UNL     1      46.527   6.415  13.190  0.00  0.00    +0.000 A 
ATOM      4  C   UNL     1      46.828   5.063  13.425  0.00  0.00    +0.000 A 
ATOM      5  C   UNL     1      46.063   4.044  12.846  0.00  0.00    +0.000 A 
ATOM      6  C   UNL     1      44.982   4.352  12.011  0.00  0.00    +0.000 A 
ATOM      7  C   UNL     1      44.655   5.693  11.818  0.00  0.00    +0.000 A 
ATOM      8  F   UNL     1      43.609   6.022  11.046  0.00  0.00    +0.000 F 
ATOM      9  C   UNL     1      45.416   6.716  12.385  0.00  0.00    +0.000 A 
BRANCH   6  10
ATOM     10  C   UNL     1      44.208   3.261  11.327  0.00  0.00    +0.000 C 
BRANCH  10  11
ATOM     11  N   UNL     1      44.984   2.588  10.319  0.00  0.00    +0.000 N 
ATOM     12  C   UNL     1      45.174   3.088   9.052  0.00  0.00    +0.000 C 
ATOM     13  O   UNL     1      44.719   4.169   8.688  0.00  0.00    +0.000 OA
ATOM     14  H   UNL     1      45.444   1.716  10.551  0.00  0.00    +0.000 HD
BRANCH  12  15
ATOM     15  C   UNL     1      45.947   2.213   8.194  0.00  0.00    +0.000 A 
ATOM     16  C   UNL     1      46.674   2.465   7.047  0.00  0.00    +0.000 A 
ATOM     17  C   UNL     1      47.197   1.224   6.612  0.00  0.00    +0.000 A 
ATOM     18  C   UNL     1      46.759   0.286   7.517  0.00  0.00    +0.000 A 
ATOM     19  O   UNL     1      46.008   0.871   8.484  0.00  0.00    +0.000 OA
ENDBRANCH  12  15
ENDBRANCH  10  11
ENDBRANCH   6  10
ENDBRANCH   2   3
BRANCH   2  20
ATOM     20  N   UNL     1      47.880   7.246  15.080  0.00  0.00    +0.000 N 
ATOM     21  C   UNL     1      49.187   6.995  15.430  0.00  0.00    +0.000 C 
ATOM     22  O   UNL     1      50.104   6.990  14.614  0.00  0.00    +0.000 OA
ATOM     23  H   UNL     1      47.162   6.880  15.699  0.00  0.00    +0.000 HD
BRANCH  21  24
ATOM     24  C   UNL     1      49.452   6.795  16.859  0.00  0.00    +0.000 A 
ATOM     25  C   UNL     1      50.304   7.665  17.528  0.00  0.00    +0.000 A 
ATOM     26  S   UNL     1      50.492   7.297  19.183  0.00  0.00    +0.000 S 
ATOM     27  C   UNL     1      49.477   5.939  19.052  0.00  0.00    +0.000 A 
ATOM     28  N   UNL     1      49.241   5.134  20.123  0.00  0.00    +0.000 NA
ATOM     29  C   UNL     1      48.480   4.121  19.871  0.00  0.00    +0.000 A 
ATOM     30  N   UNL     1      47.920   3.848  18.650  0.00  0.00    +0.000 N 
ATOM     31  C   UNL     1      48.094   4.658  17.552  0.00  0.00    +0.000 A 
ATOM     32  O   UNL     1      47.523   4.433  16.492  0.00  0.00    +0.000 OA
ATOM     33  C   UNL     1      48.973   5.789  17.773  0.00  0.00    +0.000 A 
ATOM     34  H   UNL     1      47.316   3.050  18.523  0.00  0.00    +0.000 HD
ENDBRANCH  21  24
ENDBRANCH   2  20
TORSDOF 6
ENDMDL
MODEL 2
REMARK VINA RESULT:    -7.860      1.760      2.095
REMARK INTER + INTRA:         -11.825
REMARK INTER:                 -10.575
REMARK INTRA:                  -1.250
REMARK UNBOUND:                -1.208
REMARK  Name = 
REMARK  7 active torsions:
REMARK  status: ('A' for Active; 'I' for Inactive)
REMARK    1  A    between atoms: C_1  and  C_2
REMARK    2  A    between atoms: C_2  and  N_3
REMARK    3  A    between atoms: C_2  and  C_16
REMARK    4  A    between atoms: C_4  and  C_6
REMARK    5  A    between atoms: C_19  and  C_20
REMARK    6  A    between atoms: C_20  and  N_21
REMARK    7  A    between atoms: C_22  and  C_24
REMARK                            x       y       z     vdW  Elec       q    Type
REMARK                         _______ _______ _______ _____ _____    ______ ____
ROOT
ATOM      1  C   UNL     1      48.121   8.647  13.779  0.00  0.00    +0.000 C 
ATOM      2  C   UNL     1      48.312   7.174  14.167  0.00  0.00    +0.000 C 
ENDROOT
BRANCH   2   3
ATOM      3  C   UNL     1      47.245   6.357  13.442  0.00  0.00    +0.000 A 
ATOM      4  C   UNL     1      46.811   5.141  13.995  0.00  0.00    +0.000 A 
ATOM      5  C   UNL     1      45.944   4.299  13.290  0.00  0.00    +0.000 A 
ATOM      6  C   UNL     1      45.492   4.649  12.012  0.00  0.00    +0.000 A 
ATOM      7  C   UNL     1      45.884   5.880  11.486  0.00  0.00    +0.000 A 
ATOM      8  F   UNL     1      45.449   6.258  10.275  0.00  0.00    +0.000 F 
ATOM      9  C   UNL     1      46.756   6.722  12.177  0.00  0.00    +0.000 A 
BRANCH   6  10
ATOM     10  C   UNL     1      44.623   3.713  11.223  0.00  0.00    +0.000 C 
BRANCH  10  11
ATOM     11  N   UNL     1      45.368   2.972  10.239  0.00  0.00    +0.000 N 
ATOM     12  C   UNL     1      45.252   3.184   8.885  0.00  0.00    +0.000 C 
ATOM     13  O   UNL     1      44.522   4.049   8.408  0.00  0.00    +0.000 OA
ATOM     14  H   UNL     1      46.037   2.276  10.548  0.00  0.00    +0.000 HD
BRANCH  12  15
ATOM     15  C   UNL     1      46.061   2.285   8.087  0.00  0.00    +0.000 A 
ATOM     16  C   UNL     1      46.905   2.518   7.019  0.00  0.00    +0.000 A 
ATOM     17  C   UNL     1      47.408   1.260   6.611  0.00  0.00    +0.000 A 
ATOM     18  C   UNL     1      46.841   0.331   7.451  0.00  0.00    +0.000 A 
ATOM     19  O   UNL     1      46.030   0.937   8.355  0.00  0.00    +0.000 OA
ENDBRANCH  12  15
ENDBRANCH  10  11
ENDBRANCH   6  10
ENDBRANCH   2   3
BRANCH   2  20
ATOM     20  N   UNL     1      48.265   6.969  15.606  0.00  0.00    +0.000 N 
ATOM     21  C   UNL     1      49.373   6.609  16.338  0.00  0.00    +0.000 C 
ATOM     22  O   UNL     1      50.483   6.463  15.835  0.00  0.00    +0.000 OA
ATOM     23  H   UNL     1      47.359   6.715  15.991  0.00  0.00    +0.000 HD
BRANCH  21  24
ATOM     24  C   UNL     1      49.180   6.471  17.786  0.00  0.00    +0.000 A 
ATOM     25  C   UNL     1      49.644   5.333  18.435  0.00  0.00    +0.000 A 
ATOM     26  S   UNL     1      49.350   5.338  20.115  0.00  0.00    +0.000 S 
ATOM     27  C   UNL     1      48.555   6.839  20.026  0.00  0.00    +0.000 A 
ATOM     28  N   UNL     1      48.008   7.409  21.132  0.00  0.00    +0.000 NA
ATOM     29  C   UNL     1      47.405   8.531  20.912  0.00  0.00    +0.000 A 
ATOM     30  N   UNL     1      47.312   9.141  19.688  0.00  0.00    +0.000 N 
ATOM     31  C   UNL     1      47.889   8.624  18.551  0.00  0.00    +0.000 A 
ATOM     32  O   UNL     1      47.857   9.226  17.485  0.00  0.00    +0.000 OA
ATOM     33  C   UNL     1      48.545   7.346  18.739  0.00  0.00    +0.000 A 
ATOM     34  H   UNL     1      46.845  10.029  19.585  0.00  0.00    +0.000 HD
ENDBRANCH  21  24
ENDBRANCH   2  20
TORSDOF 6
ENDMDL
MODEL 3
REMARK VINA RESULT:    -7.703      1.189      1.299
REMARK INTER + INTRA:         -11.612
REMARK INTER:                 -10.665
REMARK INTRA:                  -0.948
REMARK UNBOUND:                -1.208
REMARK  Name = 
REMARK  7 active torsions:
REMARK  status: ('A' for Active; 'I' for Inactive)
REMARK    1  A    between atoms: C_1  and  C_2
REMARK    2  A    between atoms: C_2  and  N_3
REMARK    3  A    between atoms: C_2  and  C_16
REMARK    4  A    between atoms: C_4  and  C_6
REMARK    5  A    between atoms: C_19  and  C_20
REMARK    6  A    between atoms: C_20  and  N_21
REMARK    7  A    between atoms: C_22  and  C_24
REMARK                            x       y       z     vdW  Elec       q    Type
REMARK                         _______ _______ _______ _____ _____    ______ ____
ROOT
ATOM      1  C   UNL     1      48.232   9.472  13.646  0.00  0.00    +0.000 C 
ATOM      2  C   UNL     1      48.345   8.004  14.077  0.00  0.00    +0.000 C 
ENDROOT
BRANCH   2   3
ATOM      3  C   UNL     1      47.249   7.219  13.361  0.00  0.00    +0.000 A 
ATOM      4  C   UNL     1      47.231   5.818  13.450  0.00  0.00    +0.000 A 
ATOM      5  C   UNL     1      46.331   5.060  12.692  0.00  0.00    +0.000 A 
ATOM      6  C   UNL     1      45.429   5.685  11.823  0.00  0.00    +0.000 A 
ATOM      7  C   UNL     1      45.414   7.078  11.773  0.00  0.00    +0.000 A 
ATOM      8  F   UNL     1      44.545   7.709  10.970  0.00  0.00    +0.000 F 
ATOM      9  C   UNL     1      46.314   7.842  12.518  0.00  0.00    +0.000 A 
BRANCH   6  10
ATOM     10  C   UNL     1      44.514   4.871  10.953  0.00  0.00    +0.000 C 
BRANCH  10  11
ATOM     11  N   UNL     1      45.197   4.304   9.820  0.00  0.00    +0.000 N 
ATOM     12  C   UNL     1      44.904   3.064   9.303  0.00  0.00    +0.000 C 
ATOM     13  O   UNL     1      44.009   2.351   9.750  0.00  0.00    +0.000 OA
ATOM     14  H   UNL     1      45.913   4.849   9.351  0.00  0.00    +0.000 HD
BRANCH  12  15
ATOM     15  C   UNL     1      45.756   2.682   8.195  0.00  0.00    +0.000 A 
ATOM     16  C   UNL     1      46.054   3.322   7.007  0.00  0.00    +0.000 A 
ATOM     17  C   UNL     1      46.921   2.467   6.287  0.00  0.00    +0.000 A 
ATOM     18  C   UNL     1      47.102   1.354   7.074  0.00  0.00    +0.000 A 
ATOM     19  O   UNL     1      46.409   1.474   8.235  0.00  0.00    +0.000 OA
ENDBRANCH  12  15
ENDBRANCH  10  11
ENDBRANCH   6  10
ENDBRANCH   2   3
BRANCH   2  20
ATOM     20  N   UNL     1      48.271   7.842  15.521  0.00  0.00    +0.000 N 
ATOM     21  C   UNL     1      49.190   7.104  16.231  0.00  0.00    +0.000 C 
ATOM     22  O   UNL     1      50.151   6.553  15.702  0.00  0.00    +0.000 OA
ATOM     23  H   UNL     1      47.348   7.944  15.934  0.00  0.00    +0.000 HD
BRANCH  21  24
ATOM     24  C   UNL     1      49.005   7.058  17.685  0.00  0.00    +0.000 A 
ATOM     25  C   UNL     1      49.032   8.238  18.419  0.00  0.00    +0.000 A 
ATOM     26  S   UNL     1      48.788   8.007  20.091  0.00  0.00    +0.000 S 
ATOM     27  C   UNL     1      48.682   6.320  19.898  0.00  0.00    +0.000 A 
ATOM     28  N   UNL     1      48.514   5.501  20.970  0.00  0.00    +0.000 NA
ATOM     29  C   UNL     1      48.485   4.242  20.680  0.00  0.00    +0.000 A 
ATOM     30  N   UNL     1      48.593   3.729  19.414  0.00  0.00    +0.000 N 
ATOM     31  C   UNL     1      48.717   4.521  18.296  0.00  0.00    +0.000 A 
ATOM     32  O   UNL     1      48.736   4.042  17.168  0.00  0.00    +0.000 OA
ATOM     33  C   UNL     1      48.794   5.942  18.573  0.00  0.00    +0.000 A 
ATOM     34  H   UNL     1      48.541   2.735  19.251  0.00  0.00    +0.000 HD
ENDBRANCH  21  24
ENDBRANCH   2  20
TORSDOF 6
ENDMDL
MODEL 4
REMARK VINA RESULT:    -7.609      2.402      4.121
REMARK INTER + INTRA:         -11.485
REMARK INTER:                 -10.157
REMARK INTRA:                  -1.328
REMARK UNBOUND:                -1.208
REMARK  Name = 
REMARK  7 active torsions:
REMARK  status: ('A' for Active; 'I' for Inactive)
REMARK    1  A    between atoms: C_1  and  C_2
REMARK    2  A    between atoms: C_2  and  N_3
REMARK    3  A    between atoms: C_2  and  C_16
REMARK    4  A    between atoms: C_4  and  C_6
REMARK    5  A    between atoms: C_19  and  C_20
REMARK    6  A    between atoms: C_20  and  N_21
REMARK    7  A    between atoms: C_22  and  C_24
REMARK                            x       y       z     vdW  Elec       q    Type
REMARK                         _______ _______ _______ _____ _____    ______ ____
ROOT
ATOM      1  C   UNL     1      47.484   3.837  15.646  0.00  0.00    +0.000 C 
ATOM      2  C   UNL     1      47.116   5.170  14.979  0.00  0.00    +0.000 C 
ENDROOT
BRANCH   2   3
ATOM      3  C   UNL     1      46.173   4.868  13.818  0.00  0.00    +0.000 A 
ATOM      4  C   UNL     1      46.107   3.563  13.302  0.00  0.00    +0.000 A 
ATOM      5  C   UNL     1      45.365   3.281  12.150  0.00  0.00    +0.000 A 
ATOM      6  C   UNL     1      44.673   4.299  11.480  0.00  0.00    +0.000 A 
ATOM      7  C   UNL     1      44.700   5.584  12.022  0.00  0.00    +0.000 A 
ATOM      8  F   UNL     1      44.027   6.576  11.420  0.00  0.00    +0.000 F 
ATOM      9  C   UNL     1      45.444   5.876  13.165  0.00  0.00    +0.000 A 
BRANCH   6  10
ATOM     10  C   UNL     1      43.939   4.014  10.202  0.00  0.00    +0.000 C 
BRANCH  10  11
ATOM     11  N   UNL     1      44.764   3.337   9.236  0.00  0.00    +0.000 N 
ATOM     12  C   UNL     1      45.637   3.990   8.397  0.00  0.00    +0.000 C 
ATOM     13  O   UNL     1      45.806   5.205   8.429  0.00  0.00    +0.000 OA
ATOM     14  H   UNL     1      44.731   2.325   9.181  0.00  0.00    +0.000 HD
BRANCH  12  15
ATOM     15  C   UNL     1      46.323   3.107   7.475  0.00  0.00    +0.000 A 
ATOM     16  C   UNL     1      46.708   3.279   6.159  0.00  0.00    +0.000 A 
ATOM     17  C   UNL     1      47.314   2.069   5.748  0.00  0.00    +0.000 A 
ATOM     18  C   UNL     1      47.263   1.227   6.834  0.00  0.00    +0.000 A 
ATOM     19  O   UNL     1      46.673   1.844   7.888  0.00  0.00    +0.000 OA
ENDBRANCH  12  15
ENDBRANCH  10  11
ENDBRANCH   6  10
ENDBRANCH   2   3
BRANCH   2  20
ATOM     20  N   UNL     1      48.287   5.914  14.545  0.00  0.00    +0.000 N 
ATOM     21  C   UNL     1      48.934   6.816  15.359  0.00  0.00    +0.000 C 
ATOM     22  O   UNL     1      48.586   7.036  16.515  0.00  0.00    +0.000 OA
ATOM     23  H   UNL     1      48.382   6.052  13.543  0.00  0.00    +0.000 HD
BRANCH  21  24
ATOM     24  C   UNL     1      50.121   7.467  14.795  0.00  0.00    +0.000 A 
ATOM     25  C   UNL     1      51.309   7.473  15.516  0.00  0.00    +0.000 A 
ATOM     26  S   UNL     1      52.591   8.259  14.713  0.00  0.00    +0.000 S 
ATOM     27  C   UNL     1      51.593   8.657  13.394  0.00  0.00    +0.000 A 
ATOM     28  N   UNL     1      52.069   9.384  12.349  0.00  0.00    +0.000 NA
ATOM     29  C   UNL     1      51.193   9.642  11.435  0.00  0.00    +0.000 A 
ATOM     30  N   UNL     1      49.887   9.225  11.464  0.00  0.00    +0.000 N 
ATOM     31  C   UNL     1      49.374   8.450  12.479  0.00  0.00    +0.000 A 
ATOM     32  O   UNL     1      48.225   8.027  12.445  0.00  0.00    +0.000 OA
ATOM     33  C   UNL     1      50.310   8.166  13.549  0.00  0.00    +0.000 A 
ATOM     34  H   UNL     1      49.256   9.442  10.708  0.00  0.00    +0.000 HD
ENDBRANCH  21  24
ENDBRANCH   2  20
TORSDOF 6
ENDMDL
MODEL 5
REMARK VINA RESULT:    -7.429      4.104      8.456
REMARK INTER + INTRA:         -11.242
REMARK INTER:                  -9.942
REMARK INTRA:                  -1.300
REMARK UNBOUND:                -1.208
REMARK  Name = 
REMARK  7 active torsions:
REMARK  status: ('A' for Active; 'I' for Inactive)
REMARK    1  A    between atoms: C_1  and  C_2
REMARK    2  A    between atoms: C_2  and  N_3
REMARK    3  A    between atoms: C_2  and  C_16
REMARK    4  A    between atoms: C_4  and  C_6
REMARK    5  A    between atoms: C_19  and  C_20
REMARK    6  A    between atoms: C_20  and  N_21
REMARK    7  A    between atoms: C_22  and  C_24
REMARK                            x       y       z     vdW  Elec       q    Type
REMARK                         _______ _______ _______ _____ _____    ______ ____
ROOT
ATOM      1  C   UNL     1      49.336   7.356  13.103  0.00  0.00    +0.000 C 
ATOM      2  C   UNL     1      48.003   6.860  13.681  0.00  0.00    +0.000 C 
ENDROOT
BRANCH   2   3
ATOM      3  C   UNL     1      48.296   6.183  15.018  0.00  0.00    +0.000 A 
ATOM      4  C   UNL     1      49.400   6.601  15.777  0.00  0.00    +0.000 A 
ATOM      5  C   UNL     1      49.782   5.911  16.933  0.00  0.00    +0.000 A 
ATOM      6  C   UNL     1      49.072   4.781  17.356  0.00  0.00    +0.000 A 
ATOM      7  C   UNL     1      47.946   4.397  16.628  0.00  0.00    +0.000 A 
ATOM      8  F   UNL     1      47.227   3.335  17.020  0.00  0.00    +0.000 F 
ATOM      9  C   UNL     1      47.562   5.074  15.469  0.00  0.00    +0.000 A 
BRANCH   6  10
ATOM     10  C   UNL     1      49.524   3.994  18.552  0.00  0.00    +0.000 C 
BRANCH  10  11
ATOM     11  N   UNL     1      50.835   3.426  18.370  0.00  0.00    +0.000 N 
ATOM     12  C   UNL     1      51.075   2.311  17.601  0.00  0.00    +0.000 C 
ATOM     13  O   UNL     1      50.191   1.727  16.981  0.00  0.00    +0.000 OA
ATOM     14  H   UNL     1      51.633   3.879  18.800  0.00  0.00    +0.000 HD
BRANCH  12  15
ATOM     15  C   UNL     1      52.463   1.893  17.607  0.00  0.00    +0.000 A 
ATOM     16  C   UNL     1      53.626   2.586  17.883  0.00  0.00    +0.000 A 
ATOM     17  C   UNL     1      54.696   1.678  17.701  0.00  0.00    +0.000 A 
ATOM     18  C   UNL     1      54.127   0.485  17.323  0.00  0.00    +0.000 A 
ATOM     19  O   UNL     1      52.775   0.598  17.270  0.00  0.00    +0.000 OA
ENDBRANCH  12  15
ENDBRANCH  10  11
ENDBRANCH   6  10
ENDBRANCH   2   3
BRANCH   2  20
ATOM     20  N   UNL     1      47.299   5.974  12.769  0.00  0.00    +0.000 N 
ATOM     21  C   UNL     1      46.326   6.422  11.906  0.00  0.00    +0.000 C 
ATOM     22  O   UNL     1      46.003   7.604  11.824  0.00  0.00    +0.000 OA
ATOM     23  H   UNL     1      47.252   4.996  13.044  0.00  0.00    +0.000 HD
BRANCH  21  24
ATOM     24  C   UNL     1      45.726   5.417  11.021  0.00  0.00    +0.000 A 
ATOM     25  C   UNL     1      45.843   5.557   9.643  0.00  0.00    +0.000 A 
ATOM     26  S   UNL     1      45.101   4.298   8.765  0.00  0.00    +0.000 S 
ATOM     27  C   UNL     1      44.561   3.547  10.192  0.00  0.00    +0.000 A 
ATOM     28  N   UNL     1      43.809   2.415  10.147  0.00  0.00    +0.000 NA
ATOM     29  C   UNL     1      43.440   1.973  11.304  0.00  0.00    +0.000 A 
ATOM     30  N   UNL     1      43.768   2.552  12.503  0.00  0.00    +0.000 N 
ATOM     31  C   UNL     1      44.563   3.671  12.598  0.00  0.00    +0.000 A 
ATOM     32  O   UNL     1      44.904   4.125  13.683  0.00  0.00    +0.000 OA
ATOM     33  C   UNL     1      44.972   4.227  11.323  0.00  0.00    +0.000 A 
ATOM     34  H   UNL     1      43.465   2.146  13.375  0.00  0.00    +0.000 HD
ENDBRANCH  21  24
ENDBRANCH   2  20
TORSDOF 6
ENDMDL
MODEL 6
REMARK VINA RESULT:    -6.915      3.954      5.588
REMARK INTER + INTRA:         -10.548
REMARK INTER:                  -9.339
REMARK INTRA:                  -1.208
REMARK UNBOUND:                -1.208
REMARK  Name = 
REMARK  7 active torsions:
REMARK  status: ('A' for Active; 'I' for Inactive)
REMARK    1  A    between atoms: C_1  and  C_2
REMARK    2  A    between atoms: C_2  and  N_3
REMARK    3  A    between atoms: C_2  and  C_16
REMARK    4  A    between atoms: C_4  and  C_6
REMARK    5  A    between atoms: C_19  and  C_20
REMARK    6  A    between atoms: C_20  and  N_21
REMARK    7  A    between atoms: C_22  and  C_24
REMARK                            x       y       z     vdW  Elec       q    Type
REMARK                         _______ _______ _______ _____ _____    ______ ____
ROOT
ATOM      1  C   UNL     1      48.241   8.345  15.204  0.00  0.00    +0.000 C 
ATOM      2  C   UNL     1      47.906   8.957  13.836  0.00  0.00    +0.000 C 
ENDROOT
BRANCH   2   3
ATOM      3  C   UNL     1      46.858   8.070  13.170  0.00  0.00    +0.000 A 
ATOM      4  C   UNL     1      47.063   6.682  13.111  0.00  0.00    +0.000 A 
ATOM      5  C   UNL     1      46.198   5.857  12.384  0.00  0.00    +0.000 A 
ATOM      6  C   UNL     1      45.107   6.399  11.694  0.00  0.00    +0.000 A 
ATOM      7  C   UNL     1      44.876   7.771  11.795  0.00  0.00    +0.000 A 
ATOM      8  F   UNL     1      43.825   8.319  11.168  0.00  0.00    +0.000 F 
ATOM      9  C   UNL     1      45.738   8.603  12.510  0.00  0.00    +0.000 A 
BRANCH   6  10
ATOM     10  C   UNL     1      44.222   5.526  10.852  0.00  0.00    +0.000 C 
BRANCH  10  11
ATOM     11  N   UNL     1      44.962   4.785   9.865  0.00  0.00    +0.000 N 
ATOM     12  C   UNL     1      44.718   3.464   9.572  0.00  0.00    +0.000 C 
ATOM     13  O   UNL     1      43.823   2.817  10.109  0.00  0.00    +0.000 OA
ATOM     14  H   UNL     1      45.682   5.258   9.331  0.00  0.00    +0.000 HD
BRANCH  12  15
ATOM     15  C   UNL     1      45.622   2.914   8.581  0.00  0.00    +0.000 A 
ATOM     16  C   UNL     1      46.216   3.481   7.470  0.00  0.00    +0.000 A 
ATOM     17  C   UNL     1      46.979   2.464   6.850  0.00  0.00    +0.000 A 
ATOM     18  C   UNL     1      46.807   1.335   7.615  0.00  0.00    +0.000 A 
ATOM     19  O   UNL     1      45.995   1.595   8.671  0.00  0.00    +0.000 OA
ENDBRANCH  12  15
ENDBRANCH  10  11
ENDBRANCH   6  10
ENDBRANCH   2   3
BRANCH   2  20
ATOM     20  N   UNL     1      49.084   9.124  13.000  0.00  0.00    +0.000 N 
ATOM     21  C   UNL     1      49.162  10.081  12.015  0.00  0.00    +0.000 C 
ATOM     22  O   UNL     1      48.257  10.878  11.789  0.00  0.00    +0.000 OA
ATOM     23  H   UNL     1      49.671   8.302  12.888  0.00  0.00    +0.000 HD
BRANCH  21  24
ATOM     24  C   UNL     1      50.426  10.152  11.274  0.00  0.00    +0.000 A 
ATOM     25  C   UNL     1      50.948  11.391  10.922  0.00  0.00    +0.000 A 
ATOM     26  S   UNL     1      52.426  11.293  10.077  0.00  0.00    +0.000 S 
ATOM     27  C   UNL     1      52.398   9.593  10.115  0.00  0.00    +0.000 A 
ATOM     28  N   UNL     1      53.377   8.863   9.517  0.00  0.00    +0.000 NA
ATOM     29  C   UNL     1      53.210   7.584   9.593  0.00  0.00    +0.000 A 
ATOM     30  N   UNL     1      52.161   6.968  10.226  0.00  0.00    +0.000 N 
ATOM     31  C   UNL     1      51.173   7.666  10.883  0.00  0.00    +0.000 A 
ATOM     32  O   UNL     1      50.288   7.092  11.505  0.00  0.00    +0.000 OA
ATOM     33  C   UNL     1      51.295   9.107  10.793  0.00  0.00    +0.000 A 
ATOM     34  H   UNL     1      52.099   5.963  10.268  0.00  0.00    +0.000 HD
ENDBRANCH  21  24
ENDBRANCH   2  20
TORSDOF 6
ENDMDL
MODEL 7
REMARK VINA RESULT:    -6.094      6.242      8.137
REMARK INTER + INTRA:          -9.439
REMARK INTER:                  -8.228
REMARK INTRA:                  -1.211
REMARK UNBOUND:                -1.208
REMARK  Name = 
REMARK  7 active torsions:
REMARK  status: ('A' for Active; 'I' for Inactive)
REMARK    1  A    between atoms: C_1  and  C_2
REMARK    2  A    between atoms: C_2  and  N_3
REMARK    3  A    between atoms: C_2  and  C_16
REMARK    4  A    between atoms: C_4  and  C_6
REMARK    5  A    between atoms: C_19  and  C_20
REMARK    6  A    between atoms: C_20  and  N_21
REMARK    7  A    between atoms: C_22  and  C_24
REMARK                            x       y       z     vdW  Elec       q    Type
REMARK                         _______ _______ _______ _____ _____    ______ ____
ROOT
ATOM      1  C   UNL     1      48.438  10.547  11.423  0.00  0.00    +0.000 C 
ATOM      2  C   UNL     1      49.060   9.310  12.086  0.00  0.00    +0.000 C 
ENDROOT
BRANCH   2   3
ATOM      3  C   UNL     1      50.376   9.009  11.374  0.00  0.00    +0.000 A 
ATOM      4  C   UNL     1      51.155  10.069  10.884  0.00  0.00    +0.000 A 
ATOM      5  C   UNL     1      52.291   9.828  10.103  0.00  0.00    +0.000 A 
ATOM      6  C   UNL     1      52.673   8.518   9.787  0.00  0.00    +0.000 A 
ATOM      7  C   UNL     1      51.926   7.465  10.316  0.00  0.00    +0.000 A 
ATOM      8  F   UNL     1      52.280   6.198  10.054  0.00  0.00    +0.000 F 
ATOM      9  C   UNL     1      50.788   7.697  11.088  0.00  0.00    +0.000 A 
BRANCH   6  10
ATOM     10  C   UNL     1      53.846   8.258   8.887  0.00  0.00    +0.000 C 
BRANCH  10  11
ATOM     11  N   UNL     1      53.632   8.752   7.552  0.00  0.00    +0.000 N 
ATOM     12  C   UNL     1      52.924   8.062   6.595  0.00  0.00    +0.000 C 
ATOM     13  O   UNL     1      52.389   6.978   6.816  0.00  0.00    +0.000 OA
ATOM     14  H   UNL     1      53.990   9.666   7.300  0.00  0.00    +0.000 HD
BRANCH  12  15
ATOM     15  C   UNL     1      52.883   8.731   5.311  0.00  0.00    +0.000 A 
ATOM     16  C   UNL     1      52.271   9.903   4.908  0.00  0.00    +0.000 A 
ATOM     17  C   UNL     1      52.541  10.053   3.528  0.00  0.00    +0.000 A 
ATOM     18  C   UNL     1      53.300   8.965   3.165  0.00  0.00    +0.000 A 
ATOM     19  O   UNL     1      53.521   8.161   4.236  0.00  0.00    +0.000 OA
ENDBRANCH  12  15
ENDBRANCH  10  11
ENDBRANCH   6  10
ENDBRANCH   2   3
BRANCH   2  20
ATOM     20  N   UNL     1      48.164   8.165  12.074  0.00  0.00    +0.000 N 
ATOM     21  C   UNL     1      47.506   7.728  13.201  0.00  0.00    +0.000 C 
ATOM     22  O   UNL     1      47.607   8.288  14.288  0.00  0.00    +0.000 OA
ATOM     23  H   UNL     1      48.330   7.476  11.345  0.00  0.00    +0.000 HD
BRANCH  21  24
ATOM     24  C   UNL     1      46.609   6.580  13.028  0.00  0.00    +0.000 A 
ATOM     25  C   UNL     1      46.981   5.336  13.526  0.00  0.00    +0.000 A 
ATOM     26  S   UNL     1      45.820   4.118  13.251  0.00  0.00    +0.000 S 
ATOM     27  C   UNL     1      44.803   5.198  12.419  0.00  0.00    +0.000 A 
ATOM     28  N   UNL     1      43.632   4.777  11.872  0.00  0.00    +0.000 NA
ATOM     29  C   UNL     1      42.978   5.695  11.241  0.00  0.00    +0.000 A 
ATOM     30  N   UNL     1      43.381   7.000  11.120  0.00  0.00    +0.000 N 
ATOM     31  C   UNL     1      44.535   7.480  11.696  0.00  0.00    +0.000 A 
ATOM     32  O   UNL     1      44.835   8.666  11.637  0.00  0.00    +0.000 OA
ATOM     33  C   UNL     1      45.324   6.478  12.383  0.00  0.00    +0.000 A 
ATOM     34  H   UNL     1      42.814   7.675  10.630  0.00  0.00    +0.000 HD
ENDBRANCH  21  24
ENDBRANCH   2  20
TORSDOF 6
ENDMDL
MODEL 8
REMARK VINA RESULT:    -5.885      5.170      6.675
REMARK INTER + INTRA:          -9.157
REMARK INTER:                  -8.201
REMARK INTRA:                  -0.956
REMARK UNBOUND:                -1.208
REMARK  Name = 
REMARK  7 active torsions:
REMARK  status: ('A' for Active; 'I' for Inactive)
REMARK    1  A    between atoms: C_1  and  C_2
REMARK    2  A    between atoms: C_2  and  N_3
REMARK    3  A    between atoms: C_2  and  C_16
REMARK    4  A    between atoms: C_4  and  C_6
REMARK    5  A    between atoms: C_19  and  C_20
REMARK    6  A    between atoms: C_20  and  N_21
REMARK    7  A    between atoms: C_22  and  C_24
REMARK                            x       y       z     vdW  Elec       q    Type
REMARK                         _______ _______ _______ _____ _____    ______ ____
ROOT
ATOM      1  C   UNL     1      50.469  10.767  12.993  0.00  0.00    +0.000 C 
ATOM      2  C   UNL     1      50.300   9.788  11.823  0.00  0.00    +0.000 C 
ENDROOT
BRANCH   2   3
ATOM      3  C   UNL     1      48.927   9.134  11.954  0.00  0.00    +0.000 A 
ATOM      4  C   UNL     1      48.799   7.750  11.749  0.00  0.00    +0.000 A 
ATOM      5  C   UNL     1      47.540   7.141  11.720  0.00  0.00    +0.000 A 
ATOM      6  C   UNL     1      46.376   7.901  11.889  0.00  0.00    +0.000 A 
ATOM      7  C   UNL     1      46.508   9.266  12.141  0.00  0.00    +0.000 A 
ATOM      8  F   UNL     1      45.414  10.018  12.334  0.00  0.00    +0.000 F 
ATOM      9  C   UNL     1      47.758   9.884  12.164  0.00  0.00    +0.000 A 
BRANCH   6  10
ATOM     10  C   UNL     1      45.021   7.262  11.781  0.00  0.00    +0.000 C 
BRANCH  10  11
ATOM     11  N   UNL     1      45.008   6.156  10.859  0.00  0.00    +0.000 N 
ATOM     12  C   UNL     1      44.389   4.958  11.125  0.00  0.00    +0.000 C 
ATOM     13  O   UNL     1      43.767   4.745  12.162  0.00  0.00    +0.000 OA
ATOM     14  H   UNL     1      45.449   6.265   9.953  0.00  0.00    +0.000 HD
BRANCH  12  15
ATOM     15  C   UNL     1      44.552   3.976  10.071  0.00  0.00    +0.000 A 
ATOM     16  C   UNL     1      44.528   2.595  10.096  0.00  0.00    +0.000 A 
ATOM     17  C   UNL     1      44.778   2.157   8.774  0.00  0.00    +0.000 A 
ATOM     18  C   UNL     1      44.941   3.294   8.018  0.00  0.00    +0.000 A 
ATOM     19  O   UNL     1      44.800   4.402   8.789  0.00  0.00    +0.000 OA
ENDBRANCH  12  15
ENDBRANCH  10  11
ENDBRANCH   6  10
ENDBRANCH   2   3
BRANCH   2  20
ATOM     20  N   UNL     1      51.366   8.801  11.767  0.00  0.00    +0.000 N 
ATOM     21  C   UNL     1      52.365   8.844  10.822  0.00  0.00    +0.000 C 
ATOM     22  O   UNL     1      52.443   9.731   9.977  0.00  0.00    +0.000 OA
ATOM     23  H   UNL     1      51.154   7.892  12.168  0.00  0.00    +0.000 HD
BRANCH  21  24
ATOM     24  C   UNL     1      53.392   7.800  10.911  0.00  0.00    +0.000 A 
ATOM     25  C   UNL     1      54.208   7.733  12.034  0.00  0.00    +0.000 A 
ATOM     26  S   UNL     1      55.336   6.455  11.981  0.00  0.00    +0.000 S 
ATOM     27  C   UNL     1      54.803   5.976  10.439  0.00  0.00    +0.000 A 
ATOM     28  N   UNL     1      55.393   4.940   9.784  0.00  0.00    +0.000 NA
ATOM     29  C   UNL     1      54.911   4.709   8.608  0.00  0.00    +0.000 A 
ATOM     30  N   UNL     1      53.881   5.408   8.034  0.00  0.00    +0.000 N 
ATOM     31  C   UNL     1      53.225   6.432   8.677  0.00  0.00    +0.000 A 
ATOM     32  O   UNL     1      52.259   6.992   8.173  0.00  0.00    +0.000 OA
ATOM     33  C   UNL     1      53.756   6.756   9.986  0.00  0.00    +0.000 A 
ATOM     34  H   UNL     1      53.535   5.164   7.118  0.00  0.00    +0.000 HD
ENDBRANCH  21  24
ENDBRANCH   2  20
TORSDOF 6
ENDMDL
MODEL 9
REMARK VINA RESULT:    -5.869      5.936      8.098
REMARK INTER + INTRA:          -9.135
REMARK INTER:                  -8.031
REMARK INTRA:                  -1.104
REMARK UNBOUND:                -1.208
REMARK  Name = 
REMARK  7 active torsions:
REMARK  status: ('A' for Active; 'I' for Inactive)
REMARK    1  A    between atoms: C_1  and  C_2
REMARK    2  A    between atoms: C_2  and  N_3
REMARK    3  A    between atoms: C_2  and  C_16
REMARK    4  A    between atoms: C_4  and  C_6
REMARK    5  A    between atoms: C_19  and  C_20
REMARK    6  A    between atoms: C_20  and  N_21
REMARK    7  A    between atoms: C_22  and  C_24
REMARK                            x       y       z     vdW  Elec       q    Type
REMARK                         _______ _______ _______ _____ _____    ______ ____
ROOT
ATOM      1  C   UNL     1      52.682   8.420  12.876  0.00  0.00    +0.000 C 
ATOM      2  C   UNL     1      51.693   8.938  11.822  0.00  0.00    +0.000 C 
ENDROOT
BRANCH   2   3
ATOM      3  C   UNL     1      50.286   8.554  12.272  0.00  0.00    +0.000 A 
ATOM      4  C   UNL     1      49.442   7.861  11.389  0.00  0.00    +0.000 A 
ATOM      5  C   UNL     1      48.103   7.620  11.713  0.00  0.00    +0.000 A 
ATOM      6  C   UNL     1      47.571   8.072  12.927  0.00  0.00    +0.000 A 
ATOM      7  C   UNL     1      48.422   8.716  13.824  0.00  0.00    +0.000 A 
ATOM      8  F   UNL     1      47.951   9.138  15.007  0.00  0.00    +0.000 F 
ATOM      9  C   UNL     1      49.757   8.969  13.506  0.00  0.00    +0.000 A 
BRANCH   6  10
ATOM     10  C   UNL     1      46.115   7.881  13.244  0.00  0.00    +0.000 C 
BRANCH  10  11
ATOM     11  N   UNL     1      45.517   6.831  12.462  0.00  0.00    +0.000 N 
ATOM     12  C   UNL     1      45.484   5.516  12.862  0.00  0.00    +0.000 C 
ATOM     13  O   UNL     1      45.937   5.136  13.939  0.00  0.00    +0.000 OA
ATOM     14  H   UNL     1      45.068   7.064  11.584  0.00  0.00    +0.000 HD
BRANCH  12  15
ATOM     15  C   UNL     1      44.877   4.630  11.889  0.00  0.00    +0.000 A 
ATOM     16  C   UNL     1      44.389   3.342  12.004  0.00  0.00    +0.000 A 
ATOM     17  C   UNL     1      43.940   2.959  10.718  0.00  0.00    +0.000 A 
ATOM     18  C   UNL     1      44.180   4.032   9.892  0.00  0.00    +0.000 A 
ATOM     19  O   UNL     1      44.740   5.053  10.589  0.00  0.00    +0.000 OA
ENDBRANCH  12  15
ENDBRANCH  10  11
ENDBRANCH   6  10
ENDBRANCH   2   3
BRANCH   2  20
ATOM     20  N   UNL     1      51.990   8.436  10.490  0.00  0.00    +0.000 N 
ATOM     21  C   UNL     1      52.922   9.027   9.668  0.00  0.00    +0.000 C 
ATOM     22  O   UNL     1      53.587  10.000  10.009  0.00  0.00    +0.000 OA
ATOM     23  H   UNL     1      51.249   7.908  10.037  0.00  0.00    +0.000 HD
BRANCH  21  24
ATOM     24  C   UNL     1      53.138   8.390   8.364  0.00  0.00    +0.000 A 
ATOM     25  C   UNL     1      53.047   9.151   7.204  0.00  0.00    +0.000 A 
ATOM     26  S   UNL     1      53.338   8.259   5.780  0.00  0.00    +0.000 S 
ATOM     27  C   UNL     1      53.551   6.819   6.660  0.00  0.00    +0.000 A 
ATOM     28  N   UNL     1      53.793   5.640   6.026  0.00  0.00    +0.000 NA
ATOM     29  C   UNL     1      53.899   4.623   6.816  0.00  0.00    +0.000 A 
ATOM     30  N   UNL     1      53.800   4.680   8.182  0.00  0.00    +0.000 N 
ATOM     31  C   UNL     1      53.602   5.856   8.867  0.00  0.00    +0.000 A 
ATOM     32  O   UNL     1      53.593   5.892  10.092  0.00  0.00    +0.000 OA
ATOM     33  C   UNL     1      53.438   7.022   8.022  0.00  0.00    +0.000 A 
ATOM     34  H   UNL     1      53.913   3.851   8.745  0.00  0.00    +0.000 HD
ENDBRANCH  21  24
ENDBRANCH   2  20
TORSDOF 6
ENDMDL
