MODEL 1
REMARK VINA RESULT:    -7.379      0.000      0.000
REMARK INTER + INTRA:         -11.327
REMARK INTER:                 -10.183
REMARK INTRA:                  -1.143
REMARK UNBOUND:                -1.143
REMARK  Name = 
REMARK  8 active torsions:
REMARK  status: ('A' for Active; 'I' for Inactive)
REMARK    1  A    between atoms: C_1  and  C_2
REMARK    2  A    between atoms: C_2  and  C_3
REMARK    3  A    between atoms: C_2  and  C_15
REMARK    4  A    between atoms: C_3  and  O_4
REMARK    5  A    between atoms: O_4  and  C_5
REMARK    6  A    between atoms: C_8  and  C_9
REMARK    7  A    between atoms: C_19  and  C_20
REMARK    8  A    between atoms: C_20  and  O_21
REMARK                            x       y       z     vdW  Elec       q    Type
REMARK                         _______ _______ _______ _____ _____    ______ ____
ROOT
ATOM      1  O   UNL     1      43.507   4.913  12.620  0.00  0.00    +0.000 OA
ENDROOT
BRANCH   1   2
ATOM      2  C   UNL     1      44.784   5.335  12.888  0.00  0.00    +0.000 A 
ATOM      3  C   UNL     1      45.782   4.571  13.504  0.00  0.00    +0.000 A 
ATOM      4  C   UNL     1      47.055   5.103  13.715  0.00  0.00    +0.000 A 
ATOM      5  C   UNL     1      47.373   6.411  13.304  0.00  0.00    +0.000 A 
ATOM      6  C   UNL     1      46.369   7.181  12.704  0.00  0.00    +0.000 A 
ATOM      7 CL   UNL     1      46.593   8.824  12.204  0.00  0.00    +0.000 Cl
ATOM      8  C   UNL     1      45.087   6.642  12.502  0.00  0.00    +0.000 A 
BRANCH   5   9
ATOM      9  C   UNL     1      48.769   6.870  13.557  0.00  0.00    +0.000 C 
ATOM     10  N   UNL     1      49.634   6.945  12.501  0.00  0.00    +0.000 N 
ATOM     11  O   UNL     1      49.154   7.139  14.692  0.00  0.00    +0.000 OA
ATOM     12  H   UNL     1      49.345   6.814  11.541  0.00  0.00    +0.000 HD
ATOM     13  H   UNL     1      50.558   7.320  12.675  0.00  0.00    +0.000 HD
ENDBRANCH   5   9
ENDBRANCH   1   2
BRANCH   1  14
ATOM     14  C   UNL     1      43.185   4.737  11.235  0.00  0.00    +0.000 C 
BRANCH  14  16
ATOM     15  C   UNL     1      43.495   2.214  11.622  0.00  0.00    +0.000 C 
ATOM     16  C   UNL     1      43.669   3.405  10.732  0.00  0.00    +0.000 C 
BRANCH  16  17
ATOM     17  C   UNL     1      44.674   3.377   9.649  0.00  0.00    +0.000 A 
ATOM     18  C   UNL     1      45.137   4.573   9.085  0.00  0.00    +0.000 A 
ATOM     19  C   UNL     1      46.067   4.561   8.041  0.00  0.00    +0.000 A 
ATOM     20  C   UNL     1      46.572   3.352   7.563  0.00  0.00    +0.000 A 
ATOM     21  C   UNL     1      46.163   2.143   8.133  0.00  0.00    +0.000 A 
ATOM     22  C   UNL     1      45.199   2.168   9.160  0.00  0.00    +0.000 A 
BRANCH  21  23
ATOM     23  C   UNL     1      46.726   0.831   7.649  0.00  0.00    +0.000 C 
BRANCH  23  24
ATOM     24  O   UNL     1      47.934   1.040   6.929  0.00  0.00    +0.000 OA
ATOM     25  H   UNL     1      48.199   1.963   7.083  0.00  0.00    +0.000 HD
ENDBRANCH  23  24
ENDBRANCH  21  23
ENDBRANCH  16  17
ENDBRANCH  14  16
ENDBRANCH   1  14
TORSDOF 7
ENDMDL
MODEL 2
REMARK VINA RESULT:    -6.497      2.259      2.911
REMARK INTER + INTRA:         -10.109
REMARK INTER:                  -9.343
REMARK INTRA:                  -0.765
REMARK UNBOUND:                -1.143
REMARK  Name = 
REMARK  8 active torsions:
REMARK  status: ('A' for Active; 'I' for Inactive)
REMARK    1  A    between atoms: C_1  and  C_2
REMARK    2  A    between atoms: C_2  and  C_3
REMARK    3  A    between atoms: C_2  and  C_15
REMARK    4  A    between atoms: C_3  and  O_4
REMARK    5  A    between atoms: O_4  and  C_5
REMARK    6  A    between atoms: C_8  and  C_9
REMARK    7  A    between atoms: C_19  and  C_20
REMARK    8  A    between atoms: C_20  and  O_21
REMARK                            x       y       z     vdW  Elec       q    Type
REMARK                         _______ _______ _______ _____ _____    ______ ____
ROOT
ATOM      1  O   UNL     1      46.290   5.956  11.324  0.00  0.00    +0.000 OA
ENDROOT
BRANCH   1   2
ATOM      2  C   UNL     1      46.696   5.679  12.604  0.00  0.00    +0.000 A 
ATOM      3  C   UNL     1      46.293   4.576  13.365  0.00  0.00    +0.000 A 
ATOM      4  C   UNL     1      46.784   4.388  14.659  0.00  0.00    +0.000 A 
ATOM      5  C   UNL     1      47.703   5.291  15.225  0.00  0.00    +0.000 A 
ATOM      6  C   UNL     1      48.092   6.404  14.470  0.00  0.00    +0.000 A 
ATOM      7 CL   UNL     1      49.165   7.630  15.055  0.00  0.00    +0.000 Cl
ATOM      8  C   UNL     1      47.588   6.591  13.172  0.00  0.00    +0.000 A 
BRANCH   5   9
ATOM      9  C   UNL     1      48.180   4.982  16.604  0.00  0.00    +0.000 C 
ATOM     10  N   UNL     1      47.421   5.390  17.664  0.00  0.00    +0.000 N 
ATOM     11  O   UNL     1      49.251   4.410  16.794  0.00  0.00    +0.000 OA
ATOM     12  H   UNL     1      46.498   5.791  17.561  0.00  0.00    +0.000 HD
ATOM     13  H   UNL     1      47.722   5.118  18.592  0.00  0.00    +0.000 HD
ENDBRANCH   5   9
ENDBRANCH   1   2
BRANCH   1  14
ATOM     14  C   UNL     1      45.007   6.583  11.199  0.00  0.00    +0.000 C 
BRANCH  14  16
ATOM     15  C   UNL     1      42.671   5.602  11.636  0.00  0.00    +0.000 C 
ATOM     16  C   UNL     1      43.945   5.579  10.849  0.00  0.00    +0.000 C 
BRANCH  16  17
ATOM     17  C   UNL     1      44.335   4.358  10.113  0.00  0.00    +0.000 A 
ATOM     18  C   UNL     1      43.988   3.094  10.609  0.00  0.00    +0.000 A 
ATOM     19  C   UNL     1      44.375   1.930   9.939  0.00  0.00    +0.000 A 
ATOM     20  C   UNL     1      45.091   2.010   8.745  0.00  0.00    +0.000 A 
ATOM     21  C   UNL     1      45.417   3.257   8.201  0.00  0.00    +0.000 A 
ATOM     22  C   UNL     1      45.051   4.421   8.905  0.00  0.00    +0.000 A 
BRANCH  21  23
ATOM     23  C   UNL     1      46.161   3.358   6.894  0.00  0.00    +0.000 C 
BRANCH  23  24
ATOM     24  O   UNL     1      47.021   4.490   6.894  0.00  0.00    +0.000 OA
ATOM     25  H   UNL     1      46.456   5.275   6.989  0.00  0.00    +0.000 HD
ENDBRANCH  23  24
ENDBRANCH  21  23
ENDBRANCH  16  17
ENDBRANCH  14  16
ENDBRANCH   1  14
TORSDOF 7
ENDMDL
MODEL 3
REMARK VINA RESULT:    -6.398      1.389      1.666
REMARK INTER + INTRA:          -9.972
REMARK INTER:                  -9.513
REMARK INTRA:                  -0.459
REMARK UNBOUND:                -1.143
REMARK  Name = 
REMARK  8 active torsions:
REMARK  status: ('A' for Active; 'I' for Inactive)
REMARK    1  A    between atoms: C_1  and  C_2
REMARK    2  A    between atoms: C_2  and  C_3
REMARK    3  A    between atoms: C_2  and  C_15
REMARK    4  A    between atoms: C_3  and  O_4
REMARK    5  A    between atoms: O_4  and  C_5
REMARK    6  A    between atoms: C_8  and  C_9
REMARK    7  A    between atoms: C_19  and  C_20
REMARK    8  A    between atoms: C_20  and  O_21
REMARK                            x       y       z     vdW  Elec       q    Type
REMARK                         _______ _______ _______ _____ _____    ______ ____
ROOT
ATOM      1  O   UNL     1      44.205   5.186  12.430  0.00  0.00    +0.000 OA
ENDROOT
BRANCH   1   2
ATOM      2  C   UNL     1      45.431   5.799  12.455  0.00  0.00    +0.000 A 
ATOM      3  C   UNL     1      45.979   6.566  11.421  0.00  0.00    +0.000 A 
ATOM      4  C   UNL     1      47.237   7.154  11.563  0.00  0.00    +0.000 A 
ATOM      5  C   UNL     1      47.979   7.006  12.750  0.00  0.00    +0.000 A 
ATOM      6  C   UNL     1      47.438   6.222  13.777  0.00  0.00    +0.000 A 
ATOM      7 CL   UNL     1      48.258   5.898  15.267  0.00  0.00    +0.000 Cl
ATOM      8  C   UNL     1      46.175   5.626  13.624  0.00  0.00    +0.000 A 
BRANCH   5   9
ATOM      9  C   UNL     1      49.299   7.696  12.805  0.00  0.00    +0.000 C 
ATOM     10  N   UNL     1      50.207   7.297  13.746  0.00  0.00    +0.000 N 
ATOM     11  O   UNL     1      49.561   8.630  12.051  0.00  0.00    +0.000 OA
ATOM     12  H   UNL     1      50.072   6.485  14.333  0.00  0.00    +0.000 HD
ATOM     13  H   UNL     1      51.122   7.729  13.730  0.00  0.00    +0.000 HD
ENDBRANCH   5   9
ENDBRANCH   1   2
BRANCH   1  14
ATOM     14  C   UNL     1      43.616   5.021  11.133  0.00  0.00    +0.000 C 
BRANCH  14  16
ATOM     15  C   UNL     1      43.502   2.477  11.489  0.00  0.00    +0.000 C 
ATOM     16  C   UNL     1      43.852   3.633  10.605  0.00  0.00    +0.000 C 
BRANCH  16  17
ATOM     17  C   UNL     1      44.809   3.449   9.493  0.00  0.00    +0.000 A 
ATOM     18  C   UNL     1      45.293   4.558   8.788  0.00  0.00    +0.000 A 
ATOM     19  C   UNL     1      46.176   4.398   7.716  0.00  0.00    +0.000 A 
ATOM     20  C   UNL     1      46.614   3.125   7.350  0.00  0.00    +0.000 A 
ATOM     21  C   UNL     1      46.182   2.000   8.061  0.00  0.00    +0.000 A 
ATOM     22  C   UNL     1      45.266   2.174   9.116  0.00  0.00    +0.000 A 
BRANCH  21  23
ATOM     23  C   UNL     1      46.674   0.623   7.697  0.00  0.00    +0.000 C 
BRANCH  23  24
ATOM     24  O   UNL     1      47.855   0.703   6.910  0.00  0.00    +0.000 OA
ATOM     25  H   UNL     1      47.586   0.579   5.984  0.00  0.00    +0.000 HD
ENDBRANCH  23  24
ENDBRANCH  21  23
ENDBRANCH  16  17
ENDBRANCH  14  16
ENDBRANCH   1  14
TORSDOF 7
ENDMDL
MODEL 4
REMARK VINA RESULT:    -6.212      2.804      3.719
REMARK INTER + INTRA:          -9.716
REMARK INTER:                  -9.004
REMARK INTRA:                  -0.712
REMARK UNBOUND:                -1.143
REMARK  Name = 
REMARK  8 active torsions:
REMARK  status: ('A' for Active; 'I' for Inactive)
REMARK    1  A    between atoms: C_1  and  C_2
REMARK    2  A    between atoms: C_2  and  C_3
REMARK    3  A    between atoms: C_2  and  C_15
REMARK    4  A    between atoms: C_3  and  O_4
REMARK    5  A    between atoms: O_4  and  C_5
REMARK    6  A    between atoms: C_8  and  C_9
REMARK    7  A    between atoms: C_19  and  C_20
REMARK    8  A    between atoms: C_20  and  O_21
REMARK                            x       y       z     vdW  Elec       q    Type
REMARK                         _______ _______ _______ _____ _____    ______ ____
ROOT
ATOM      1  O   UNL     1      46.890   7.084  12.697  0.00  0.00    +0.000 OA
ENDROOT
BRANCH   1   2
ATOM      2  C   UNL     1      47.115   6.115  13.640  0.00  0.00    +0.000 A 
ATOM      3  C   UNL     1      46.576   4.823  13.624  0.00  0.00    +0.000 A 
ATOM      4  C   UNL     1      46.885   3.912  14.636  0.00  0.00    +0.000 A 
ATOM      5  C   UNL     1      47.754   4.261  15.687  0.00  0.00    +0.000 A 
ATOM      6  C   UNL     1      48.278   5.559  15.713  0.00  0.00    +0.000 A 
ATOM      7 CL   UNL     1      49.308   6.151  16.972  0.00  0.00    +0.000 Cl
ATOM      8  C   UNL     1      47.956   6.474  14.695  0.00  0.00    +0.000 A 
BRANCH   5   9
ATOM      9  C   UNL     1      48.034   3.204  16.701  0.00  0.00    +0.000 C 
ATOM     10  N   UNL     1      47.180   3.072  17.760  0.00  0.00    +0.000 N 
ATOM     11  O   UNL     1      49.030   2.490  16.617  0.00  0.00    +0.000 OA
ATOM     12  H   UNL     1      46.307   3.577  17.831  0.00  0.00    +0.000 HD
ATOM     13  H   UNL     1      47.345   2.309  18.405  0.00  0.00    +0.000 HD
ENDBRANCH   5   9
ENDBRANCH   1   2
BRANCH   1  14
ATOM     14  C   UNL     1      46.863   6.637  11.336  0.00  0.00    +0.000 C 
BRANCH  14  16
ATOM     15  C   UNL     1      44.338   7.068  11.556  0.00  0.00    +0.000 C 
ATOM     16  C   UNL     1      45.459   6.328  10.895  0.00  0.00    +0.000 C 
BRANCH  16  17
ATOM     17  C   UNL     1      45.194   5.044  10.212  0.00  0.00    +0.000 A 
ATOM     18  C   UNL     1      44.416   4.061  10.836  0.00  0.00    +0.000 A 
ATOM     19  C   UNL     1      44.180   2.831  10.214  0.00  0.00    +0.000 A 
ATOM     20  C   UNL     1      44.695   2.575   8.944  0.00  0.00    +0.000 A 
ATOM     21  C   UNL     1      45.442   3.552   8.276  0.00  0.00    +0.000 A 
ATOM     22  C   UNL     1      45.700   4.773   8.929  0.00  0.00    +0.000 A 
BRANCH  21  23
ATOM     23  C   UNL     1      45.976   3.301   6.890  0.00  0.00    +0.000 C 
BRANCH  23  24
ATOM     24  O   UNL     1      47.143   4.078   6.653  0.00  0.00    +0.000 OA
ATOM     25  H   UNL     1      47.835   3.734   7.244  0.00  0.00    +0.000 HD
ENDBRANCH  23  24
ENDBRANCH  21  23
ENDBRANCH  16  17
ENDBRANCH  14  16
ENDBRANCH   1  14
TORSDOF 7
ENDMDL
MODEL 5
REMARK VINA RESULT:    -6.206      4.385      7.615
REMARK INTER + INTRA:          -9.707
REMARK INTER:                  -9.123
REMARK INTRA:                  -0.584
REMARK UNBOUND:                -1.143
REMARK  Name = 
REMARK  8 active torsions:
REMARK  status: ('A' for Active; 'I' for Inactive)
REMARK    1  A    between atoms: C_1  and  C_2
REMARK    2  A    between atoms: C_2  and  C_3
REMARK    3  A    between atoms: C_2  and  C_15
REMARK    4  A    between atoms: C_3  and  O_4
REMARK    5  A    between atoms: O_4  and  C_5
REMARK    6  A    between atoms: C_8  and  C_9
REMARK    7  A    between atoms: C_19  and  C_20
REMARK    8  A    between atoms: C_20  and  O_21
REMARK                            x       y       z     vdW  Elec       q    Type
REMARK                         _______ _______ _______ _____ _____    ______ ____
ROOT
ATOM      1  O   UNL     1      47.819   4.315  14.682  0.00  0.00    +0.000 OA
ENDROOT
BRANCH   1   2
ATOM      2  C   UNL     1      46.852   4.424  13.716  0.00  0.00    +0.000 A 
ATOM      3  C   UNL     1      46.195   3.354  13.097  0.00  0.00    +0.000 A 
ATOM      4  C   UNL     1      45.215   3.586  12.130  0.00  0.00    +0.000 A 
ATOM      5  C   UNL     1      44.853   4.896  11.763  0.00  0.00    +0.000 A 
ATOM      6  C   UNL     1      45.524   5.965  12.369  0.00  0.00    +0.000 A 
ATOM      7 CL   UNL     1      45.230   7.626  11.975  0.00  0.00    +0.000 Cl
ATOM      8  C   UNL     1      46.514   5.724  13.336  0.00  0.00    +0.000 A 
BRANCH   5   9
ATOM      9  C   UNL     1      43.778   5.029  10.738  0.00  0.00    +0.000 C 
ATOM     10  N   UNL     1      44.066   4.697   9.443  0.00  0.00    +0.000 N 
ATOM     11  O   UNL     1      42.668   5.466  11.032  0.00  0.00    +0.000 OA
ATOM     12  H   UNL     1      44.934   4.258   9.166  0.00  0.00    +0.000 HD
ATOM     13  H   UNL     1      43.310   4.730   8.770  0.00  0.00    +0.000 HD
ENDBRANCH   5   9
ENDBRANCH   1   2
BRANCH   1  14
ATOM     14  C   UNL     1      47.368   4.462  16.035  0.00  0.00    +0.000 C 
BRANCH  14  16
ATOM     15  C   UNL     1      47.126   2.643  17.836  0.00  0.00    +0.000 C 
ATOM     16  C   UNL     1      48.013   3.444  16.934  0.00  0.00    +0.000 C 
BRANCH  16  17
ATOM     17  C   UNL     1      49.452   3.580  17.245  0.00  0.00    +0.000 A 
ATOM     18  C   UNL     1      50.018   4.849  17.425  0.00  0.00    +0.000 A 
ATOM     19  C   UNL     1      51.382   4.994  17.692  0.00  0.00    +0.000 A 
ATOM     20  C   UNL     1      52.200   3.871  17.810  0.00  0.00    +0.000 A 
ATOM     21  C   UNL     1      51.658   2.588  17.677  0.00  0.00    +0.000 A 
ATOM     22  C   UNL     1      50.288   2.458  17.375  0.00  0.00    +0.000 A 
BRANCH  21  23
ATOM     23  C   UNL     1      52.523   1.364  17.836  0.00  0.00    +0.000 C 
BRANCH  23  24
ATOM     24  O   UNL     1      51.732   0.231  18.171  0.00  0.00    +0.000 OA
ATOM     25  H   UNL     1      51.825   0.096  19.130  0.00  0.00    +0.000 HD
ENDBRANCH  23  24
ENDBRANCH  21  23
ENDBRANCH  16  17
ENDBRANCH  14  16
ENDBRANCH   1  14
TORSDOF 7
ENDMDL
MODEL 6
REMARK VINA RESULT:    -5.984      3.391      7.360
REMARK INTER + INTRA:          -9.401
REMARK INTER:                  -8.666
REMARK INTRA:                  -0.735
REMARK UNBOUND:                -1.143
REMARK  Name = 
REMARK  8 active torsions:
REMARK  status: ('A' for Active; 'I' for Inactive)
REMARK    1  A    between atoms: C_1  and  C_2
REMARK    2  A    between atoms: C_2  and  C_3
REMARK    3  A    between atoms: C_2  and  C_15
REMARK    4  A    between atoms: C_3  and  O_4
REMARK    5  A    between atoms: O_4  and  C_5
REMARK    6  A    between atoms: C_8  and  C_9
REMARK    7  A    between atoms: C_19  and  C_20
REMARK    8  A    between atoms: C_20  and  O_21
REMARK                            x       y       z     vdW  Elec       q    Type
REMARK                         _______ _______ _______ _____ _____    ______ ____
ROOT
ATOM      1  O   UNL     1      47.157   7.410  13.388  0.00  0.00    +0.000 OA
ENDROOT
BRANCH   1   2
ATOM      2  C   UNL     1      46.460   6.353  12.862  0.00  0.00    +0.000 A 
ATOM      3  C   UNL     1      45.817   5.353  13.601  0.00  0.00    +0.000 A 
ATOM      4  C   UNL     1      45.125   4.327  12.955  0.00  0.00    +0.000 A 
ATOM      5  C   UNL     1      45.043   4.277  11.551  0.00  0.00    +0.000 A 
ATOM      6  C   UNL     1      45.703   5.267  10.812  0.00  0.00    +0.000 A 
ATOM      7 CL   UNL     1      45.744   5.301   9.081  0.00  0.00    +0.000 Cl
ATOM      8  C   UNL     1      46.405   6.292  11.468  0.00  0.00    +0.000 A 
BRANCH   5   9
ATOM      9  C   UNL     1      44.259   3.151  10.966  0.00  0.00    +0.000 C 
ATOM     10  N   UNL     1      44.874   2.325  10.068  0.00  0.00    +0.000 N 
ATOM     11  O   UNL     1      43.075   2.986  11.249  0.00  0.00    +0.000 OA
ATOM     12  H   UNL     1      45.864   2.369   9.865  0.00  0.00    +0.000 HD
ATOM     13  H   UNL     1      44.352   1.527   9.728  0.00  0.00    +0.000 HD
ENDBRANCH   5   9
ENDBRANCH   1   2
BRANCH   1  14
ATOM     14  C   UNL     1      48.482   7.117  13.849  0.00  0.00    +0.000 C 
BRANCH  14  16
ATOM     15  C   UNL     1      48.684   8.708  15.859  0.00  0.00    +0.000 C 
ATOM     16  C   UNL     1      48.592   7.308  15.336  0.00  0.00    +0.000 C 
BRANCH  16  17
ATOM     17  C   UNL     1      49.064   6.178  16.165  0.00  0.00    +0.000 A 
ATOM     18  C   UNL     1      50.369   6.174  16.674  0.00  0.00    +0.000 A 
ATOM     19  C   UNL     1      50.839   5.100  17.436  0.00  0.00    +0.000 A 
ATOM     20  C   UNL     1      50.001   4.024  17.725  0.00  0.00    +0.000 A 
ATOM     21  C   UNL     1      48.679   4.016  17.267  0.00  0.00    +0.000 A 
ATOM     22  C   UNL     1      48.230   5.089  16.472  0.00  0.00    +0.000 A 
BRANCH  21  23
ATOM     23  C   UNL     1      47.753   2.875  17.601  0.00  0.00    +0.000 C 
BRANCH  23  24
ATOM     24  O   UNL     1      46.396   3.268  17.443  0.00  0.00    +0.000 OA
ATOM     25  H   UNL     1      46.278   3.509  16.508  0.00  0.00    +0.000 HD
ENDBRANCH  23  24
ENDBRANCH  21  23
ENDBRANCH  16  17
ENDBRANCH  14  16
ENDBRANCH   1  14
TORSDOF 7
ENDMDL
MODEL 7
REMARK VINA RESULT:    -5.978      3.812      7.452
REMARK INTER + INTRA:          -9.393
REMARK INTER:                  -8.329
REMARK INTRA:                  -1.065
REMARK UNBOUND:                -1.143
REMARK  Name = 
REMARK  8 active torsions:
REMARK  status: ('A' for Active; 'I' for Inactive)
REMARK    1  A    between atoms: C_1  and  C_2
REMARK    2  A    between atoms: C_2  and  C_3
REMARK    3  A    between atoms: C_2  and  C_15
REMARK    4  A    between atoms: C_3  and  O_4
REMARK    5  A    between atoms: O_4  and  C_5
REMARK    6  A    between atoms: C_8  and  C_9
REMARK    7  A    between atoms: C_19  and  C_20
REMARK    8  A    between atoms: C_20  and  O_21
REMARK                            x       y       z     vdW  Elec       q    Type
REMARK                         _______ _______ _______ _____ _____    ______ ____
ROOT
ATOM      1  O   UNL     1      49.008   6.458  13.807  0.00  0.00    +0.000 OA
ENDROOT
BRANCH   1   2
ATOM      2  C   UNL     1      47.725   6.179  13.411  0.00  0.00    +0.000 A 
ATOM      3  C   UNL     1      47.091   4.936  13.520  0.00  0.00    +0.000 A 
ATOM      4  C   UNL     1      45.772   4.772  13.092  0.00  0.00    +0.000 A 
ATOM      5  C   UNL     1      45.043   5.849  12.555  0.00  0.00    +0.000 A 
ATOM      6  C   UNL     1      45.684   7.088  12.429  0.00  0.00    +0.000 A 
ATOM      7 CL   UNL     1      44.937   8.486  11.731  0.00  0.00    +0.000 Cl
ATOM      8  C   UNL     1      47.014   7.244  12.854  0.00  0.00    +0.000 A 
BRANCH   5   9
ATOM      9  C   UNL     1      43.635   5.568  12.151  0.00  0.00    +0.000 C 
ATOM     10  N   UNL     1      42.688   5.444  13.129  0.00  0.00    +0.000 N 
ATOM     11  O   UNL     1      43.330   5.410  10.972  0.00  0.00    +0.000 OA
ATOM     12  H   UNL     1      42.871   5.644  14.104  0.00  0.00    +0.000 HD
ATOM     13  H   UNL     1      41.726   5.318  12.839  0.00  0.00    +0.000 HD
ENDBRANCH   5   9
ENDBRANCH   1   2
BRANCH   1  14
ATOM     14  C   UNL     1      49.173   7.640  14.601  0.00  0.00    +0.000 C 
BRANCH  14  16
ATOM     15  C   UNL     1      48.577   8.535  16.936  0.00  0.00    +0.000 C 
ATOM     16  C   UNL     1      48.871   7.366  16.049  0.00  0.00    +0.000 C 
BRANCH  16  17
ATOM     17  C   UNL     1      49.315   6.085  16.638  0.00  0.00    +0.000 A 
ATOM     18  C   UNL     1      50.675   5.856  16.884  0.00  0.00    +0.000 A 
ATOM     19  C   UNL     1      51.112   4.639  17.415  0.00  0.00    +0.000 A 
ATOM     20  C   UNL     1      50.193   3.641  17.735  0.00  0.00    +0.000 A 
ATOM     21  C   UNL     1      48.824   3.854  17.541  0.00  0.00    +0.000 A 
ATOM     22  C   UNL     1      48.401   5.071  16.973  0.00  0.00    +0.000 A 
BRANCH  21  23
ATOM     23  C   UNL     1      47.818   2.796  17.915  0.00  0.00    +0.000 C 
BRANCH  23  24
ATOM     24  O   UNL     1      46.515   3.169  17.485  0.00  0.00    +0.000 OA
ATOM     25  H   UNL     1      45.925   3.069  18.251  0.00  0.00    +0.000 HD
ENDBRANCH  23  24
ENDBRANCH  21  23
ENDBRANCH  16  17
ENDBRANCH  14  16
ENDBRANCH   1  14
TORSDOF 7
ENDMDL
MODEL 8
REMARK VINA RESULT:    -5.840      3.051      4.599
REMARK INTER + INTRA:          -9.203
REMARK INTER:                  -8.403
REMARK INTRA:                  -0.799
REMARK UNBOUND:                -1.143
REMARK  Name = 
REMARK  8 active torsions:
REMARK  status: ('A' for Active; 'I' for Inactive)
REMARK    1  A    between atoms: C_1  and  C_2
REMARK    2  A    between atoms: C_2  and  C_3
REMARK    3  A    between atoms: C_2  and  C_15
REMARK    4  A    between atoms: C_3  and  O_4
REMARK    5  A    between atoms: O_4  and  C_5
REMARK    6  A    between atoms: C_8  and  C_9
REMARK    7  A    between atoms: C_19  and  C_20
REMARK    8  A    between atoms: C_20  and  O_21
REMARK                            x       y       z     vdW  Elec       q    Type
REMARK                         _______ _______ _______ _____ _____    ______ ____
ROOT
ATOM      1  O   UNL     1      47.760   7.328  13.191  0.00  0.00    +0.000 OA
ENDROOT
BRANCH   1   2
ATOM      2  C   UNL     1      47.758   6.318  14.119  0.00  0.00    +0.000 A 
ATOM      3  C   UNL     1      47.125   5.079  13.971  0.00  0.00    +0.000 A 
ATOM      4  C   UNL     1      47.200   4.119  14.982  0.00  0.00    +0.000 A 
ATOM      5  C   UNL     1      47.923   4.363  16.164  0.00  0.00    +0.000 A 
ATOM      6  C   UNL     1      48.540   5.611  16.319  0.00  0.00    +0.000 A 
ATOM      7 CL   UNL     1      49.410   6.079  17.741  0.00  0.00    +0.000 Cl
ATOM      8  C   UNL     1      48.454   6.576  15.302  0.00  0.00    +0.000 A 
BRANCH   5   9
ATOM      9  C   UNL     1      47.958   3.260  17.167  0.00  0.00    +0.000 C 
ATOM     10  N   UNL     1      46.785   2.871  17.751  0.00  0.00    +0.000 N 
ATOM     11  O   UNL     1      49.018   2.734  17.497  0.00  0.00    +0.000 OA
ATOM     12  H   UNL     1      45.881   3.215  17.456  0.00  0.00    +0.000 HD
ATOM     13  H   UNL     1      46.813   2.078  18.381  0.00  0.00    +0.000 HD
ENDBRANCH   5   9
ENDBRANCH   1   2
BRANCH   1  14
ATOM     14  C   UNL     1      47.330   6.965  11.873  0.00  0.00    +0.000 C 
BRANCH  14  16
ATOM     15  C   UNL     1      45.292   8.512  12.133  0.00  0.00    +0.000 C 
ATOM     16  C   UNL     1      45.853   7.192  11.703  0.00  0.00    +0.000 C 
BRANCH  16  17
ATOM     17  C   UNL     1      44.963   6.018  11.577  0.00  0.00    +0.000 A 
ATOM     18  C   UNL     1      43.886   5.851  12.458  0.00  0.00    +0.000 A 
ATOM     19  C   UNL     1      43.053   4.733  12.368  0.00  0.00    +0.000 A 
ATOM     20  C   UNL     1      43.266   3.775  11.377  0.00  0.00    +0.000 A 
ATOM     21  C   UNL     1      44.307   3.933  10.455  0.00  0.00    +0.000 A 
ATOM     22  C   UNL     1      45.159   5.048  10.579  0.00  0.00    +0.000 A 
BRANCH  21  23
ATOM     23  C   UNL     1      44.526   2.924   9.358  0.00  0.00    +0.000 C 
BRANCH  23  24
ATOM     24  O   UNL     1      44.206   3.482   8.091  0.00  0.00    +0.000 OA
ATOM     25  H   UNL     1      43.328   3.144   7.847  0.00  0.00    +0.000 HD
ENDBRANCH  23  24
ENDBRANCH  21  23
ENDBRANCH  16  17
ENDBRANCH  14  16
ENDBRANCH   1  14
TORSDOF 7
ENDMDL
MODEL 9
REMARK VINA RESULT:    -5.661      3.941      7.712
REMARK INTER + INTRA:          -8.956
REMARK INTER:                  -8.096
REMARK INTRA:                  -0.860
REMARK UNBOUND:                -1.143
REMARK  Name = 
REMARK  8 active torsions:
REMARK  status: ('A' for Active; 'I' for Inactive)
REMARK    1  A    between atoms: C_1  and  C_2
REMARK    2  A    between atoms: C_2  and  C_3
REMARK    3  A    between atoms: C_2  and  C_15
REMARK    4  A    between atoms: C_3  and  O_4
REMARK    5  A    between atoms: O_4  and  C_5
REMARK    6  A    between atoms: C_8  and  C_9
REMARK    7  A    between atoms: C_19  and  C_20
REMARK    8  A    between atoms: C_20  and  O_21
REMARK                            x       y       z     vdW  Elec       q    Type
REMARK                         _______ _______ _______ _____ _____    ______ ____
ROOT
ATOM      1  O   UNL     1      48.840   6.608  13.591  0.00  0.00    +0.000 OA
ENDROOT
BRANCH   1   2
ATOM      2  C   UNL     1      47.532   6.462  13.208  0.00  0.00    +0.000 A 
ATOM      3  C   UNL     1      46.631   7.506  12.970  0.00  0.00    +0.000 A 
ATOM      4  C   UNL     1      45.321   7.237  12.570  0.00  0.00    +0.000 A 
ATOM      5  C   UNL     1      44.876   5.914  12.384  0.00  0.00    +0.000 A 
ATOM      6  C   UNL     1      45.772   4.869  12.640  0.00  0.00    +0.000 A 
ATOM      7 CL   UNL     1      45.350   3.195  12.515  0.00  0.00    +0.000 Cl
ATOM      8  C   UNL     1      47.087   5.147  13.049  0.00  0.00    +0.000 A 
BRANCH   5   9
ATOM      9  C   UNL     1      43.464   5.742  11.933  0.00  0.00    +0.000 C 
ATOM     10  N   UNL     1      42.503   5.501  12.875  0.00  0.00    +0.000 N 
ATOM     11  O   UNL     1      43.168   5.773  10.741  0.00  0.00    +0.000 OA
ATOM     12  H   UNL     1      42.681   5.546  13.869  0.00  0.00    +0.000 HD
ATOM     13  H   UNL     1      41.541   5.450  12.563  0.00  0.00    +0.000 HD
ENDBRANCH   5   9
ENDBRANCH   1   2
BRANCH   1  14
ATOM     14  C   UNL     1      49.132   7.765  14.385  0.00  0.00    +0.000 C 
BRANCH  14  16
ATOM     15  C   UNL     1      51.307   7.335  15.687  0.00  0.00    +0.000 C 
ATOM     16  C   UNL     1      49.810   7.382  15.671  0.00  0.00    +0.000 C 
BRANCH  16  17
ATOM     17  C   UNL     1      49.038   6.639  16.689  0.00  0.00    +0.000 A 
ATOM     18  C   UNL     1      48.540   7.302  17.819  0.00  0.00    +0.000 A 
ATOM     19  C   UNL     1      47.832   6.608  18.804  0.00  0.00    +0.000 A 
ATOM     20  C   UNL     1      47.584   5.243  18.662  0.00  0.00    +0.000 A 
ATOM     21  C   UNL     1      48.032   4.560  17.526  0.00  0.00    +0.000 A 
ATOM     22  C   UNL     1      48.774   5.265  16.558  0.00  0.00    +0.000 A 
BRANCH  21  23
ATOM     23  C   UNL     1      47.742   3.093  17.344  0.00  0.00    +0.000 C 
BRANCH  23  24
ATOM     24  O   UNL     1      46.393   2.802  17.685  0.00  0.00    +0.000 OA
ATOM     25  H   UNL     1      46.041   2.228  16.982  0.00  0.00    +0.000 HD
ENDBRANCH  23  24
ENDBRANCH  21  23
ENDBRANCH  16  17
ENDBRANCH  14  16
ENDBRANCH   1  14
TORSDOF 7
ENDMDL
