MODEL 1
REMARK VINA RESULT:   -10.387      0.000      0.000
REMARK INTER + INTRA:         -14.403
REMARK INTER:                 -13.424
REMARK INTRA:                  -0.980
REMARK UNBOUND:                -0.980
REMARK  Name = 
REMARK  5 active torsions:
REMARK  status: ('A' for Active; 'I' for Inactive)
REMARK    1  A    between atoms: C_2  and  C_4
REMARK    2  A    between atoms: N_8  and  C_9
REMARK    3  A    between atoms: C_9  and  C_10
REMARK    4  A    between atoms: C_10  and  C_13
REMARK    5  A    between atoms: C_17  and  N_18
REMARK                            x       y       z     vdW  Elec       q    Type
REMARK                         _______ _______ _______ _____ _____    ______ ____
ROOT
ATOM      1  C   UNL     1      43.431   5.523  12.163  0.00  0.00    +0.000 C 
ATOM      2  F   UNL     1      43.054   6.708  11.599  0.00  0.00    +0.000 F 
ATOM      3  F   UNL     1      42.591   5.347  13.229  0.00  0.00    +0.000 F 
ENDROOT
BRANCH   1   4
ATOM      4  C   UNL     1      44.885   5.527  12.594  0.00  0.00    +0.000 A 
ATOM      5  C   UNL     1      45.641   6.705  12.497  0.00  0.00    +0.000 A 
ATOM      6  C   UNL     1      46.959   6.736  12.941  0.00  0.00    +0.000 A 
ATOM      7  C   UNL     1      47.521   5.599  13.514  0.00  0.00    +0.000 A 
ATOM      8  C   UNL     1      46.783   4.415  13.648  0.00  0.00    +0.000 A 
ATOM      9  C   UNL     1      45.473   4.379  13.152  0.00  0.00    +0.000 A 
BRANCH   8  10
ATOM     10  N   UNL     1      47.301   3.295  14.331  0.00  0.00    +0.000 N 
ATOM     11  C   UNL     1      47.740   3.235  15.607  0.00  0.00    +0.000 A 
ATOM     12  C   UNL     1      47.234   4.029  16.671  0.00  0.00    +0.000 A 
ATOM     13  C   UNL     1      47.963   3.668  17.772  0.00  0.00    +0.000 A 
ATOM     14  N   UNL     1      48.811   2.694  17.344  0.00  0.00    +0.000 N 
ATOM     15  N   UNL     1      48.673   2.388  16.043  0.00  0.00    +0.000 NA
ATOM     16  H   UNL     1      47.653   2.577  13.705  0.00  0.00    +0.000 HD
ATOM     17  H   UNL     1      49.507   2.191  17.885  0.00  0.00    +0.000 HD
ENDBRANCH   8  10
ENDBRANCH   1   4
BRANCH   1  18
ATOM     18  C   UNL     1      43.180   4.387  11.133  0.00  0.00    +0.000 C 
BRANCH  18  23
ATOM     19  C   UNL     1      46.471   2.523   7.694  0.00  0.00    +0.000 A 
ATOM     20  C   UNL     1      45.637   1.845   8.576  0.00  0.00    +0.000 A 
ATOM     21  C   UNL     1      44.699   2.567   9.315  0.00  0.00    +0.000 A 
ATOM     22  C   UNL     1      44.620   3.950   9.171  0.00  0.00    +0.000 A 
ATOM     23  N   UNL     1      43.652   4.720   9.784  0.00  0.00    +0.000 N 
ATOM     24  N   UNL     1      45.448   4.618   8.348  0.00  0.00    +0.000 NA
ATOM     25  C   UNL     1      46.358   3.902   7.633  0.00  0.00    +0.000 A 
ATOM     26  H   UNL     1      43.872   5.703   9.625  0.00  0.00    +0.000 HD
BRANCH  19  28
ATOM     27  N   UNL     1      48.550   2.553   6.441  0.00  0.00    +0.000 N 
ATOM     28  C   UNL     1      47.451   1.835   6.828  0.00  0.00    +0.000 C 
ATOM     29  O   UNL     1      47.309   0.662   6.506  0.00  0.00    +0.000 OA
ATOM     30  H   UNL     1      49.272   2.038   5.952  0.00  0.00    +0.000 HD
ATOM     31  H   UNL     1      48.823   3.412   6.899  0.00  0.00    +0.000 HD
ENDBRANCH  19  28
ENDBRANCH  18  23
ENDBRANCH   1  18
TORSDOF 5
ENDMDL
MODEL 2
REMARK VINA RESULT:    -9.022      2.662      3.744
REMARK INTER + INTRA:         -12.639
REMARK INTER:                 -12.002
REMARK INTRA:                  -0.638
REMARK UNBOUND:                -0.980
REMARK  Name = 
REMARK  5 active torsions:
REMARK  status: ('A' for Active; 'I' for Inactive)
REMARK    1  A    between atoms: C_2  and  C_4
REMARK    2  A    between atoms: N_8  and  C_9
REMARK    3  A    between atoms: C_9  and  C_10
REMARK    4  A    between atoms: C_10  and  C_13
REMARK    5  A    between atoms: C_17  and  N_18
REMARK                            x       y       z     vdW  Elec       q    Type
REMARK                         _______ _______ _______ _____ _____    ______ ____
ROOT
ATOM      1  C   UNL     1      43.312   5.547  12.210  0.00  0.00    +0.000 C 
ATOM      2  F   UNL     1      42.755   6.614  11.564  0.00  0.00    +0.000 F 
ATOM      3  F   UNL     1      42.486   5.296  13.272  0.00  0.00    +0.000 F 
ENDROOT
BRANCH   1   4
ATOM      4  C   UNL     1      44.732   5.825  12.661  0.00  0.00    +0.000 A 
ATOM      5  C   UNL     1      45.452   4.841  13.358  0.00  0.00    +0.000 A 
ATOM      6  C   UNL     1      46.774   5.063  13.727  0.00  0.00    +0.000 A 
ATOM      7  C   UNL     1      47.397   6.257  13.376  0.00  0.00    +0.000 A 
ATOM      8  C   UNL     1      46.713   7.249  12.660  0.00  0.00    +0.000 A 
ATOM      9  C   UNL     1      45.367   7.036  12.336  0.00  0.00    +0.000 A 
BRANCH   8  10
ATOM     10  N   UNL     1      47.366   8.410  12.199  0.00  0.00    +0.000 N 
ATOM     11  C   UNL     1      48.678   8.563  11.912  0.00  0.00    +0.000 A 
ATOM     12  C   UNL     1      49.520   7.530  11.423  0.00  0.00    +0.000 A 
ATOM     13  C   UNL     1      50.757   8.101  11.290  0.00  0.00    +0.000 A 
ATOM     14  N   UNL     1      50.598   9.402  11.656  0.00  0.00    +0.000 N 
ATOM     15  N   UNL     1      49.339   9.717  12.006  0.00  0.00    +0.000 NA
ATOM     16  H   UNL     1      46.854   9.262  12.408  0.00  0.00    +0.000 HD
ATOM     17  H   UNL     1      51.302  10.132  11.689  0.00  0.00    +0.000 HD
ENDBRANCH   8  10
ENDBRANCH   1   4
BRANCH   1  18
ATOM     18  C   UNL     1      43.282   4.325  11.252  0.00  0.00    +0.000 C 
BRANCH  18  23
ATOM     19  C   UNL     1      46.480   2.519   7.694  0.00  0.00    +0.000 A 
ATOM     20  C   UNL     1      45.701   1.827   8.616  0.00  0.00    +0.000 A 
ATOM     21  C   UNL     1      44.775   2.530   9.387  0.00  0.00    +0.000 A 
ATOM     22  C   UNL     1      44.652   3.908   9.235  0.00  0.00    +0.000 A 
ATOM     23  N   UNL     1      43.690   4.658   9.881  0.00  0.00    +0.000 N 
ATOM     24  N   UNL     1      45.428   4.591   8.373  0.00  0.00    +0.000 NA
ATOM     25  C   UNL     1      46.326   3.893   7.627  0.00  0.00    +0.000 A 
ATOM     26  H   UNL     1      43.876   5.645   9.706  0.00  0.00    +0.000 HD
BRANCH  19  28
ATOM     27  N   UNL     1      48.520   2.584   6.381  0.00  0.00    +0.000 N 
ATOM     28  C   UNL     1      47.441   1.850   6.795  0.00  0.00    +0.000 C 
ATOM     29  O   UNL     1      47.304   0.678   6.467  0.00  0.00    +0.000 OA
ATOM     30  H   UNL     1      49.233   2.082   5.867  0.00  0.00    +0.000 HD
ATOM     31  H   UNL     1      48.797   3.442   6.838  0.00  0.00    +0.000 HD
ENDBRANCH  19  28
ENDBRANCH  18  23
ENDBRANCH   1  18
TORSDOF 5
ENDMDL
MODEL 3
REMARK VINA RESULT:    -8.932      3.325      5.052
REMARK INTER + INTRA:         -12.523
REMARK INTER:                 -11.740
REMARK INTRA:                  -0.783
REMARK UNBOUND:                -0.980
REMARK  Name = 
REMARK  5 active torsions:
REMARK  status: ('A' for Active; 'I' for Inactive)
REMARK    1  A    between atoms: C_2  and  C_4
REMARK    2  A    between atoms: N_8  and  C_9
REMARK    3  A    between atoms: C_9  and  C_10
REMARK    4  A    between atoms: C_10  and  C_13
REMARK    5  A    between atoms: C_17  and  N_18
REMARK                            x       y       z     vdW  Elec       q    Type
REMARK                         _______ _______ _______ _____ _____    ______ ____
ROOT
ATOM      1  C   UNL     1      44.431   4.296  12.430  0.00  0.00    +0.000 C 
ATOM      2  F   UNL     1      43.807   4.108  13.630  0.00  0.00    +0.000 F 
ATOM      3  F   UNL     1      45.207   3.184  12.248  0.00  0.00    +0.000 F 
ENDROOT
BRANCH   1   4
ATOM      4  C   UNL     1      45.261   5.565  12.404  0.00  0.00    +0.000 A 
ATOM      5  C   UNL     1      46.617   5.509  12.045  0.00  0.00    +0.000 A 
ATOM      6  C   UNL     1      47.373   6.673  11.964  0.00  0.00    +0.000 A 
ATOM      7  C   UNL     1      46.774   7.905  12.211  0.00  0.00    +0.000 A 
ATOM      8  C   UNL     1      45.416   7.995  12.548  0.00  0.00    +0.000 A 
ATOM      9  C   UNL     1      44.675   6.813  12.676  0.00  0.00    +0.000 A 
BRANCH   8  10
ATOM     10  N   UNL     1      44.771   9.241  12.686  0.00  0.00    +0.000 N 
ATOM     11  C   UNL     1      44.103   9.936  11.739  0.00  0.00    +0.000 A 
ATOM     12  C   UNL     1      43.392   9.347  10.660  0.00  0.00    +0.000 A 
ATOM     13  C   UNL     1      42.889  10.397   9.939  0.00  0.00    +0.000 A 
ATOM     14  N   UNL     1      43.276  11.516  10.610  0.00  0.00    +0.000 N 
ATOM     15  N   UNL     1      43.984  11.263  11.723  0.00  0.00    +0.000 NA
ATOM     16  H   UNL     1      45.117   9.781  13.473  0.00  0.00    +0.000 HD
ATOM     17  H   UNL     1      43.089  12.484  10.368  0.00  0.00    +0.000 HD
ENDBRANCH   8  10
ENDBRANCH   1   4
BRANCH   1  18
ATOM     18  C   UNL     1      43.349   4.341  11.316  0.00  0.00    +0.000 C 
BRANCH  18  23
ATOM     19  C   UNL     1      46.440   2.514   7.677  0.00  0.00    +0.000 A 
ATOM     20  C   UNL     1      45.517   1.842   8.471  0.00  0.00    +0.000 A 
ATOM     21  C   UNL     1      44.662   2.580   9.292  0.00  0.00    +0.000 A 
ATOM     22  C   UNL     1      44.754   3.969   9.315  0.00  0.00    +0.000 A 
ATOM     23  N   UNL     1      43.878   4.772  10.017  0.00  0.00    +0.000 N 
ATOM     24  N   UNL     1      45.669   4.624   8.579  0.00  0.00    +0.000 NA
ATOM     25  C   UNL     1      46.495   3.893   7.783  0.00  0.00    +0.000 A 
ATOM     26  H   UNL     1      44.218   5.733   9.977  0.00  0.00    +0.000 HD
BRANCH  19  28
ATOM     27  N   UNL     1      48.357   2.557   6.189  0.00  0.00    +0.000 N 
ATOM     28  C   UNL     1      47.341   1.820   6.735  0.00  0.00    +0.000 C 
ATOM     29  O   UNL     1      47.213   0.628   6.485  0.00  0.00    +0.000 OA
ATOM     30  H   UNL     1      49.039   2.045   5.643  0.00  0.00    +0.000 HD
ATOM     31  H   UNL     1      48.645   3.447   6.572  0.00  0.00    +0.000 HD
ENDBRANCH  19  28
ENDBRANCH  18  23
ENDBRANCH   1  18
TORSDOF 5
ENDMDL
MODEL 4
REMARK VINA RESULT:    -8.414      2.409      2.986
REMARK INTER + INTRA:         -11.853
REMARK INTER:                 -11.347
REMARK INTRA:                  -0.506
REMARK UNBOUND:                -0.980
REMARK  Name = 
REMARK  5 active torsions:
REMARK  status: ('A' for Active; 'I' for Inactive)
REMARK    1  A    between atoms: C_2  and  C_4
REMARK    2  A    between atoms: N_8  and  C_9
REMARK    3  A    between atoms: C_9  and  C_10
REMARK    4  A    between atoms: C_10  and  C_13
REMARK    5  A    between atoms: C_17  and  N_18
REMARK                            x       y       z     vdW  Elec       q    Type
REMARK                         _______ _______ _______ _____ _____    ______ ____
ROOT
ATOM      1  C   UNL     1      43.451   4.581  12.484  0.00  0.00    +0.000 C 
ATOM      2  F   UNL     1      42.252   5.144  12.819  0.00  0.00    +0.000 F 
ATOM      3  F   UNL     1      43.699   3.653  13.458  0.00  0.00    +0.000 F 
ENDROOT
BRANCH   1   4
ATOM      4  C   UNL     1      44.564   5.607  12.394  0.00  0.00    +0.000 A 
ATOM      5  C   UNL     1      44.514   6.612  11.416  0.00  0.00    +0.000 A 
ATOM      6  C   UNL     1      45.500   7.592  11.361  0.00  0.00    +0.000 A 
ATOM      7  C   UNL     1      46.526   7.592  12.301  0.00  0.00    +0.000 A 
ATOM      8  C   UNL     1      46.590   6.616  13.305  0.00  0.00    +0.000 A 
ATOM      9  C   UNL     1      45.621   5.605  13.322  0.00  0.00    +0.000 A 
BRANCH   8  10
ATOM     10  N   UNL     1      47.556   6.673  14.330  0.00  0.00    +0.000 N 
ATOM     11  C   UNL     1      48.822   7.139  14.248  0.00  0.00    +0.000 A 
ATOM     12  C   UNL     1      49.241   8.183  13.381  0.00  0.00    +0.000 A 
ATOM     13  C   UNL     1      50.585   8.322  13.602  0.00  0.00    +0.000 A 
ATOM     14  N   UNL     1      50.889   7.418  14.573  0.00  0.00    +0.000 N 
ATOM     15  N   UNL     1      49.831   6.712  15.007  0.00  0.00    +0.000 NA
ATOM     16  H   UNL     1      47.370   6.023  15.087  0.00  0.00    +0.000 HD
ATOM     17  H   UNL     1      51.795   7.233  14.990  0.00  0.00    +0.000 HD
ENDBRANCH   8  10
ENDBRANCH   1   4
BRANCH   1  18
ATOM     18  C   UNL     1      43.285   3.849  11.124  0.00  0.00    +0.000 C 
BRANCH  18  23
ATOM     19  C   UNL     1      46.542   2.846   7.312  0.00  0.00    +0.000 A 
ATOM     20  C   UNL     1      46.053   4.069   7.758  0.00  0.00    +0.000 A 
ATOM     21  C   UNL     1      45.294   4.112   8.928  0.00  0.00    +0.000 A 
ATOM     22  C   UNL     1      45.026   2.936   9.623  0.00  0.00    +0.000 A 
ATOM     23  N   UNL     1      44.375   2.908  10.840  0.00  0.00    +0.000 N 
ATOM     24  N   UNL     1      45.462   1.743   9.178  0.00  0.00    +0.000 NA
ATOM     25  C   UNL     1      46.202   1.716   8.036  0.00  0.00    +0.000 A 
ATOM     26  H   UNL     1      44.192   1.935  11.087  0.00  0.00    +0.000 HD
BRANCH  19  28
ATOM     27  N   UNL     1      48.718   2.400   6.334  0.00  0.00    +0.000 N 
ATOM     28  C   UNL     1      47.403   2.713   6.120  0.00  0.00    +0.000 C 
ATOM     29  O   UNL     1      46.953   2.836   4.988  0.00  0.00    +0.000 OA
ATOM     30  H   UNL     1      49.269   2.192   5.510  0.00  0.00    +0.000 HD
ATOM     31  H   UNL     1      49.050   2.036   7.217  0.00  0.00    +0.000 HD
ENDBRANCH  19  28
ENDBRANCH  18  23
ENDBRANCH   1  18
TORSDOF 5
ENDMDL
MODEL 5
REMARK VINA RESULT:    -8.102      3.189      8.415
REMARK INTER + INTRA:         -11.450
REMARK INTER:                 -10.784
REMARK INTRA:                  -0.666
REMARK UNBOUND:                -0.980
REMARK  Name = 
REMARK  5 active torsions:
REMARK  status: ('A' for Active; 'I' for Inactive)
REMARK    1  A    between atoms: C_2  and  C_4
REMARK    2  A    between atoms: N_8  and  C_9
REMARK    3  A    between atoms: C_9  and  C_10
REMARK    4  A    between atoms: C_10  and  C_13
REMARK    5  A    between atoms: C_17  and  N_18
REMARK                            x       y       z     vdW  Elec       q    Type
REMARK                         _______ _______ _______ _____ _____    ______ ____
ROOT
ATOM      1  C   UNL     1      45.577   5.577  12.637  0.00  0.00    +0.000 C 
ATOM      2  F   UNL     1      44.595   5.954  13.509  0.00  0.00    +0.000 F 
ATOM      3  F   UNL     1      45.953   6.726  11.997  0.00  0.00    +0.000 F 
ENDROOT
BRANCH   1   4
ATOM      4  C   UNL     1      45.102   4.522  11.657  0.00  0.00    +0.000 A 
ATOM      5  C   UNL     1      44.255   3.491  12.092  0.00  0.00    +0.000 A 
ATOM      6  C   UNL     1      43.768   2.550  11.191  0.00  0.00    +0.000 A 
ATOM      7  C   UNL     1      44.098   2.651   9.843  0.00  0.00    +0.000 A 
ATOM      8  C   UNL     1      44.922   3.683   9.373  0.00  0.00    +0.000 A 
ATOM      9  C   UNL     1      45.449   4.596  10.296  0.00  0.00    +0.000 A 
BRANCH   8  10
ATOM     10  N   UNL     1      45.169   3.863   7.997  0.00  0.00    +0.000 N 
ATOM     11  C   UNL     1      46.164   3.323   7.258  0.00  0.00    +0.000 A 
ATOM     12  C   UNL     1      46.756   2.056   7.508  0.00  0.00    +0.000 A 
ATOM     13  C   UNL     1      47.722   1.910   6.549  0.00  0.00    +0.000 A 
ATOM     14  N   UNL     1      47.644   3.032   5.782  0.00  0.00    +0.000 N 
ATOM     15  N   UNL     1      46.685   3.889   6.170  0.00  0.00    +0.000 NA
ATOM     16  H   UNL     1      44.749   4.709   7.625  0.00  0.00    +0.000 HD
ATOM     17  H   UNL     1      48.211   3.277   4.976  0.00  0.00    +0.000 HD
ENDBRANCH   8  10
ENDBRANCH   1   4
BRANCH   1  18
ATOM     18  C   UNL     1      46.783   5.043  13.458  0.00  0.00    +0.000 C 
BRANCH  18  23
ATOM     19  C   UNL     1      48.664   4.421  18.171  0.00  0.00    +0.000 A 
ATOM     20  C   UNL     1      48.756   5.518  17.321  0.00  0.00    +0.000 A 
ATOM     21  C   UNL     1      48.020   5.521  16.135  0.00  0.00    +0.000 A 
ATOM     22  C   UNL     1      47.220   4.429  15.814  0.00  0.00    +0.000 A 
ATOM     23  N   UNL     1      46.382   4.401  14.717  0.00  0.00    +0.000 N 
ATOM     24  N   UNL     1      47.154   3.348  16.613  0.00  0.00    +0.000 NA
ATOM     25  C   UNL     1      47.876   3.358  17.766  0.00  0.00    +0.000 A 
ATOM     26  H   UNL     1      45.996   3.461  14.628  0.00  0.00    +0.000 HD
BRANCH  19  28
ATOM     27  N   UNL     1      48.652   3.853  20.531  0.00  0.00    +0.000 N 
ATOM     28  C   UNL     1      49.359   4.357  19.473  0.00  0.00    +0.000 C 
ATOM     29  O   UNL     1      50.529   4.698  19.593  0.00  0.00    +0.000 OA
ATOM     30  H   UNL     1      49.172   3.699  21.386  0.00  0.00    +0.000 HD
ATOM     31  H   UNL     1      47.797   3.326  20.408  0.00  0.00    +0.000 HD
ENDBRANCH  19  28
ENDBRANCH  18  23
ENDBRANCH   1  18
TORSDOF 5
ENDMDL
MODEL 6
REMARK VINA RESULT:    -7.525      2.836      7.186
REMARK INTER + INTRA:         -10.705
REMARK INTER:                  -9.987
REMARK INTRA:                  -0.717
REMARK UNBOUND:                -0.980
REMARK  Name = 
REMARK  5 active torsions:
REMARK  status: ('A' for Active; 'I' for Inactive)
REMARK    1  A    between atoms: C_2  and  C_4
REMARK    2  A    between atoms: N_8  and  C_9
REMARK    3  A    between atoms: C_9  and  C_10
REMARK    4  A    between atoms: C_10  and  C_13
REMARK    5  A    between atoms: C_17  and  N_18
REMARK                            x       y       z     vdW  Elec       q    Type
REMARK                         _______ _______ _______ _____ _____    ______ ____
ROOT
ATOM      1  C   UNL     1      45.859   7.564  12.213  0.00  0.00    +0.000 C 
ATOM      2  F   UNL     1      45.810   7.817  13.554  0.00  0.00    +0.000 F 
ATOM      3  F   UNL     1      45.463   8.726  11.611  0.00  0.00    +0.000 F 
ENDROOT
BRANCH   1   4
ATOM      4  C   UNL     1      44.972   6.400  11.815  0.00  0.00    +0.000 A 
ATOM      5  C   UNL     1      43.993   5.928  12.703  0.00  0.00    +0.000 A 
ATOM      6  C   UNL     1      43.137   4.898  12.327  0.00  0.00    +0.000 A 
ATOM      7  C   UNL     1      43.232   4.353  11.050  0.00  0.00    +0.000 A 
ATOM      8  C   UNL     1      44.184   4.820  10.132  0.00  0.00    +0.000 A 
ATOM      9  C   UNL     1      45.074   5.822  10.537  0.00  0.00    +0.000 A 
BRANCH   8  10
ATOM     10  N   UNL     1      44.214   4.357   8.800  0.00  0.00    +0.000 N 
ATOM     11  C   UNL     1      45.040   3.431   8.265  0.00  0.00    +0.000 A 
ATOM     12  C   UNL     1      45.585   2.330   8.979  0.00  0.00    +0.000 A 
ATOM     13  C   UNL     1      46.371   1.665   8.076  0.00  0.00    +0.000 A 
ATOM     14  N   UNL     1      46.239   2.348   6.907  0.00  0.00    +0.000 N 
ATOM     15  N   UNL     1      45.411   3.403   6.985  0.00  0.00    +0.000 NA
ATOM     16  H   UNL     1      43.791   5.007   8.145  0.00  0.00    +0.000 HD
ATOM     17  H   UNL     1      46.681   2.149   6.015  0.00  0.00    +0.000 HD
ENDBRANCH   8  10
ENDBRANCH   1   4
BRANCH   1  18
ATOM     18  C   UNL     1      47.334   7.273  11.823  0.00  0.00    +0.000 C 
BRANCH  18  23
ATOM     19  C   UNL     1      47.595   4.252  15.939  0.00  0.00    +0.000 A 
ATOM     20  C   UNL     1      47.180   3.950  14.647  0.00  0.00    +0.000 A 
ATOM     21  C   UNL     1      47.349   4.901  13.639  0.00  0.00    +0.000 A 
ATOM     22  C   UNL     1      47.914   6.137  13.942  0.00  0.00    +0.000 A 
ATOM     23  N   UNL     1      48.211   7.087  12.985  0.00  0.00    +0.000 N 
ATOM     24  N   UNL     1      48.284   6.451  15.197  0.00  0.00    +0.000 NA
ATOM     25  C   UNL     1      48.114   5.515  16.169  0.00  0.00    +0.000 A 
ATOM     26  H   UNL     1      48.501   7.943  13.458  0.00  0.00    +0.000 HD
BRANCH  19  28
ATOM     27  N   UNL     1      48.693   2.861  17.598  0.00  0.00    +0.000 N 
ATOM     28  C   UNL     1      47.512   3.286  17.054  0.00  0.00    +0.000 C 
ATOM     29  O   UNL     1      46.434   2.915  17.500  0.00  0.00    +0.000 OA
ATOM     30  H   UNL     1      48.623   2.298  18.436  0.00  0.00    +0.000 HD
ATOM     31  H   UNL     1      49.567   3.343  17.436  0.00  0.00    +0.000 HD
ENDBRANCH  19  28
ENDBRANCH  18  23
ENDBRANCH   1  18
TORSDOF 5
ENDMDL
