MODEL 1
REMARK VINA RESULT:    -8.144      0.000      0.000
REMARK INTER + INTRA:         -10.814
REMARK INTER:                 -10.287
REMARK INTRA:                  -0.528
REMARK UNBOUND:                -0.528
REMARK  Name = 
REMARK  5 active torsions:
REMARK  status: ('A' for Active; 'I' for Inactive)
REMARK    1  A    between atoms: C_2  and  C_4
REMARK    2  A    between atoms: C_7  and  N_8
REMARK    3  A    between atoms: N_8  and  C_9
REMARK    4  A    between atoms: C_9  and  C_10
REMARK    5  A    between atoms: C_15  and  O_16
REMARK                            x       y       z     vdW  Elec       q    Type
REMARK                         _______ _______ _______ _____ _____    ______ ____
ROOT
ATOM      1  C   UNL     1      46.329   2.241   7.810  0.00  0.00    +0.000 A 
ATOM      2  C   UNL     1      45.383   1.687   8.676  0.00  0.00    +0.000 A 
ATOM      3  C   UNL     1      44.502   2.518   9.379  0.00  0.00    +0.000 A 
ATOM      4  C   UNL     1      44.566   3.911   9.249  0.00  0.00    +0.000 A 
ATOM      5  C   UNL     1      45.467   4.445   8.324  0.00  0.00    +0.000 A 
ATOM      6  C   UNL     1      46.364   3.625   7.629  0.00  0.00    +0.000 A 
ENDROOT
BRANCH   1   8
ATOM      7  N   UNL     1      48.412   2.039   6.563  0.00  0.00    +0.000 N 
ATOM      8  C   UNL     1      47.332   1.400   7.108  0.00  0.00    +0.000 C 
ATOM      9  O   UNL     1      47.218   0.184   7.034  0.00  0.00    +0.000 OA
ATOM     10  H   UNL     1      49.130   1.446   6.169  0.00  0.00    +0.000 HD
ATOM     11  H   UNL     1      48.668   2.981   6.822  0.00  0.00    +0.000 HD
ENDBRANCH   1   8
BRANCH   4  12
ATOM     12  N   UNL     1      43.747   4.794   9.953  0.00  0.00    +0.000 N 
ATOM     13  H   UNL     1      42.830   4.925   9.524  0.00  0.00    +0.000 HD
BRANCH  12  14
ATOM     14  C   UNL     1      43.604   4.599  11.402  0.00  0.00    +0.000 C 
BRANCH  14  15
ATOM     15  C   UNL     1      44.874   4.977  12.145  0.00  0.00    +0.000 A 
ATOM     16  N   UNL     1      45.182   6.304  12.240  0.00  0.00    +0.000 NA
ATOM     17  C   UNL     1      46.279   6.633  12.956  0.00  0.00    +0.000 A 
ATOM     18  C   UNL     1      47.080   5.712  13.610  0.00  0.00    +0.000 A 
ATOM     19  C   UNL     1      46.745   4.364  13.527  0.00  0.00    +0.000 A 
ATOM     20  C   UNL     1      45.625   3.992  12.790  0.00  0.00    +0.000 A 
BRANCH  20  21
ATOM     21  O   UNL     1      45.259   2.679  12.713  0.00  0.00    +0.000 OA
ATOM     22  H   UNL     1      45.813   2.234  12.050  0.00  0.00    +0.000 HD
ENDBRANCH  20  21
ENDBRANCH  14  15
ENDBRANCH  12  14
ENDBRANCH   4  12
TORSDOF 5
ENDMDL
MODEL 2
REMARK VINA RESULT:    -8.061      1.300      1.589
REMARK INTER + INTRA:         -10.709
REMARK INTER:                 -10.035
REMARK INTRA:                  -0.674
REMARK UNBOUND:                -0.528
REMARK  Name = 
REMARK  5 active torsions:
REMARK  status: ('A' for Active; 'I' for Inactive)
REMARK    1  A    between atoms: C_2  and  C_4
REMARK    2  A    between atoms: C_7  and  N_8
REMARK    3  A    between atoms: N_8  and  C_9
REMARK    4  A    between atoms: C_9  and  C_10
REMARK    5  A    between atoms: C_15  and  O_16
REMARK                            x       y       z     vdW  Elec       q    Type
REMARK                         _______ _______ _______ _____ _____    ______ ____
ROOT
ATOM      1  C   UNL     1      46.302   2.279   7.822  0.00  0.00    +0.000 A 
ATOM      2  C   UNL     1      45.409   1.691   8.721  0.00  0.00    +0.000 A 
ATOM      3  C   UNL     1      44.509   2.488   9.439  0.00  0.00    +0.000 A 
ATOM      4  C   UNL     1      44.501   3.880   9.291  0.00  0.00    +0.000 A 
ATOM      5  C   UNL     1      45.349   4.445   8.333  0.00  0.00    +0.000 A 
ATOM      6  C   UNL     1      46.265   3.660   7.624  0.00  0.00    +0.000 A 
ENDROOT
BRANCH   1   8
ATOM      7  N   UNL     1      48.420   2.145   6.625  0.00  0.00    +0.000 N 
ATOM      8  C   UNL     1      47.325   1.478   7.101  0.00  0.00    +0.000 C 
ATOM      9  O   UNL     1      47.214   0.268   6.956  0.00  0.00    +0.000 OA
ATOM     10  H   UNL     1      49.149   1.575   6.217  0.00  0.00    +0.000 HD
ATOM     11  H   UNL     1      48.668   3.071   6.944  0.00  0.00    +0.000 HD
ENDBRANCH   1   8
BRANCH   4  12
ATOM     12  N   UNL     1      43.659   4.732  10.007  0.00  0.00    +0.000 N 
ATOM     13  H   UNL     1      42.778   4.924   9.531  0.00  0.00    +0.000 HD
BRANCH  12  14
ATOM     14  C   UNL     1      43.416   4.433  11.424  0.00  0.00    +0.000 C 
BRANCH  14  15
ATOM     15  C   UNL     1      44.610   4.803  12.287  0.00  0.00    +0.000 A 
ATOM     16  N   UNL     1      45.347   3.783  12.819  0.00  0.00    +0.000 NA
ATOM     17  C   UNL     1      46.443   4.122  13.534  0.00  0.00    +0.000 A 
ATOM     18  C   UNL     1      46.864   5.426  13.730  0.00  0.00    +0.000 A 
ATOM     19  C   UNL     1      46.120   6.457  13.165  0.00  0.00    +0.000 A 
ATOM     20  C   UNL     1      44.981   6.141  12.431  0.00  0.00    +0.000 A 
BRANCH  20  21
ATOM     21  O   UNL     1      44.247   7.131  11.844  0.00  0.00    +0.000 OA
ATOM     22  H   UNL     1      43.802   7.649  12.537  0.00  0.00    +0.000 HD
ENDBRANCH  20  21
ENDBRANCH  14  15
ENDBRANCH  12  14
ENDBRANCH   4  12
TORSDOF 5
ENDMDL
MODEL 3
REMARK VINA RESULT:    -7.495      1.921      5.852
REMARK INTER + INTRA:          -9.994
REMARK INTER:                  -9.605
REMARK INTRA:                  -0.389
REMARK UNBOUND:                -0.528
REMARK  Name = 
REMARK  5 active torsions:
REMARK  status: ('A' for Active; 'I' for Inactive)
REMARK    1  A    between atoms: C_2  and  C_4
REMARK    2  A    between atoms: C_7  and  N_8
REMARK    3  A    between atoms: N_8  and  C_9
REMARK    4  A    between atoms: C_9  and  C_10
REMARK    5  A    between atoms: C_15  and  O_16
REMARK                            x       y       z     vdW  Elec       q    Type
REMARK                         _______ _______ _______ _____ _____    ______ ____
ROOT
ATOM      1  C   UNL     1      46.598   4.606  13.656  0.00  0.00    +0.000 A 
ATOM      2  C   UNL     1      46.936   5.806  13.025  0.00  0.00    +0.000 A 
ATOM      3  C   UNL     1      46.381   6.125  11.781  0.00  0.00    +0.000 A 
ATOM      4  C   UNL     1      45.501   5.247  11.135  0.00  0.00    +0.000 A 
ATOM      5  C   UNL     1      45.115   4.087  11.813  0.00  0.00    +0.000 A 
ATOM      6  C   UNL     1      45.678   3.749  13.050  0.00  0.00    +0.000 A 
ENDROOT
BRANCH   1   8
ATOM      7  N   UNL     1      47.233   5.111  15.954  0.00  0.00    +0.000 N 
ATOM      8  C   UNL     1      47.225   4.194  14.939  0.00  0.00    +0.000 C 
ATOM      9  O   UNL     1      47.697   3.076  15.097  0.00  0.00    +0.000 OA
ATOM     10  H   UNL     1      47.581   4.786  16.846  0.00  0.00    +0.000 HD
ATOM     11  H   UNL     1      46.639   5.927  15.948  0.00  0.00    +0.000 HD
ENDBRANCH   1   8
BRANCH   4  12
ATOM     12  N   UNL     1      44.948   5.487   9.877  0.00  0.00    +0.000 N 
ATOM     13  H   UNL     1      45.578   5.983   9.246  0.00  0.00    +0.000 HD
BRANCH  12  14
ATOM     14  C   UNL     1      44.310   4.365   9.178  0.00  0.00    +0.000 C 
BRANCH  14  15
ATOM     15  C   UNL     1      45.321   3.539   8.403  0.00  0.00    +0.000 A 
ATOM     16  N   UNL     1      46.177   4.203   7.571  0.00  0.00    +0.000 NA
ATOM     17  C   UNL     1      47.114   3.466   6.934  0.00  0.00    +0.000 A 
ATOM     18  C   UNL     1      47.266   2.100   7.099  0.00  0.00    +0.000 A 
ATOM     19  C   UNL     1      46.405   1.436   7.967  0.00  0.00    +0.000 A 
ATOM     20  C   UNL     1      45.424   2.165   8.630  0.00  0.00    +0.000 A 
BRANCH  20  21
ATOM     21  O   UNL     1      44.582   1.543   9.507  0.00  0.00    +0.000 OA
ATOM     22  H   UNL     1      44.898   1.696  10.413  0.00  0.00    +0.000 HD
ENDBRANCH  20  21
ENDBRANCH  14  15
ENDBRANCH  12  14
ENDBRANCH   4  12
TORSDOF 5
ENDMDL
MODEL 4
REMARK VINA RESULT:    -6.518      2.323      5.902
REMARK INTER + INTRA:          -8.760
REMARK INTER:                  -8.114
REMARK INTRA:                  -0.646
REMARK UNBOUND:                -0.528
REMARK  Name = 
REMARK  5 active torsions:
REMARK  status: ('A' for Active; 'I' for Inactive)
REMARK    1  A    between atoms: C_2  and  C_4
REMARK    2  A    between atoms: C_7  and  N_8
REMARK    3  A    between atoms: N_8  and  C_9
REMARK    4  A    between atoms: C_9  and  C_10
REMARK    5  A    between atoms: C_15  and  O_16
REMARK                            x       y       z     vdW  Elec       q    Type
REMARK                         _______ _______ _______ _____ _____    ______ ____
ROOT
ATOM      1  C   UNL     1      47.335   6.697  13.149  0.00  0.00    +0.000 A 
ATOM      2  C   UNL     1      47.099   5.372  13.525  0.00  0.00    +0.000 A 
ATOM      3  C   UNL     1      46.040   4.658  12.951  0.00  0.00    +0.000 A 
ATOM      4  C   UNL     1      45.188   5.256  12.015  0.00  0.00    +0.000 A 
ATOM      5  C   UNL     1      45.483   6.557  11.594  0.00  0.00    +0.000 A 
ATOM      6  C   UNL     1      46.528   7.287  12.174  0.00  0.00    +0.000 A 
ENDROOT
BRANCH   1   8
ATOM      7  N   UNL     1      49.694   7.144  13.563  0.00  0.00    +0.000 N 
ATOM      8  C   UNL     1      48.397   7.514  13.791  0.00  0.00    +0.000 C 
ATOM      9  O   UNL     1      48.133   8.492  14.478  0.00  0.00    +0.000 OA
ATOM     10  H   UNL     1      50.406   7.761  13.931  0.00  0.00    +0.000 HD
ATOM     11  H   UNL     1      49.953   6.520  12.812  0.00  0.00    +0.000 HD
ENDBRANCH   1   8
BRANCH   4  12
ATOM     12  N   UNL     1      44.092   4.613  11.440  0.00  0.00    +0.000 N 
ATOM     13  H   UNL     1      43.228   4.737  11.968  0.00  0.00    +0.000 HD
BRANCH  12  14
ATOM     14  C   UNL     1      43.845   4.817  10.007  0.00  0.00    +0.000 C 
BRANCH  14  15
ATOM     15  C   UNL     1      44.710   3.905   9.154  0.00  0.00    +0.000 A 
ATOM     16  N   UNL     1      45.526   4.490   8.228  0.00  0.00    +0.000 NA
ATOM     17  C   UNL     1      46.337   3.676   7.518  0.00  0.00    +0.000 A 
ATOM     18  C   UNL     1      46.401   2.304   7.695  0.00  0.00    +0.000 A 
ATOM     19  C   UNL     1      45.582   1.719   8.657  0.00  0.00    +0.000 A 
ATOM     20  C   UNL     1      44.730   2.531   9.398  0.00  0.00    +0.000 A 
BRANCH  20  21
ATOM     21  O   UNL     1      43.935   1.987  10.366  0.00  0.00    +0.000 OA
ATOM     22  H   UNL     1      44.496   1.632  11.075  0.00  0.00    +0.000 HD
ENDBRANCH  20  21
ENDBRANCH  14  15
ENDBRANCH  12  14
ENDBRANCH   4  12
TORSDOF 5
ENDMDL
MODEL 5
REMARK VINA RESULT:    -5.992      3.699      5.601
REMARK INTER + INTRA:          -8.096
REMARK INTER:                  -7.799
REMARK INTRA:                  -0.297
REMARK UNBOUND:                -0.528
REMARK  Name = 
REMARK  5 active torsions:
REMARK  status: ('A' for Active; 'I' for Inactive)
REMARK    1  A    between atoms: C_2  and  C_4
REMARK    2  A    between atoms: C_7  and  N_8
REMARK    3  A    between atoms: N_8  and  C_9
REMARK    4  A    between atoms: C_9  and  C_10
REMARK    5  A    between atoms: C_15  and  O_16
REMARK                            x       y       z     vdW  Elec       q    Type
REMARK                         _______ _______ _______ _____ _____    ______ ____
ROOT
ATOM      1  C   UNL     1      45.027   4.214  11.398  0.00  0.00    +0.000 A 
ATOM      2  C   UNL     1      45.260   5.575  11.615  0.00  0.00    +0.000 A 
ATOM      3  C   UNL     1      45.992   5.992  12.732  0.00  0.00    +0.000 A 
ATOM      4  C   UNL     1      46.482   5.066  13.662  0.00  0.00    +0.000 A 
ATOM      5  C   UNL     1      46.305   3.705  13.391  0.00  0.00    +0.000 A 
ATOM      6  C   UNL     1      45.560   3.278  12.286  0.00  0.00    +0.000 A 
ENDROOT
BRANCH   1   8
ATOM      7  N   UNL     1      43.908   4.632   9.274  0.00  0.00    +0.000 N 
ATOM      8  C   UNL     1      44.188   3.736  10.269  0.00  0.00    +0.000 C 
ATOM      9  O   UNL     1      43.780   2.583  10.210  0.00  0.00    +0.000 OA
ATOM     10  H   UNL     1      43.414   4.267   8.470  0.00  0.00    +0.000 HD
ATOM     11  H   UNL     1      44.428   5.489   9.159  0.00  0.00    +0.000 HD
ENDBRANCH   1   8
BRANCH   4  12
ATOM     12  N   UNL     1      47.181   5.420  14.816  0.00  0.00    +0.000 N 
ATOM     13  H   UNL     1      46.919   6.335  15.183  0.00  0.00    +0.000 HD
BRANCH  12  14
ATOM     14  C   UNL     1      47.256   4.439  15.907  0.00  0.00    +0.000 C 
BRANCH  14  15
ATOM     15  C   UNL     1      48.231   4.875  16.986  0.00  0.00    +0.000 A 
ATOM     16  N   UNL     1      49.550   4.973  16.646  0.00  0.00    +0.000 NA
ATOM     17  C   UNL     1      50.401   5.421  17.596  0.00  0.00    +0.000 A 
ATOM     18  C   UNL     1      50.007   5.806  18.866  0.00  0.00    +0.000 A 
ATOM     19  C   UNL     1      48.657   5.725  19.196  0.00  0.00    +0.000 A 
ATOM     20  C   UNL     1      47.758   5.258  18.242  0.00  0.00    +0.000 A 
BRANCH  20  21
ATOM     21  O   UNL     1      46.425   5.193  18.531  0.00  0.00    +0.000 OA
ATOM     22  H   UNL     1      45.931   5.022  17.711  0.00  0.00    +0.000 HD
ENDBRANCH  20  21
ENDBRANCH  14  15
ENDBRANCH  12  14
ENDBRANCH   4  12
TORSDOF 5
ENDMDL
MODEL 6
REMARK VINA RESULT:    -5.643      4.232      7.654
REMARK INTER + INTRA:          -7.655
REMARK INTER:                  -7.150
REMARK INTRA:                  -0.506
REMARK UNBOUND:                -0.528
REMARK  Name = 
REMARK  5 active torsions:
REMARK  status: ('A' for Active; 'I' for Inactive)
REMARK    1  A    between atoms: C_2  and  C_4
REMARK    2  A    between atoms: C_7  and  N_8
REMARK    3  A    between atoms: N_8  and  C_9
REMARK    4  A    between atoms: C_9  and  C_10
REMARK    5  A    between atoms: C_15  and  O_16
REMARK                            x       y       z     vdW  Elec       q    Type
REMARK                         _______ _______ _______ _____ _____    ______ ____
ROOT
ATOM      1  C   UNL     1      49.928   3.621  17.436  0.00  0.00    +0.000 A 
ATOM      2  C   UNL     1      49.479   4.937  17.302  0.00  0.00    +0.000 A 
ATOM      3  C   UNL     1      48.292   5.207  16.610  0.00  0.00    +0.000 A 
ATOM      4  C   UNL     1      47.550   4.176  16.020  0.00  0.00    +0.000 A 
ATOM      5  C   UNL     1      47.973   2.859  16.227  0.00  0.00    +0.000 A 
ATOM      6  C   UNL     1      49.166   2.579  16.902  0.00  0.00    +0.000 A 
ENDROOT
BRANCH   1   8
ATOM      7  N   UNL     1      51.567   4.044  19.188  0.00  0.00    +0.000 N 
ATOM      8  C   UNL     1      51.221   3.300  18.094  0.00  0.00    +0.000 C 
ATOM      9  O   UNL     1      51.941   2.394  17.696  0.00  0.00    +0.000 OA
ATOM     10  H   UNL     1      52.403   3.755  19.679  0.00  0.00    +0.000 HD
ATOM     11  H   UNL     1      50.897   4.608  19.690  0.00  0.00    +0.000 HD
ENDBRANCH   1   8
BRANCH   4  12
ATOM     12  N   UNL     1      46.385   4.383  15.281  0.00  0.00    +0.000 N 
ATOM     13  H   UNL     1      45.608   4.736  15.841  0.00  0.00    +0.000 HD
BRANCH  12  14
ATOM     14  C   UNL     1      46.488   5.136  14.025  0.00  0.00    +0.000 C 
BRANCH  14  15
ATOM     15  C   UNL     1      45.278   4.910  13.136  0.00  0.00    +0.000 A 
ATOM     16  N   UNL     1      44.495   5.991  12.844  0.00  0.00    +0.000 NA
ATOM     17  C   UNL     1      43.457   5.792  12.002  0.00  0.00    +0.000 A 
ATOM     18  C   UNL     1      43.166   4.575  11.409  0.00  0.00    +0.000 A 
ATOM     19  C   UNL     1      43.983   3.484  11.694  0.00  0.00    +0.000 A 
ATOM     20  C   UNL     1      45.054   3.656  12.564  0.00  0.00    +0.000 A 
BRANCH  20  21
ATOM     21  O   UNL     1      45.887   2.609  12.841  0.00  0.00    +0.000 OA
ATOM     22  H   UNL     1      46.752   2.957  13.116  0.00  0.00    +0.000 HD
ENDBRANCH  20  21
ENDBRANCH  14  15
ENDBRANCH  12  14
ENDBRANCH   4  12
TORSDOF 5
ENDMDL
MODEL 7
REMARK VINA RESULT:    -5.525      3.466      5.481
REMARK INTER + INTRA:          -7.506
REMARK INTER:                  -7.036
REMARK INTRA:                  -0.470
REMARK UNBOUND:                -0.528
REMARK  Name = 
REMARK  5 active torsions:
REMARK  status: ('A' for Active; 'I' for Inactive)
REMARK    1  A    between atoms: C_2  and  C_4
REMARK    2  A    between atoms: C_7  and  N_8
REMARK    3  A    between atoms: N_8  and  C_9
REMARK    4  A    between atoms: C_9  and  C_10
REMARK    5  A    between atoms: C_15  and  O_16
REMARK                            x       y       z     vdW  Elec       q    Type
REMARK                         _______ _______ _______ _____ _____    ______ ____
ROOT
ATOM      1  C   UNL     1      44.992   4.094  11.536  0.00  0.00    +0.000 A 
ATOM      2  C   UNL     1      45.288   5.286  10.869  0.00  0.00    +0.000 A 
ATOM      3  C   UNL     1      45.955   6.319  11.540  0.00  0.00    +0.000 A 
ATOM      4  C   UNL     1      46.314   6.191  12.888  0.00  0.00    +0.000 A 
ATOM      5  C   UNL     1      46.078   4.966  13.518  0.00  0.00    +0.000 A 
ATOM      6  C   UNL     1      45.397   3.933  12.863  0.00  0.00    +0.000 A 
ENDROOT
BRANCH   1   8
ATOM      7  N   UNL     1      44.839   2.307   9.888  0.00  0.00    +0.000 N 
ATOM      8  C   UNL     1      44.218   3.007  10.885  0.00  0.00    +0.000 C 
ATOM      9  O   UNL     1      43.079   2.726  11.235  0.00  0.00    +0.000 OA
ATOM     10  H   UNL     1      44.334   1.513   9.517  0.00  0.00    +0.000 HD
ATOM     11  H   UNL     1      45.840   2.334   9.753  0.00  0.00    +0.000 HD
ENDBRANCH   1   8
BRANCH   4  12
ATOM     12  N   UNL     1      46.940   7.198  13.623  0.00  0.00    +0.000 N 
ATOM     13  H   UNL     1      46.541   7.327  14.553  0.00  0.00    +0.000 HD
BRANCH  12  14
ATOM     14  C   UNL     1      48.406   7.189  13.697  0.00  0.00    +0.000 C 
BRANCH  14  15
ATOM     15  C   UNL     1      48.895   7.269  15.133  0.00  0.00    +0.000 A 
ATOM     16  N   UNL     1      49.853   6.379  15.527  0.00  0.00    +0.000 NA
ATOM     17  C   UNL     1      50.326   6.498  16.787  0.00  0.00    +0.000 A 
ATOM     18  C   UNL     1      49.916   7.477  17.676  0.00  0.00    +0.000 A 
ATOM     19  C   UNL     1      48.957   8.395  17.258  0.00  0.00    +0.000 A 
ATOM     20  C   UNL     1      48.444   8.293  15.969  0.00  0.00    +0.000 A 
BRANCH  20  21
ATOM     21  O   UNL     1      47.521   9.195  15.525  0.00  0.00    +0.000 OA
ATOM     22  H   UNL     1      47.929  10.077  15.493  0.00  0.00    +0.000 HD
ENDBRANCH  20  21
ENDBRANCH  14  15
ENDBRANCH  12  14
ENDBRANCH   4  12
TORSDOF 5
ENDMDL
MODEL 8
REMARK VINA RESULT:    -5.518      4.974      7.877
REMARK INTER + INTRA:          -7.498
REMARK INTER:                  -7.165
REMARK INTRA:                  -0.333
REMARK UNBOUND:                -0.528
REMARK  Name = 
REMARK  5 active torsions:
REMARK  status: ('A' for Active; 'I' for Inactive)
REMARK    1  A    between atoms: C_2  and  C_4
REMARK    2  A    between atoms: C_7  and  N_8
REMARK    3  A    between atoms: N_8  and  C_9
REMARK    4  A    between atoms: C_9  and  C_10
REMARK    5  A    between atoms: C_15  and  O_16
REMARK                            x       y       z     vdW  Elec       q    Type
REMARK                         _______ _______ _______ _____ _____    ______ ____
ROOT
ATOM      1  C   UNL     1      50.718   2.396  17.394  0.00  0.00    +0.000 A 
ATOM      2  C   UNL     1      50.685   3.741  17.770  0.00  0.00    +0.000 A 
ATOM      3  C   UNL     1      49.592   4.542  17.418  0.00  0.00    +0.000 A 
ATOM      4  C   UNL     1      48.529   4.024  16.668  0.00  0.00    +0.000 A 
ATOM      5  C   UNL     1      48.542   2.659  16.365  0.00  0.00    +0.000 A 
ATOM      6  C   UNL     1      49.638   1.853  16.696  0.00  0.00    +0.000 A 
ENDROOT
BRANCH   1   8
ATOM      7  N   UNL     1      51.646   0.263  18.119  0.00  0.00    +0.000 N 
ATOM      8  C   UNL     1      51.894   1.534  17.679  0.00  0.00    +0.000 C 
ATOM      9  O   UNL     1      53.041   1.928  17.507  0.00  0.00    +0.000 OA
ATOM     10  H   UNL     1      52.452  -0.340  18.221  0.00  0.00    +0.000 HD
ATOM     11  H   UNL     1      50.740  -0.172  18.025  0.00  0.00    +0.000 HD
ENDBRANCH   1   8
BRANCH   4  12
ATOM     12  N   UNL     1      47.433   4.779  16.250  0.00  0.00    +0.000 N 
ATOM     13  H   UNL     1      47.602   5.785  16.274  0.00  0.00    +0.000 HD
BRANCH  12  14
ATOM     14  C   UNL     1      46.776   4.405  14.991  0.00  0.00    +0.000 C 
BRANCH  14  15
ATOM     15  C   UNL     1      47.014   5.440  13.906  0.00  0.00    +0.000 A 
ATOM     16  N   UNL     1      48.289   5.899  13.736  0.00  0.00    +0.000 NA
ATOM     17  C   UNL     1      48.501   6.773  12.728  0.00  0.00    +0.000 A 
ATOM     18  C   UNL     1      47.515   7.200  11.855  0.00  0.00    +0.000 A 
ATOM     19  C   UNL     1      46.223   6.709  12.021  0.00  0.00    +0.000 A 
ATOM     20  C   UNL     1      45.971   5.814  13.056  0.00  0.00    +0.000 A 
BRANCH  20  21
ATOM     21  O   UNL     1      44.719   5.297  13.225  0.00  0.00    +0.000 OA
ATOM     22  H   UNL     1      44.667   4.437  12.775  0.00  0.00    +0.000 HD
ENDBRANCH  20  21
ENDBRANCH  14  15
ENDBRANCH  12  14
ENDBRANCH   4  12
TORSDOF 5
ENDMDL
MODEL 9
REMARK VINA RESULT:    -5.464      3.244      5.220
REMARK INTER + INTRA:          -7.430
REMARK INTER:                  -6.970
REMARK INTRA:                  -0.459
REMARK UNBOUND:                -0.528
REMARK  Name = 
REMARK  5 active torsions:
REMARK  status: ('A' for Active; 'I' for Inactive)
REMARK    1  A    between atoms: C_2  and  C_4
REMARK    2  A    between atoms: C_7  and  N_8
REMARK    3  A    between atoms: N_8  and  C_9
REMARK    4  A    between atoms: C_9  and  C_10
REMARK    5  A    between atoms: C_15  and  O_16
REMARK                            x       y       z     vdW  Elec       q    Type
REMARK                         _______ _______ _______ _____ _____    ______ ____
ROOT
ATOM      1  C   UNL     1      44.861   4.569  11.262  0.00  0.00    +0.000 A 
ATOM      2  C   UNL     1      44.947   4.059  12.560  0.00  0.00    +0.000 A 
ATOM      3  C   UNL     1      45.659   4.757  13.543  0.00  0.00    +0.000 A 
ATOM      4  C   UNL     1      46.315   5.958  13.244  0.00  0.00    +0.000 A 
ATOM      5  C   UNL     1      46.157   6.492  11.961  0.00  0.00    +0.000 A 
ATOM      6  C   UNL     1      45.463   5.794  10.966  0.00  0.00    +0.000 A 
ENDROOT
BRANCH   1   8
ATOM      7  N   UNL     1      44.105   4.431   8.951  0.00  0.00    +0.000 N 
ATOM      8  C   UNL     1      44.183   3.821  10.172  0.00  0.00    +0.000 C 
ATOM      9  O   UNL     1      43.731   2.697  10.345  0.00  0.00    +0.000 OA
ATOM     10  H   UNL     1      43.722   3.874   8.197  0.00  0.00    +0.000 HD
ATOM     11  H   UNL     1      44.679   5.224   8.706  0.00  0.00    +0.000 HD
ENDBRANCH   1   8
BRANCH   4  12
ATOM     12  N   UNL     1      47.075   6.678  14.166  0.00  0.00    +0.000 N 
ATOM     13  H   UNL     1      46.538   6.995  14.973  0.00  0.00    +0.000 HD
BRANCH  12  14
ATOM     14  C   UNL     1      48.356   6.106  14.602  0.00  0.00    +0.000 C 
BRANCH  14  15
ATOM     15  C   UNL     1      48.215   5.352  15.913  0.00  0.00    +0.000 A 
ATOM     16  N   UNL     1      48.215   3.987  15.861  0.00  0.00    +0.000 NA
ATOM     17  C   UNL     1      48.152   3.326  17.038  0.00  0.00    +0.000 A 
ATOM     18  C   UNL     1      48.115   3.949  18.274  0.00  0.00    +0.000 A 
ATOM     19  C   UNL     1      48.140   5.340  18.317  0.00  0.00    +0.000 A 
ATOM     20  C   UNL     1      48.195   6.050  17.122  0.00  0.00    +0.000 A 
BRANCH  20  21
ATOM     21  O   UNL     1      48.246   7.414  17.137  0.00  0.00    +0.000 OA
ATOM     22  H   UNL     1      49.175   7.697  17.115  0.00  0.00    +0.000 HD
ENDBRANCH  20  21
ENDBRANCH  14  15
ENDBRANCH  12  14
ENDBRANCH   4  12
TORSDOF 5
ENDMDL
