MODEL 1
REMARK VINA RESULT:    -7.889      0.000      0.000
REMARK INTER + INTRA:         -10.117
REMARK INTER:                  -9.734
REMARK INTRA:                  -0.382
REMARK UNBOUND:                -0.382
REMARK  Name = 
REMARK  5 active torsions:
REMARK  status: ('A' for Active; 'I' for Inactive)
REMARK    1  A    between atoms: C_1  and  C_2
REMARK    2  A    between atoms: C_9  and  C_10
REMARK    3  A    between atoms: C_10  and  O_11
REMARK    4  A    between atoms: O_11  and  C_12
REMARK    5  A    between atoms: C_15  and  C_16
REMARK                            x       y       z     vdW  Elec       q    Type
REMARK                         _______ _______ _______ _____ _____    ______ ____
ROOT
ATOM      1  C   UNL     1      48.715  10.244  11.860  0.00  0.00    +0.000 C 
ATOM      2  C   UNL     1      48.241   8.797  11.933  0.00  0.00    +0.000 C 
ATOM      3  C   UNL     1      46.817   8.726  12.535  0.00  0.00    +0.000 C 
ATOM      4  N   UNL     1      46.433   7.334  12.798  0.00  0.00    +0.000 N 
ATOM      5  C   UNL     1      45.362   6.706  12.198  0.00  0.00    +0.000 A 
ATOM      6  C   UNL     1      44.244   7.414  11.799  0.00  0.00    +0.000 A 
ATOM      7  C   UNL     1      43.197   6.707  11.252  0.00  0.00    +0.000 A 
ATOM      8  N   UNL     1      43.207   5.377  11.088  0.00  0.00    +0.000 NA
ATOM      9  C   UNL     1      44.318   4.745  11.506  0.00  0.00    +0.000 A 
ATOM     10  N   UNL     1      45.391   5.366  12.051  0.00  0.00    +0.000 NA
ATOM     11  C   UNL     1      47.444   6.546  13.517  0.00  0.00    +0.000 C 
ATOM     12  C   UNL     1      48.810   6.688  12.837  0.00  0.00    +0.000 C 
ATOM     13  O   UNL     1      49.194   8.070  12.732  0.00  0.00    +0.000 OA
ENDROOT
BRANCH   9  14
ATOM     14  C   UNL     1      44.337   3.230  11.423  0.00  0.00    +0.000 C 
BRANCH  14  15
ATOM     15  O   UNL     1      43.747   2.767  10.199  0.00  0.00    +0.000 OA
BRANCH  15  16
ATOM     16  C   UNL     1      44.682   2.626   9.194  0.00  0.00    +0.000 A 
ATOM     17  C   UNL     1      44.942   3.721   8.371  0.00  0.00    +0.000 A 
ATOM     18  N   UNL     1      45.865   3.696   7.367  0.00  0.00    +0.000 NA
ATOM     19  C   UNL     1      46.521   2.510   7.232  0.00  0.00    +0.000 A 
ATOM     20  C   UNL     1      46.257   1.417   8.047  0.00  0.00    +0.000 A 
ATOM     21  N   UNL     1      45.334   1.451   9.042  0.00  0.00    +0.000 NA
BRANCH  19  22
ATOM     22  C   UNL     1      47.566   2.384   6.176  0.00  0.00    +0.000 C 
ATOM     23  N   UNL     1      47.440   3.203   5.087  0.00  0.00    +0.000 N 
ATOM     24  O   UNL     1      48.496   1.594   6.271  0.00  0.00    +0.000 OA
ATOM     25  H   UNL     1      46.669   3.857   5.015  0.00  0.00    +0.000 HD
ATOM     26  H   UNL     1      48.137   3.156   4.356  0.00  0.00    +0.000 HD
ENDBRANCH  19  22
ENDBRANCH  15  16
ENDBRANCH  14  15
ENDBRANCH   9  14
TORSDOF 4
ENDMDL
MODEL 2
REMARK VINA RESULT:    -7.529      1.931      6.823
REMARK INTER + INTRA:          -9.672
REMARK INTER:                  -9.130
REMARK INTRA:                  -0.543
REMARK UNBOUND:                -0.382
REMARK  Name = 
REMARK  5 active torsions:
REMARK  status: ('A' for Active; 'I' for Inactive)
REMARK    1  A    between atoms: C_1  and  C_2
REMARK    2  A    between atoms: C_9  and  C_10
REMARK    3  A    between atoms: C_10  and  O_11
REMARK    4  A    between atoms: O_11  and  C_12
REMARK    5  A    between atoms: C_15  and  C_16
REMARK                            x       y       z     vdW  Elec       q    Type
REMARK                         _______ _______ _______ _____ _____    ______ ____
ROOT
ATOM      1  C   UNL     1      46.744  -0.052   7.639  0.00  0.00    +0.000 C 
ATOM      2  C   UNL     1      46.458   1.381   8.073  0.00  0.00    +0.000 C 
ATOM      3  C   UNL     1      45.030   1.493   8.659  0.00  0.00    +0.000 C 
ATOM      4  N   UNL     1      44.671   2.897   8.890  0.00  0.00    +0.000 N 
ATOM      5  C   UNL     1      44.374   3.419  10.131  0.00  0.00    +0.000 A 
ATOM      6  C   UNL     1      43.808   2.640  11.123  0.00  0.00    +0.000 A 
ATOM      7  C   UNL     1      43.497   3.249  12.318  0.00  0.00    +0.000 A 
ATOM      8  N   UNL     1      43.713   4.548  12.567  0.00  0.00    +0.000 NA
ATOM      9  C   UNL     1      44.255   5.254  11.557  0.00  0.00    +0.000 A 
ATOM     10  N   UNL     1      44.592   4.731  10.354  0.00  0.00    +0.000 NA
ATOM     11  C   UNL     1      44.941   3.792   7.756  0.00  0.00    +0.000 C 
ATOM     12  C   UNL     1      46.378   3.599   7.259  0.00  0.00    +0.000 C 
ATOM     13  O   UNL     1      46.627   2.224   6.918  0.00  0.00    +0.000 OA
ENDROOT
BRANCH   9  14
ATOM     14  C   UNL     1      44.433   6.746  11.761  0.00  0.00    +0.000 C 
BRANCH  14  15
ATOM     15  O   UNL     1      45.158   7.025  12.969  0.00  0.00    +0.000 OA
BRANCH  15  16
ATOM     16  C   UNL     1      46.500   7.238  12.731  0.00  0.00    +0.000 A 
ATOM     17  C   UNL     1      47.405   6.239  13.088  0.00  0.00    +0.000 A 
ATOM     18  N   UNL     1      48.748   6.337  12.872  0.00  0.00    +0.000 NA
ATOM     19  C   UNL     1      49.140   7.495  12.271  0.00  0.00    +0.000 A 
ATOM     20  C   UNL     1      48.240   8.493  11.920  0.00  0.00    +0.000 A 
ATOM     21  N   UNL     1      46.905   8.386  12.143  0.00  0.00    +0.000 NA
BRANCH  19  22
ATOM     22  C   UNL     1      50.587   7.693  11.970  0.00  0.00    +0.000 C 
ATOM     23  N   UNL     1      51.391   8.034  13.024  0.00  0.00    +0.000 N 
ATOM     24  O   UNL     1      51.042   7.557  10.843  0.00  0.00    +0.000 OA
ATOM     25  H   UNL     1      51.009   8.144  13.955  0.00  0.00    +0.000 HD
ATOM     26  H   UNL     1      52.381   8.164  12.861  0.00  0.00    +0.000 HD
ENDBRANCH  19  22
ENDBRANCH  15  16
ENDBRANCH  14  15
ENDBRANCH   9  14
TORSDOF 4
ENDMDL
MODEL 3
REMARK VINA RESULT:    -6.960      1.274      1.795
REMARK INTER + INTRA:          -8.970
REMARK INTER:                  -8.518
REMARK INTRA:                  -0.451
REMARK UNBOUND:                -0.382
REMARK  Name = 
REMARK  5 active torsions:
REMARK  status: ('A' for Active; 'I' for Inactive)
REMARK    1  A    between atoms: C_1  and  C_2
REMARK    2  A    between atoms: C_9  and  C_10
REMARK    3  A    between atoms: C_10  and  O_11
REMARK    4  A    between atoms: O_11  and  C_12
REMARK    5  A    between atoms: C_15  and  C_16
REMARK                            x       y       z     vdW  Elec       q    Type
REMARK                         _______ _______ _______ _____ _____    ______ ____
ROOT
ATOM      1  C   UNL     1      50.319  11.074  12.370  0.00  0.00    +0.000 C 
ATOM      2  C   UNL     1      49.600   9.731  12.386  0.00  0.00    +0.000 C 
ATOM      3  C   UNL     1      48.151   9.902  12.901  0.00  0.00    +0.000 C 
ATOM      4  N   UNL     1      47.517   8.595  13.114  0.00  0.00    +0.000 N 
ATOM      5  C   UNL     1      46.393   8.168  12.439  0.00  0.00    +0.000 A 
ATOM      6  C   UNL     1      45.440   9.063  11.990  0.00  0.00    +0.000 A 
ATOM      7  C   UNL     1      44.322   8.552  11.369  0.00  0.00    +0.000 A 
ATOM      8  N   UNL     1      44.113   7.243  11.179  0.00  0.00    +0.000 NA
ATOM      9  C   UNL     1      45.071   6.423  11.648  0.00  0.00    +0.000 A 
ATOM     10  N   UNL     1      46.199   6.845  12.268  0.00  0.00    +0.000 NA
ATOM     11  C   UNL     1      48.331   7.637  13.875  0.00  0.00    +0.000 C 
ATOM     12  C   UNL     1      49.740   7.547  13.279  0.00  0.00    +0.000 C 
ATOM     13  O   UNL     1      50.362   8.843  13.225  0.00  0.00    +0.000 OA
ENDROOT
BRANCH   9  14
ATOM     14  C   UNL     1      44.834   4.930  11.537  0.00  0.00    +0.000 C 
BRANCH  14  15
ATOM     15  O   UNL     1      44.139   4.601  10.323  0.00  0.00    +0.000 OA
BRANCH  15  16
ATOM     16  C   UNL     1      44.977   4.035   9.384  0.00  0.00    +0.000 A 
ATOM     17  C   UNL     1      45.087   2.646   9.343  0.00  0.00    +0.000 A 
ATOM     18  N   UNL     1      45.865   1.986   8.438  0.00  0.00    +0.000 NA
ATOM     19  C   UNL     1      46.528   2.795   7.567  0.00  0.00    +0.000 A 
ATOM     20  C   UNL     1      46.424   4.180   7.611  0.00  0.00    +0.000 A 
ATOM     21  N   UNL     1      45.649   4.827   8.519  0.00  0.00    +0.000 NA
BRANCH  19  22
ATOM     22  C   UNL     1      47.391   2.172   6.522  0.00  0.00    +0.000 C 
ATOM     23  N   UNL     1      47.532   2.866   5.350  0.00  0.00    +0.000 N 
ATOM     24  O   UNL     1      47.952   1.099   6.695  0.00  0.00    +0.000 OA
ATOM     25  H   UNL     1      47.067   3.755   5.213  0.00  0.00    +0.000 HD
ATOM     26  H   UNL     1      48.120   2.481   4.623  0.00  0.00    +0.000 HD
ENDBRANCH  19  22
ENDBRANCH  15  16
ENDBRANCH  14  15
ENDBRANCH   9  14
TORSDOF 4
ENDMDL
MODEL 4
REMARK VINA RESULT:    -6.730      1.956      2.804
REMARK INTER + INTRA:          -8.687
REMARK INTER:                  -8.321
REMARK INTRA:                  -0.365
REMARK UNBOUND:                -0.382
REMARK  Name = 
REMARK  5 active torsions:
REMARK  status: ('A' for Active; 'I' for Inactive)
REMARK    1  A    between atoms: C_1  and  C_2
REMARK    2  A    between atoms: C_9  and  C_10
REMARK    3  A    between atoms: C_10  and  O_11
REMARK    4  A    between atoms: O_11  and  C_12
REMARK    5  A    between atoms: C_15  and  C_16
REMARK                            x       y       z     vdW  Elec       q    Type
REMARK                         _______ _______ _______ _____ _____    ______ ____
ROOT
ATOM      1  C   UNL     1      50.069   8.688  16.867  0.00  0.00    +0.000 C 
ATOM      2  C   UNL     1      49.268   8.528  15.581  0.00  0.00    +0.000 C 
ATOM      3  C   UNL     1      49.262   7.048  15.129  0.00  0.00    +0.000 C 
ATOM      4  N   UNL     1      48.671   6.914  13.793  0.00  0.00    +0.000 N 
ATOM      5  C   UNL     1      47.533   6.183  13.527  0.00  0.00    +0.000 A 
ATOM      6  C   UNL     1      47.197   5.074  14.282  0.00  0.00    +0.000 A 
ATOM      7  C   UNL     1      46.071   4.369  13.920  0.00  0.00    +0.000 A 
ATOM      8  N   UNL     1      45.289   4.701  12.883  0.00  0.00    +0.000 NA
ATOM      9  C   UNL     1      45.676   5.782  12.182  0.00  0.00    +0.000 A 
ATOM     10  N   UNL     1      46.768   6.530  12.473  0.00  0.00    +0.000 NA
ATOM     11  C   UNL     1      49.193   7.859  12.795  0.00  0.00    +0.000 C 
ATOM     12  C   UNL     1      49.151   9.288  13.346  0.00  0.00    +0.000 C 
ATOM     13  O   UNL     1      49.866   9.385  14.590  0.00  0.00    +0.000 OA
ENDROOT
BRANCH   9  14
ATOM     14  C   UNL     1      44.874   6.141  10.946  0.00  0.00    +0.000 C 
BRANCH  14  15
ATOM     15  O   UNL     1      44.050   5.043  10.522  0.00  0.00    +0.000 OA
BRANCH  15  16
ATOM     16  C   UNL     1      44.730   4.178   9.688  0.00  0.00    +0.000 A 
ATOM     17  C   UNL     1      45.542   4.715   8.692  0.00  0.00    +0.000 A 
ATOM     18  N   UNL     1      46.276   3.950   7.834  0.00  0.00    +0.000 NA
ATOM     19  C   UNL     1      46.155   2.608   8.031  0.00  0.00    +0.000 A 
ATOM     20  C   UNL     1      45.341   2.070   9.020  0.00  0.00    +0.000 A 
ATOM     21  N   UNL     1      44.612   2.842   9.867  0.00  0.00    +0.000 NA
BRANCH  19  22
ATOM     22  C   UNL     1      46.933   1.681   7.159  0.00  0.00    +0.000 C 
ATOM     23  N   UNL     1      46.941   0.361   7.521  0.00  0.00    +0.000 N 
ATOM     24  O   UNL     1      47.534   2.071   6.167  0.00  0.00    +0.000 OA
ATOM     25  H   UNL     1      46.440   0.044   8.342  0.00  0.00    +0.000 HD
ATOM     26  H   UNL     1      47.447  -0.300   6.946  0.00  0.00    +0.000 HD
ENDBRANCH  19  22
ENDBRANCH  15  16
ENDBRANCH  14  15
ENDBRANCH   9  14
TORSDOF 4
ENDMDL
MODEL 5
REMARK VINA RESULT:    -6.635      4.738      7.959
REMARK INTER + INTRA:          -8.568
REMARK INTER:                  -8.060
REMARK INTRA:                  -0.508
REMARK UNBOUND:                -0.382
REMARK  Name = 
REMARK  5 active torsions:
REMARK  status: ('A' for Active; 'I' for Inactive)
REMARK    1  A    between atoms: C_1  and  C_2
REMARK    2  A    between atoms: C_9  and  C_10
REMARK    3  A    between atoms: C_10  and  O_11
REMARK    4  A    between atoms: O_11  and  C_12
REMARK    5  A    between atoms: C_15  and  C_16
REMARK                            x       y       z     vdW  Elec       q    Type
REMARK                         _______ _______ _______ _____ _____    ______ ____
ROOT
ATOM      1  C   UNL     1      52.863   1.099  18.051  0.00  0.00    +0.000 C 
ATOM      2  C   UNL     1      51.838   2.010  17.387  0.00  0.00    +0.000 C 
ATOM      3  C   UNL     1      51.723   3.346  18.158  0.00  0.00    +0.000 C 
ATOM      4  N   UNL     1      50.600   4.145  17.651  0.00  0.00    +0.000 N 
ATOM      5  C   UNL     1      50.741   5.391  17.079  0.00  0.00    +0.000 A 
ATOM      6  C   UNL     1      51.768   6.241  17.447  0.00  0.00    +0.000 A 
ATOM      7  C   UNL     1      51.809   7.487  16.865  0.00  0.00    +0.000 A 
ATOM      8  N   UNL     1      50.913   7.916  15.965  0.00  0.00    +0.000 NA
ATOM      9  C   UNL     1      49.933   7.047  15.657  0.00  0.00    +0.000 A 
ATOM     10  N   UNL     1      49.822   5.804  16.183  0.00  0.00    +0.000 NA
ATOM     11  C   UNL     1      49.338   3.405  17.512  0.00  0.00    +0.000 C 
ATOM     12  C   UNL     1      49.568   2.105  16.735  0.00  0.00    +0.000 C 
ATOM     13  O   UNL     1      50.584   1.302  17.359  0.00  0.00    +0.000 OA
ENDROOT
BRANCH   9  14
ATOM     14  C   UNL     1      48.845   7.522  14.713  0.00  0.00    +0.000 C 
BRANCH  14  15
ATOM     15  O   UNL     1      48.743   6.668  13.563  0.00  0.00    +0.000 OA
BRANCH  15  16
ATOM     16  C   UNL     1      47.472   6.151  13.413  0.00  0.00    +0.000 A 
ATOM     17  C   UNL     1      47.217   4.868  13.892  0.00  0.00    +0.000 A 
ATOM     18  N   UNL     1      45.991   4.274  13.819  0.00  0.00    +0.000 NA
ATOM     19  C   UNL     1      45.026   5.041  13.240  0.00  0.00    +0.000 A 
ATOM     20  C   UNL     1      45.281   6.319  12.757  0.00  0.00    +0.000 A 
ATOM     21  N   UNL     1      46.507   6.899  12.832  0.00  0.00    +0.000 NA
BRANCH  19  22
ATOM     22  C   UNL     1      43.644   4.494  13.129  0.00  0.00    +0.000 C 
ATOM     23  N   UNL     1      42.631   5.406  13.005  0.00  0.00    +0.000 N 
ATOM     24  O   UNL     1      43.416   3.292  13.143  0.00  0.00    +0.000 OA
ATOM     25  H   UNL     1      42.826   6.400  12.992  0.00  0.00    +0.000 HD
ATOM     26  H   UNL     1      41.681   5.072  12.914  0.00  0.00    +0.000 HD
ENDBRANCH  19  22
ENDBRANCH  15  16
ENDBRANCH  14  15
ENDBRANCH   9  14
TORSDOF 4
ENDMDL
MODEL 6
REMARK VINA RESULT:    -6.413      3.538      6.267
REMARK INTER + INTRA:          -8.295
REMARK INTER:                  -7.815
REMARK INTRA:                  -0.480
REMARK UNBOUND:                -0.382
REMARK  Name = 
REMARK  5 active torsions:
REMARK  status: ('A' for Active; 'I' for Inactive)
REMARK    1  A    between atoms: C_1  and  C_2
REMARK    2  A    between atoms: C_9  and  C_10
REMARK    3  A    between atoms: C_10  and  O_11
REMARK    4  A    between atoms: O_11  and  C_12
REMARK    5  A    between atoms: C_15  and  C_16
REMARK                            x       y       z     vdW  Elec       q    Type
REMARK                         _______ _______ _______ _____ _____    ______ ____
ROOT
ATOM      1  C   UNL     1      51.953   3.571  18.539  0.00  0.00    +0.000 C 
ATOM      2  C   UNL     1      50.921   4.035  17.518  0.00  0.00    +0.000 C 
ATOM      3  C   UNL     1      50.868   5.581  17.469  0.00  0.00    +0.000 C 
ATOM      4  N   UNL     1      49.743   6.037  16.643  0.00  0.00    +0.000 N 
ATOM      5  C   UNL     1      49.888   6.788  15.497  0.00  0.00    +0.000 A 
ATOM      6  C   UNL     1      50.947   7.662  15.337  0.00  0.00    +0.000 A 
ATOM      7  C   UNL     1      50.992   8.412  14.184  0.00  0.00    +0.000 A 
ATOM      8  N   UNL     1      50.070   8.338  13.215  0.00  0.00    +0.000 NA
ATOM      9  C   UNL     1      49.059   7.478  13.434  0.00  0.00    +0.000 A 
ATOM     10  N   UNL     1      48.942   6.704  14.539  0.00  0.00    +0.000 NA
ATOM     11  C   UNL     1      48.460   5.387  16.945  0.00  0.00    +0.000 C 
ATOM     12  C   UNL     1      48.629   3.864  16.967  0.00  0.00    +0.000 C 
ATOM     13  O   UNL     1      49.653   3.470  17.897  0.00  0.00    +0.000 OA
ENDROOT
BRANCH   9  14
ATOM     14  C   UNL     1      47.945   7.428  12.407  0.00  0.00    +0.000 C 
BRANCH  14  15
ATOM     15  O   UNL     1      46.660   7.296  13.035  0.00  0.00    +0.000 OA
BRANCH  15  16
ATOM     16  C   UNL     1      45.968   6.195  12.574  0.00  0.00    +0.000 A 
ATOM     17  C   UNL     1      45.612   6.151  11.227  0.00  0.00    +0.000 A 
ATOM     18  N   UNL     1      44.952   5.099  10.664  0.00  0.00    +0.000 NA
ATOM     19  C   UNL     1      44.667   4.084  11.526  0.00  0.00    +0.000 A 
ATOM     20  C   UNL     1      45.016   4.129  12.870  0.00  0.00    +0.000 A 
ATOM     21  N   UNL     1      45.671   5.184  13.421  0.00  0.00    +0.000 NA
BRANCH  19  22
ATOM     22  C   UNL     1      43.965   2.876  11.007  0.00  0.00    +0.000 C 
ATOM     23  N   UNL     1      44.520   2.265   9.915  0.00  0.00    +0.000 N 
ATOM     24  O   UNL     1      42.946   2.441  11.526  0.00  0.00    +0.000 OA
ATOM     25  H   UNL     1      45.365   2.628   9.490  0.00  0.00    +0.000 HD
ATOM     26  H   UNL     1      44.079   1.435   9.542  0.00  0.00    +0.000 HD
ENDBRANCH  19  22
ENDBRANCH  15  16
ENDBRANCH  14  15
ENDBRANCH   9  14
TORSDOF 4
ENDMDL
MODEL 7
REMARK VINA RESULT:    -6.369      5.638      8.845
REMARK INTER + INTRA:          -8.240
REMARK INTER:                  -8.061
REMARK INTRA:                  -0.179
REMARK UNBOUND:                -0.382
REMARK  Name = 
REMARK  5 active torsions:
REMARK  status: ('A' for Active; 'I' for Inactive)
REMARK    1  A    between atoms: C_1  and  C_2
REMARK    2  A    between atoms: C_9  and  C_10
REMARK    3  A    between atoms: C_10  and  O_11
REMARK    4  A    between atoms: O_11  and  C_12
REMARK    5  A    between atoms: C_15  and  C_16
REMARK                            x       y       z     vdW  Elec       q    Type
REMARK                         _______ _______ _______ _____ _____    ______ ____
ROOT
ATOM      1  C   UNL     1      42.808   6.340  11.050  0.00  0.00    +0.000 C 
ATOM      2  C   UNL     1      43.562   5.411  11.993  0.00  0.00    +0.000 C 
ATOM      3  C   UNL     1      45.086   5.657  11.888  0.00  0.00    +0.000 C 
ATOM      4  N   UNL     1      45.831   4.637  12.635  0.00  0.00    +0.000 N 
ATOM      5  C   UNL     1      46.653   4.916  13.706  0.00  0.00    +0.000 A 
ATOM      6  C   UNL     1      47.319   6.123  13.806  0.00  0.00    +0.000 A 
ATOM      7  C   UNL     1      48.160   6.305  14.881  0.00  0.00    +0.000 A 
ATOM      8  N   UNL     1      48.363   5.379  15.828  0.00  0.00    +0.000 NA
ATOM      9  C   UNL     1      47.695   4.222  15.667  0.00  0.00    +0.000 A 
ATOM     10  N   UNL     1      46.850   3.965  14.641  0.00  0.00    +0.000 NA
ATOM     11  C   UNL     1      45.412   3.254  12.365  0.00  0.00    +0.000 C 
ATOM     12  C   UNL     1      43.891   3.125  12.498  0.00  0.00    +0.000 C 
ATOM     13  O   UNL     1      43.216   4.060  11.638  0.00  0.00    +0.000 OA
ENDROOT
BRANCH   9  14
ATOM     14  C   UNL     1      47.965   3.112  16.665  0.00  0.00    +0.000 C 
BRANCH  14  15
ATOM     15  O   UNL     1      48.993   2.227  16.196  0.00  0.00    +0.000 OA
BRANCH  15  16
ATOM     16  C   UNL     1      50.170   2.381  16.900  0.00  0.00    +0.000 A 
ATOM     17  C   UNL     1      50.997   1.271  17.063  0.00  0.00    +0.000 A 
ATOM     18  N   UNL     1      52.193   1.322  17.717  0.00  0.00    +0.000 NA
ATOM     19  C   UNL     1      52.521   2.552  18.200  0.00  0.00    +0.000 A 
ATOM     20  C   UNL     1      51.695   3.658  18.042  0.00  0.00    +0.000 A 
ATOM     21  N   UNL     1      50.504   3.596  17.392  0.00  0.00    +0.000 NA
BRANCH  19  22
ATOM     22  C   UNL     1      53.819   2.721  18.914  0.00  0.00    +0.000 C 
ATOM     23  N   UNL     1      54.291   1.631  19.593  0.00  0.00    +0.000 N 
ATOM     24  O   UNL     1      54.440   3.775  18.896  0.00  0.00    +0.000 OA
ATOM     25  H   UNL     1      53.774   0.760  19.603  0.00  0.00    +0.000 HD
ATOM     26  H   UNL     1      55.176   1.703  20.079  0.00  0.00    +0.000 HD
ENDBRANCH  19  22
ENDBRANCH  15  16
ENDBRANCH  14  15
ENDBRANCH   9  14
TORSDOF 4
ENDMDL
MODEL 8
REMARK VINA RESULT:    -6.136      4.868      7.380
REMARK INTER + INTRA:          -7.954
REMARK INTER:                  -7.463
REMARK INTRA:                  -0.491
REMARK UNBOUND:                -0.382
REMARK  Name = 
REMARK  5 active torsions:
REMARK  status: ('A' for Active; 'I' for Inactive)
REMARK    1  A    between atoms: C_1  and  C_2
REMARK    2  A    between atoms: C_9  and  C_10
REMARK    3  A    between atoms: C_10  and  O_11
REMARK    4  A    between atoms: O_11  and  C_12
REMARK    5  A    between atoms: C_15  and  C_16
REMARK                            x       y       z     vdW  Elec       q    Type
REMARK                         _______ _______ _______ _____ _____    ______ ____
ROOT
ATOM      1  C   UNL     1      51.668   8.943  10.565  0.00  0.00    +0.000 C 
ATOM      2  C   UNL     1      51.061   8.182  11.738  0.00  0.00    +0.000 C 
ATOM      3  C   UNL     1      49.526   8.378  11.772  0.00  0.00    +0.000 C 
ATOM      4  N   UNL     1      48.958   7.821  13.005  0.00  0.00    +0.000 N 
ATOM      5  C   UNL     1      48.040   6.793  13.032  0.00  0.00    +0.000 A 
ATOM      6  C   UNL     1      47.144   6.601  11.997  0.00  0.00    +0.000 A 
ATOM      7  C   UNL     1      46.226   5.583  12.122  0.00  0.00    +0.000 A 
ATOM      8  N   UNL     1      46.158   4.773  13.188  0.00  0.00    +0.000 NA
ATOM      9  C   UNL     1      47.049   5.018  14.166  0.00  0.00    +0.000 A 
ATOM     10  N   UNL     1      47.984   5.998  14.119  0.00  0.00    +0.000 NA
ATOM     11  C   UNL     1      49.656   8.221  14.235  0.00  0.00    +0.000 C 
ATOM     12  C   UNL     1      51.163   7.984  14.091  0.00  0.00    +0.000 C 
ATOM     13  O   UNL     1      51.687   8.669  12.939  0.00  0.00    +0.000 OA
ENDROOT
BRANCH   9  14
ATOM     14  C   UNL     1      46.951   4.186  15.430  0.00  0.00    +0.000 C 
BRANCH  14  15
ATOM     15  O   UNL     1      47.756   4.738  16.483  0.00  0.00    +0.000 OA
BRANCH  15  16
ATOM     16  C   UNL     1      48.826   3.925  16.797  0.00  0.00    +0.000 A 
ATOM     17  C   UNL     1      48.752   2.573  16.468  0.00  0.00    +0.000 A 
ATOM     18  N   UNL     1      49.763   1.690  16.709  0.00  0.00    +0.000 NA
ATOM     19  C   UNL     1      50.862   2.237  17.300  0.00  0.00    +0.000 A 
ATOM     20  C   UNL     1      50.934   3.584  17.635  0.00  0.00    +0.000 A 
ATOM     21  N   UNL     1      49.920   4.454  17.392  0.00  0.00    +0.000 NA
BRANCH  19  22
ATOM     22  C   UNL     1      52.033   1.361  17.589  0.00  0.00    +0.000 C 
ATOM     23  N   UNL     1      51.761   0.126  18.112  0.00  0.00    +0.000 N 
ATOM     24  O   UNL     1      53.183   1.718  17.370  0.00  0.00    +0.000 OA
ATOM     25  H   UNL     1      50.807  -0.165  18.289  0.00  0.00    +0.000 HD
ATOM     26  H   UNL     1      52.529  -0.502  18.308  0.00  0.00    +0.000 HD
ENDBRANCH  19  22
ENDBRANCH  15  16
ENDBRANCH  14  15
ENDBRANCH   9  14
TORSDOF 4
ENDMDL
MODEL 9
REMARK VINA RESULT:    -6.044      5.762      8.637
REMARK INTER + INTRA:          -7.840
REMARK INTER:                  -7.392
REMARK INTRA:                  -0.448
REMARK UNBOUND:                -0.382
REMARK  Name = 
REMARK  5 active torsions:
REMARK  status: ('A' for Active; 'I' for Inactive)
REMARK    1  A    between atoms: C_1  and  C_2
REMARK    2  A    between atoms: C_9  and  C_10
REMARK    3  A    between atoms: C_10  and  O_11
REMARK    4  A    between atoms: O_11  and  C_12
REMARK    5  A    between atoms: C_15  and  C_16
REMARK                            x       y       z     vdW  Elec       q    Type
REMARK                         _______ _______ _______ _____ _____    ______ ____
ROOT
ATOM      1  C   UNL     1      44.297   7.316  11.308  0.00  0.00    +0.000 C 
ATOM      2  C   UNL     1      45.086   6.683  12.448  0.00  0.00    +0.000 C 
ATOM      3  C   UNL     1      46.603   6.731  12.145  0.00  0.00    +0.000 C 
ATOM      4  N   UNL     1      47.356   5.948  13.133  0.00  0.00    +0.000 N 
ATOM      5  C   UNL     1      48.304   6.485  13.977  0.00  0.00    +0.000 A 
ATOM      6  C   UNL     1      49.054   7.587  13.609  0.00  0.00    +0.000 A 
ATOM      7  C   UNL     1      50.015   8.031  14.489  0.00  0.00    +0.000 A 
ATOM      8  N   UNL     1      50.258   7.457  15.675  0.00  0.00    +0.000 NA
ATOM      9  C   UNL     1      49.503   6.382  15.969  0.00  0.00    +0.000 A 
ATOM     10  N   UNL     1      48.537   5.884  15.161  0.00  0.00    +0.000 NA
ATOM     11  C   UNL     1      46.821   4.601  13.381  0.00  0.00    +0.000 C 
ATOM     12  C   UNL     1      45.318   4.673  13.670  0.00  0.00    +0.000 C 
ATOM     13  O   UNL     1      44.617   5.331  12.600  0.00  0.00    +0.000 OA
ENDROOT
BRANCH   9  14
ATOM     14  C   UNL     1      49.804   5.645  17.260  0.00  0.00    +0.000 C 
BRANCH  14  15
ATOM     15  O   UNL     1      49.337   4.288  17.208  0.00  0.00    +0.000 OA
BRANCH  15  16
ATOM     16  C   UNL     1      50.356   3.381  17.410  0.00  0.00    +0.000 A 
ATOM     17  C   UNL     1      50.144   2.052  17.048  0.00  0.00    +0.000 A 
ATOM     18  N   UNL     1      51.094   1.082  17.180  0.00  0.00    +0.000 NA
ATOM     19  C   UNL     1      52.278   1.518  17.695  0.00  0.00    +0.000 A 
ATOM     20  C   UNL     1      52.488   2.841  18.062  0.00  0.00    +0.000 A 
ATOM     21  N   UNL     1      51.534   3.798  17.929  0.00  0.00    +0.000 NA
BRANCH  19  22
ATOM     22  C   UNL     1      53.392   0.540  17.862  0.00  0.00    +0.000 C 
ATOM     23  N   UNL     1      53.738  -0.190  16.757  0.00  0.00    +0.000 N 
ATOM     24  O   UNL     1      53.975   0.394  18.927  0.00  0.00    +0.000 OA
ATOM     25  H   UNL     1      53.253  -0.062  15.877  0.00  0.00    +0.000 HD
ATOM     26  H   UNL     1      54.498  -0.853  16.828  0.00  0.00    +0.000 HD
ENDBRANCH  19  22
ENDBRANCH  15  16
ENDBRANCH  14  15
ENDBRANCH   9  14
TORSDOF 4
ENDMDL
