MODEL 1
REMARK VINA RESULT:    -7.995      0.000      0.000
REMARK INTER + INTRA:         -11.395
REMARK INTER:                 -10.566
REMARK INTRA:                  -0.829
REMARK UNBOUND:                -0.829
REMARK  Name = 
REMARK  7 active torsions:
REMARK  status: ('A' for Active; 'I' for Inactive)
REMARK    1  A    between atoms: C_1  and  C_2
REMARK    2  A    between atoms: C_2  and  N_3
REMARK    3  A    between atoms: C_2  and  C_4
REMARK    4  A    between atoms: C_4  and  C_5
REMARK    5  A    between atoms: C_8  and  C_9
REMARK    6  A    between atoms: C_9  and  N_10
REMARK    7  A    between atoms: C_15  and  C_16
REMARK                            x       y       z     vdW  Elec       q    Type
REMARK                         _______ _______ _______ _____ _____    ______ ____
ROOT
ATOM      1  N   UNL     1      43.864   4.335  10.511  0.00  0.00    +0.000 N 
ATOM      2  C   UNL     1      43.375   3.205  11.113  0.00  0.00    +0.000 A 
ATOM      3  N   UNL     1      43.854   2.113  10.563  0.00  0.00    +0.000 NA
ATOM      4  C   UNL     1      44.672   2.549   9.551  0.00  0.00    +0.000 A 
ATOM      5  C   UNL     1      45.545   1.815   8.738  0.00  0.00    +0.000 A 
ATOM      6  C   UNL     1      46.343   2.493   7.803  0.00  0.00    +0.000 A 
ATOM      7  C   UNL     1      46.153   3.867   7.587  0.00  0.00    +0.000 A 
ATOM      8  C   UNL     1      45.274   4.615   8.389  0.00  0.00    +0.000 A 
ATOM      9  C   UNL     1      44.602   3.933   9.413  0.00  0.00    +0.000 A 
ENDROOT
BRANCH   6  10
ATOM     10  C   UNL     1      47.431   1.704   7.154  0.00  0.00    +0.000 C 
ATOM     11  N   UNL     1      48.438   2.361   6.505  0.00  0.00    +0.000 N 
ATOM     12  O   UNL     1      47.471   0.480   7.235  0.00  0.00    +0.000 OA
ATOM     13  H   UNL     1      48.510   3.357   6.383  0.00  0.00    +0.000 HD
ATOM     14  H   UNL     1      49.192   1.783   6.154  0.00  0.00    +0.000 HD
ENDBRANCH   6  10
BRANCH   1  15
ATOM     15  C   UNL     1      43.989   5.636  11.161  0.00  0.00    +0.000 C 
BRANCH  15  19
ATOM     16  C   UNL     1      47.731   6.334  13.250  0.00  0.00    +0.000 A 
ATOM     17  C   UNL     1      46.771   5.466  13.781  0.00  0.00    +0.000 A 
ATOM     18  C   UNL     1      45.567   5.233  13.105  0.00  0.00    +0.000 A 
ATOM     19  C   UNL     1      45.289   5.876  11.887  0.00  0.00    +0.000 A 
ATOM     20  C   UNL     1      46.257   6.732  11.349  0.00  0.00    +0.000 A 
ATOM     21  C   UNL     1      47.464   6.952  12.021  0.00  0.00    +0.000 A 
BRANCH  16  22
ATOM     22  C   UNL     1      49.000   6.671  14.010  0.00  0.00    +0.000 C 
BRANCH  22  24
ATOM     23  C   UNL     1      48.904   8.175  16.034  0.00  0.00    +0.000 C 
ATOM     24  C   UNL     1      48.883   6.721  15.550  0.00  0.00    +0.000 C 
BRANCH  24  25
ATOM     25  N   UNL     1      49.969   6.002  16.219  0.00  0.00    +0.000 NA
ATOM     26  H   UNL     1      50.429   6.614  16.893  0.00  0.00    +0.000 HD
ATOM     27  H   UNL     1      50.689   5.766  15.529  0.00  0.00    +0.000 HD
ENDBRANCH  24  25
ENDBRANCH  22  24
ENDBRANCH  16  22
ENDBRANCH  15  19
ENDBRANCH   1  15
TORSDOF 6
ENDMDL
MODEL 2
REMARK VINA RESULT:    -7.800      2.601      6.857
REMARK INTER + INTRA:         -11.138
REMARK INTER:                 -10.633
REMARK INTRA:                  -0.505
REMARK UNBOUND:                -0.829
REMARK  Name = 
REMARK  7 active torsions:
REMARK  status: ('A' for Active; 'I' for Inactive)
REMARK    1  A    between atoms: C_1  and  C_2
REMARK    2  A    between atoms: C_2  and  N_3
REMARK    3  A    between atoms: C_2  and  C_4
REMARK    4  A    between atoms: C_4  and  C_5
REMARK    5  A    between atoms: C_8  and  C_9
REMARK    6  A    between atoms: C_9  and  N_10
REMARK    7  A    between atoms: C_15  and  C_16
REMARK                            x       y       z     vdW  Elec       q    Type
REMARK                         _______ _______ _______ _____ _____    ______ ____
ROOT
ATOM      1  N   UNL     1      43.844   5.922  11.588  0.00  0.00    +0.000 N 
ATOM      2  C   UNL     1      43.675   7.194  11.106  0.00  0.00    +0.000 A 
ATOM      3  N   UNL     1      44.680   7.975  11.428  0.00  0.00    +0.000 NA
ATOM      4  C   UNL     1      45.528   7.186  12.164  0.00  0.00    +0.000 A 
ATOM      5  C   UNL     1      46.817   7.468  12.634  0.00  0.00    +0.000 A 
ATOM      6  C   UNL     1      47.531   6.468  13.316  0.00  0.00    +0.000 A 
ATOM      7  C   UNL     1      46.897   5.261  13.649  0.00  0.00    +0.000 A 
ATOM      8  C   UNL     1      45.601   4.968  13.191  0.00  0.00    +0.000 A 
ATOM      9  C   UNL     1      44.972   5.928  12.388  0.00  0.00    +0.000 A 
ENDROOT
BRANCH   6  10
ATOM     10  C   UNL     1      48.979   6.730  13.562  0.00  0.00    +0.000 C 
ATOM     11  N   UNL     1      49.771   7.132  12.523  0.00  0.00    +0.000 N 
ATOM     12  O   UNL     1      49.464   6.644  14.685  0.00  0.00    +0.000 OA
ATOM     13  H   UNL     1      49.480   7.242  11.567  0.00  0.00    +0.000 HD
ATOM     14  H   UNL     1      50.725   7.375  12.761  0.00  0.00    +0.000 HD
ENDBRANCH   6  10
BRANCH   1  15
ATOM     15  C   UNL     1      43.254   4.724  10.998  0.00  0.00    +0.000 C 
BRANCH  15  19
ATOM     16  C   UNL     1      45.841   2.507   8.306  0.00  0.00    +0.000 A 
ATOM     17  C   UNL     1      44.956   1.836   9.156  0.00  0.00    +0.000 A 
ATOM     18  C   UNL     1      44.115   2.549  10.019  0.00  0.00    +0.000 A 
ATOM     19  C   UNL     1      44.151   3.953  10.062  0.00  0.00    +0.000 A 
ATOM     20  C   UNL     1      45.025   4.624   9.199  0.00  0.00    +0.000 A 
ATOM     21  C   UNL     1      45.855   3.908   8.329  0.00  0.00    +0.000 A 
BRANCH  16  22
ATOM     22  C   UNL     1      46.824   1.753   7.430  0.00  0.00    +0.000 C 
BRANCH  22  24
ATOM     23  C   UNL     1      46.577   3.035   5.270  0.00  0.00    +0.000 C 
ATOM     24  C   UNL     1      47.561   2.584   6.355  0.00  0.00    +0.000 C 
BRANCH  24  25
ATOM     25  N   UNL     1      48.640   1.835   5.709  0.00  0.00    +0.000 NA
ATOM     26  H   UNL     1      48.382   0.851   5.628  0.00  0.00    +0.000 HD
ATOM     27  H   UNL     1      49.467   1.850   6.314  0.00  0.00    +0.000 HD
ENDBRANCH  24  25
ENDBRANCH  22  24
ENDBRANCH  16  22
ENDBRANCH  15  19
ENDBRANCH   1  15
TORSDOF 6
ENDMDL
MODEL 3
REMARK VINA RESULT:    -7.364      1.545      2.064
REMARK INTER + INTRA:         -10.561
REMARK INTER:                  -9.693
REMARK INTRA:                  -0.868
REMARK UNBOUND:                -0.829
REMARK  Name = 
REMARK  7 active torsions:
REMARK  status: ('A' for Active; 'I' for Inactive)
REMARK    1  A    between atoms: C_1  and  C_2
REMARK    2  A    between atoms: C_2  and  N_3
REMARK    3  A    between atoms: C_2  and  C_4
REMARK    4  A    between atoms: C_4  and  C_5
REMARK    5  A    between atoms: C_8  and  C_9
REMARK    6  A    between atoms: C_9  and  N_10
REMARK    7  A    between atoms: C_15  and  C_16
REMARK                            x       y       z     vdW  Elec       q    Type
REMARK                         _______ _______ _______ _____ _____    ______ ____
ROOT
ATOM      1  N   UNL     1      43.542   4.542  11.009  0.00  0.00    +0.000 N 
ATOM      2  C   UNL     1      43.043   3.446  11.664  0.00  0.00    +0.000 A 
ATOM      3  N   UNL     1      43.456   2.323  11.123  0.00  0.00    +0.000 NA
ATOM      4  C   UNL     1      44.240   2.703  10.062  0.00  0.00    +0.000 A 
ATOM      5  C   UNL     1      45.047   1.916   9.231  0.00  0.00    +0.000 A 
ATOM      6  C   UNL     1      45.824   2.541   8.241  0.00  0.00    +0.000 A 
ATOM      7  C   UNL     1      45.672   3.914   7.997  0.00  0.00    +0.000 A 
ATOM      8  C   UNL     1      44.859   4.715   8.818  0.00  0.00    +0.000 A 
ATOM      9  C   UNL     1      44.212   4.085   9.889  0.00  0.00    +0.000 A 
ENDROOT
BRANCH   6  10
ATOM     10  C   UNL     1      46.852   1.696   7.564  0.00  0.00    +0.000 C 
ATOM     11  N   UNL     1      46.758   0.335   7.648  0.00  0.00    +0.000 N 
ATOM     12  O   UNL     1      47.747   2.194   6.890  0.00  0.00    +0.000 OA
ATOM     13  H   UNL     1      46.064  -0.178   8.166  0.00  0.00    +0.000 HD
ATOM     14  H   UNL     1      47.431  -0.191   7.104  0.00  0.00    +0.000 HD
ENDBRANCH   6  10
BRANCH   1  15
ATOM     15  C   UNL     1      43.743   5.853  11.617  0.00  0.00    +0.000 C 
BRANCH  15  19
ATOM     16  C   UNL     1      47.831   6.768  12.761  0.00  0.00    +0.000 A 
ATOM     17  C   UNL     1      47.144   7.588  11.859  0.00  0.00    +0.000 A 
ATOM     18  C   UNL     1      45.823   7.299  11.495  0.00  0.00    +0.000 A 
ATOM     19  C   UNL     1      45.162   6.173  12.015  0.00  0.00    +0.000 A 
ATOM     20  C   UNL     1      45.845   5.363  12.929  0.00  0.00    +0.000 A 
ATOM     21  C   UNL     1      47.161   5.662  13.301  0.00  0.00    +0.000 A 
BRANCH  16  22
ATOM     22  C   UNL     1      49.290   7.010  13.098  0.00  0.00    +0.000 C 
BRANCH  22  24
ATOM     23  C   UNL     1      50.817   7.848  11.272  0.00  0.00    +0.000 C 
ATOM     24  C   UNL     1      49.941   8.259  12.460  0.00  0.00    +0.000 C 
BRANCH  24  25
ATOM     25  N   UNL     1      50.776   9.001  13.406  0.00  0.00    +0.000 NA
ATOM     26  H   UNL     1      50.738   8.561  14.325  0.00  0.00    +0.000 HD
ATOM     27  H   UNL     1      50.382   9.938  13.536  0.00  0.00    +0.000 HD
ENDBRANCH  24  25
ENDBRANCH  22  24
ENDBRANCH  16  22
ENDBRANCH  15  19
ENDBRANCH   1  15
TORSDOF 6
ENDMDL
MODEL 4
REMARK VINA RESULT:    -6.756      3.098      7.498
REMARK INTER + INTRA:          -9.758
REMARK INTER:                  -9.448
REMARK INTRA:                  -0.310
REMARK UNBOUND:                -0.829
REMARK  Name = 
REMARK  7 active torsions:
REMARK  status: ('A' for Active; 'I' for Inactive)
REMARK    1  A    between atoms: C_1  and  C_2
REMARK    2  A    between atoms: C_2  and  N_3
REMARK    3  A    between atoms: C_2  and  C_4
REMARK    4  A    between atoms: C_4  and  C_5
REMARK    5  A    between atoms: C_8  and  C_9
REMARK    6  A    between atoms: C_9  and  N_10
REMARK    7  A    between atoms: C_15  and  C_16
REMARK                            x       y       z     vdW  Elec       q    Type
REMARK                         _______ _______ _______ _____ _____    ______ ____
ROOT
ATOM      1  N   UNL     1      46.216   4.977  12.547  0.00  0.00    +0.000 N 
ATOM      2  C   UNL     1      46.397   4.182  13.649  0.00  0.00    +0.000 A 
ATOM      3  N   UNL     1      47.195   4.741  14.528  0.00  0.00    +0.000 NA
ATOM      4  C   UNL     1      47.563   5.939  13.968  0.00  0.00    +0.000 A 
ATOM      5  C   UNL     1      48.286   6.997  14.535  0.00  0.00    +0.000 A 
ATOM      6  C   UNL     1      48.486   8.168  13.786  0.00  0.00    +0.000 A 
ATOM      7  C   UNL     1      48.096   8.210  12.438  0.00  0.00    +0.000 A 
ATOM      8  C   UNL     1      47.378   7.153  11.854  0.00  0.00    +0.000 A 
ATOM      9  C   UNL     1      47.065   6.060  12.673  0.00  0.00    +0.000 A 
ENDROOT
BRANCH   6  10
ATOM     10  C   UNL     1      49.028   9.348  14.521  0.00  0.00    +0.000 C 
ATOM     11  N   UNL     1      48.461  10.576  14.324  0.00  0.00    +0.000 N 
ATOM     12  O   UNL     1      49.935   9.232  15.338  0.00  0.00    +0.000 OA
ATOM     13  H   UNL     1      47.711  10.784  13.686  0.00  0.00    +0.000 HD
ATOM     14  H   UNL     1      48.812  11.326  14.908  0.00  0.00    +0.000 HD
ENDBRANCH   6  10
BRANCH   1  15
ATOM     15  C   UNL     1      45.041   4.943  11.681  0.00  0.00    +0.000 C 
BRANCH  15  19
ATOM     16  C   UNL     1      45.708   3.343   7.700  0.00  0.00    +0.000 A 
ATOM     17  C   UNL     1      45.060   2.577   8.675  0.00  0.00    +0.000 A 
ATOM     18  C   UNL     1      44.837   3.094   9.957  0.00  0.00    +0.000 A 
ATOM     19  C   UNL     1      45.270   4.387  10.298  0.00  0.00    +0.000 A 
ATOM     20  C   UNL     1      45.904   5.157   9.317  0.00  0.00    +0.000 A 
ATOM     21  C   UNL     1      46.114   4.642   8.032  0.00  0.00    +0.000 A 
BRANCH  16  22
ATOM     22  C   UNL     1      46.041   2.769   6.335  0.00  0.00    +0.000 C 
BRANCH  22  24
ATOM     23  C   UNL     1      47.238   0.813   7.387  0.00  0.00    +0.000 C 
ATOM     24  C   UNL     1      47.283   1.853   6.262  0.00  0.00    +0.000 C 
BRANCH  24  25
ATOM     25  N   UNL     1      48.538   2.599   6.381  0.00  0.00    +0.000 NA
ATOM     26  H   UNL     1      49.099   2.217   7.143  0.00  0.00    +0.000 HD
ATOM     27  H   UNL     1      48.328   3.564   6.654  0.00  0.00    +0.000 HD
ENDBRANCH  24  25
ENDBRANCH  22  24
ENDBRANCH  16  22
ENDBRANCH  15  19
ENDBRANCH   1  15
TORSDOF 6
ENDMDL
MODEL 5
REMARK VINA RESULT:    -6.184      2.481      2.917
REMARK INTER + INTRA:          -9.002
REMARK INTER:                  -8.561
REMARK INTRA:                  -0.441
REMARK UNBOUND:                -0.829
REMARK  Name = 
REMARK  7 active torsions:
REMARK  status: ('A' for Active; 'I' for Inactive)
REMARK    1  A    between atoms: C_1  and  C_2
REMARK    2  A    between atoms: C_2  and  N_3
REMARK    3  A    between atoms: C_2  and  C_4
REMARK    4  A    between atoms: C_4  and  C_5
REMARK    5  A    between atoms: C_8  and  C_9
REMARK    6  A    between atoms: C_9  and  N_10
REMARK    7  A    between atoms: C_15  and  C_16
REMARK                            x       y       z     vdW  Elec       q    Type
REMARK                         _______ _______ _______ _____ _____    ______ ____
ROOT
ATOM      1  N   UNL     1      44.576   3.989  11.064  0.00  0.00    +0.000 N 
ATOM      2  C   UNL     1      43.780   2.874  11.026  0.00  0.00    +0.000 A 
ATOM      3  N   UNL     1      43.907   2.221   9.894  0.00  0.00    +0.000 NA
ATOM      4  C   UNL     1      44.808   2.951   9.159  0.00  0.00    +0.000 A 
ATOM      5  C   UNL     1      45.416   2.635   7.937  0.00  0.00    +0.000 A 
ATOM      6  C   UNL     1      46.371   3.515   7.400  0.00  0.00    +0.000 A 
ATOM      7  C   UNL     1      46.594   4.760   8.008  0.00  0.00    +0.000 A 
ATOM      8  C   UNL     1      45.984   5.093   9.230  0.00  0.00    +0.000 A 
ATOM      9  C   UNL     1      45.150   4.131   9.815  0.00  0.00    +0.000 A 
ENDROOT
BRANCH   6  10
ATOM     10  C   UNL     1      47.169   3.011   6.244  0.00  0.00    +0.000 C 
ATOM     11  N   UNL     1      48.444   2.567   6.455  0.00  0.00    +0.000 N 
ATOM     12  O   UNL     1      46.688   2.938   5.118  0.00  0.00    +0.000 OA
ATOM     13  H   UNL     1      48.933   2.575   7.334  0.00  0.00    +0.000 HD
ATOM     14  H   UNL     1      48.911   2.160   5.654  0.00  0.00    +0.000 HD
ENDBRANCH   6  10
BRANCH   1  15
ATOM     15  C   UNL     1      45.087   4.604  12.285  0.00  0.00    +0.000 C 
BRANCH  15  19
ATOM     16  C   UNL     1      46.185   8.792  11.944  0.00  0.00    +0.000 A 
ATOM     17  C   UNL     1      44.861   8.385  11.746  0.00  0.00    +0.000 A 
ATOM     18  C   UNL     1      44.503   7.036  11.864  0.00  0.00    +0.000 A 
ATOM     19  C   UNL     1      45.467   6.059  12.168  0.00  0.00    +0.000 A 
ATOM     20  C   UNL     1      46.787   6.470  12.382  0.00  0.00    +0.000 A 
ATOM     21  C   UNL     1      47.139   7.821  12.276  0.00  0.00    +0.000 A 
BRANCH  16  22
ATOM     22  C   UNL     1      46.610  10.233  11.732  0.00  0.00    +0.000 C 
BRANCH  22  24
ATOM     23  C   UNL     1      48.618  11.212  12.907  0.00  0.00    +0.000 C 
ATOM     24  C   UNL     1      48.132  10.491  11.645  0.00  0.00    +0.000 C 
BRANCH  24  25
ATOM     25  N   UNL     1      48.497  11.307  10.485  0.00  0.00    +0.000 NA
ATOM     26  H   UNL     1      49.315  10.910  10.024  0.00  0.00    +0.000 HD
ATOM     27  H   UNL     1      48.789  12.235  10.808  0.00  0.00    +0.000 HD
ENDBRANCH  24  25
ENDBRANCH  22  24
ENDBRANCH  16  22
ENDBRANCH  15  19
ENDBRANCH   1  15
TORSDOF 6
ENDMDL
MODEL 6
REMARK VINA RESULT:    -6.086      4.084      6.113
REMARK INTER + INTRA:          -8.872
REMARK INTER:                  -8.284
REMARK INTRA:                  -0.589
REMARK UNBOUND:                -0.829
REMARK  Name = 
REMARK  7 active torsions:
REMARK  status: ('A' for Active; 'I' for Inactive)
REMARK    1  A    between atoms: C_1  and  C_2
REMARK    2  A    between atoms: C_2  and  N_3
REMARK    3  A    between atoms: C_2  and  C_4
REMARK    4  A    between atoms: C_4  and  C_5
REMARK    5  A    between atoms: C_8  and  C_9
REMARK    6  A    between atoms: C_9  and  N_10
REMARK    7  A    between atoms: C_15  and  C_16
REMARK                            x       y       z     vdW  Elec       q    Type
REMARK                         _______ _______ _______ _____ _____    ______ ____
ROOT
ATOM      1  N   UNL     1      47.424   5.007  14.733  0.00  0.00    +0.000 N 
ATOM      2  C   UNL     1      47.861   6.288  14.515  0.00  0.00    +0.000 A 
ATOM      3  N   UNL     1      47.366   6.791  13.408  0.00  0.00    +0.000 NA
ATOM      4  C   UNL     1      46.591   5.792  12.875  0.00  0.00    +0.000 A 
ATOM      5  C   UNL     1      45.720   5.836  11.779  0.00  0.00    +0.000 A 
ATOM      6  C   UNL     1      44.969   4.693  11.455  0.00  0.00    +0.000 A 
ATOM      7  C   UNL     1      45.207   3.486  12.130  0.00  0.00    +0.000 A 
ATOM      8  C   UNL     1      46.085   3.425  13.226  0.00  0.00    +0.000 A 
ATOM      9  C   UNL     1      46.706   4.619  13.617  0.00  0.00    +0.000 A 
ENDROOT
BRANCH   6  10
ATOM     10  C   UNL     1      43.877   4.872  10.453  0.00  0.00    +0.000 C 
ATOM     11  N   UNL     1      44.076   4.456   9.167  0.00  0.00    +0.000 N 
ATOM     12  O   UNL     1      42.786   5.334  10.771  0.00  0.00    +0.000 OA
ATOM     13  H   UNL     1      44.924   4.059   8.799  0.00  0.00    +0.000 HD
ATOM     14  H   UNL     1      43.276   4.524   8.550  0.00  0.00    +0.000 HD
ENDBRANCH   6  10
BRANCH   1  15
ATOM     15  C   UNL     1      47.321   4.376  16.045  0.00  0.00    +0.000 C 
BRANCH  15  19
ATOM     16  C   UNL     1      50.986   2.604  17.554  0.00  0.00    +0.000 A 
ATOM     17  C   UNL     1      50.715   3.961  17.759  0.00  0.00    +0.000 A 
ATOM     18  C   UNL     1      49.530   4.533  17.280  0.00  0.00    +0.000 A 
ATOM     19  C   UNL     1      48.593   3.761  16.571  0.00  0.00    +0.000 A 
ATOM     20  C   UNL     1      48.859   2.400  16.381  0.00  0.00    +0.000 A 
ATOM     21  C   UNL     1      50.038   1.830  16.873  0.00  0.00    +0.000 A 
BRANCH  16  22
ATOM     22  C   UNL     1      52.304   1.986  17.984  0.00  0.00    +0.000 C 
BRANCH  22  24
ATOM     23  C   UNL     1      54.411   3.335  17.650  0.00  0.00    +0.000 C 
ATOM     24  C   UNL     1      53.321   2.939  18.652  0.00  0.00    +0.000 C 
BRANCH  24  25
ATOM     25  N   UNL     1      53.971   2.338  19.819  0.00  0.00    +0.000 NA
ATOM     26  H   UNL     1      54.059   1.331  19.687  0.00  0.00    +0.000 HD
ATOM     27  H   UNL     1      53.364   2.455  20.636  0.00  0.00    +0.000 HD
ENDBRANCH  24  25
ENDBRANCH  22  24
ENDBRANCH  16  22
ENDBRANCH  15  19
ENDBRANCH   1  15
TORSDOF 6
ENDMDL
MODEL 7
REMARK VINA RESULT:    -5.807      3.325      5.916
REMARK INTER + INTRA:          -8.504
REMARK INTER:                  -7.935
REMARK INTRA:                  -0.568
REMARK UNBOUND:                -0.829
REMARK  Name = 
REMARK  7 active torsions:
REMARK  status: ('A' for Active; 'I' for Inactive)
REMARK    1  A    between atoms: C_1  and  C_2
REMARK    2  A    between atoms: C_2  and  N_3
REMARK    3  A    between atoms: C_2  and  C_4
REMARK    4  A    between atoms: C_4  and  C_5
REMARK    5  A    between atoms: C_8  and  C_9
REMARK    6  A    between atoms: C_9  and  N_10
REMARK    7  A    between atoms: C_15  and  C_16
REMARK                            x       y       z     vdW  Elec       q    Type
REMARK                         _______ _______ _______ _____ _____    ______ ____
ROOT
ATOM      1  N   UNL     1      48.227   7.045  13.610  0.00  0.00    +0.000 N 
ATOM      2  C   UNL     1      48.779   7.701  12.541  0.00  0.00    +0.000 A 
ATOM      3  N   UNL     1      48.129   7.453  11.427  0.00  0.00    +0.000 NA
ATOM      4  C   UNL     1      47.125   6.587  11.783  0.00  0.00    +0.000 A 
ATOM      5  C   UNL     1      46.050   6.115  11.019  0.00  0.00    +0.000 A 
ATOM      6  C   UNL     1      45.096   5.279  11.623  0.00  0.00    +0.000 A 
ATOM      7  C   UNL     1      45.306   4.807  12.927  0.00  0.00    +0.000 A 
ATOM      8  C   UNL     1      46.385   5.266  13.703  0.00  0.00    +0.000 A 
ATOM      9  C   UNL     1      47.236   6.215  13.120  0.00  0.00    +0.000 A 
ENDROOT
BRANCH   6  10
ATOM     10  C   UNL     1      43.847   5.020  10.847  0.00  0.00    +0.000 C 
ATOM     11  N   UNL     1      43.937   4.714   9.519  0.00  0.00    +0.000 N 
ATOM     12  O   UNL     1      42.746   5.023  11.388  0.00  0.00    +0.000 OA
ATOM     13  H   UNL     1      44.784   4.677   8.978  0.00  0.00    +0.000 HD
ATOM     14  H   UNL     1      43.068   4.467   9.061  0.00  0.00    +0.000 HD
ENDBRANCH   6  10
BRANCH   1  15
ATOM     15  C   UNL     1      48.326   7.487  14.998  0.00  0.00    +0.000 C 
BRANCH  15  19
ATOM     16  C   UNL     1      50.640   4.908  17.614  0.00  0.00    +0.000 A 
ATOM     17  C   UNL     1      51.264   5.925  16.885  0.00  0.00    +0.000 A 
ATOM     18  C   UNL     1      50.518   6.764  16.047  0.00  0.00    +0.000 A 
ATOM     19  C   UNL     1      49.130   6.593  15.908  0.00  0.00    +0.000 A 
ATOM     20  C   UNL     1      48.505   5.585  16.650  0.00  0.00    +0.000 A 
ATOM     21  C   UNL     1      49.252   4.757  17.497  0.00  0.00    +0.000 A 
BRANCH  16  22
ATOM     22  C   UNL     1      51.440   3.932  18.456  0.00  0.00    +0.000 C 
BRANCH  22  24
ATOM     23  C   UNL     1      50.828   1.817  17.222  0.00  0.00    +0.000 C 
ATOM     24  C   UNL     1      51.987   2.685  17.724  0.00  0.00    +0.000 C 
BRANCH  24  25
ATOM     25  N   UNL     1      52.837   1.858  18.583  0.00  0.00    +0.000 NA
ATOM     26  H   UNL     1      53.298   1.137  18.026  0.00  0.00    +0.000 HD
ATOM     27  H   UNL     1      52.246   1.351  19.249  0.00  0.00    +0.000 HD
ENDBRANCH  24  25
ENDBRANCH  22  24
ENDBRANCH  16  22
ENDBRANCH  15  19
ENDBRANCH   1  15
TORSDOF 6
ENDMDL
MODEL 8
REMARK VINA RESULT:    -5.463      3.718      5.689
REMARK INTER + INTRA:          -8.048
REMARK INTER:                  -7.320
REMARK INTRA:                  -0.728
REMARK UNBOUND:                -0.829
REMARK  Name = 
REMARK  7 active torsions:
REMARK  status: ('A' for Active; 'I' for Inactive)
REMARK    1  A    between atoms: C_1  and  C_2
REMARK    2  A    between atoms: C_2  and  N_3
REMARK    3  A    between atoms: C_2  and  C_4
REMARK    4  A    between atoms: C_4  and  C_5
REMARK    5  A    between atoms: C_8  and  C_9
REMARK    6  A    between atoms: C_9  and  N_10
REMARK    7  A    between atoms: C_15  and  C_16
REMARK                            x       y       z     vdW  Elec       q    Type
REMARK                         _______ _______ _______ _____ _____    ______ ____
ROOT
ATOM      1  N   UNL     1      47.354   7.169  13.639  0.00  0.00    +0.000 N 
ATOM      2  C   UNL     1      47.956   6.088  14.228  0.00  0.00    +0.000 A 
ATOM      3  N   UNL     1      47.389   4.959  13.874  0.00  0.00    +0.000 NA
ATOM      4  C   UNL     1      46.364   5.320  13.034  0.00  0.00    +0.000 A 
ATOM      5  C   UNL     1      45.529   4.509  12.256  0.00  0.00    +0.000 A 
ATOM      6  C   UNL     1      44.584   5.112  11.410  0.00  0.00    +0.000 A 
ATOM      7  C   UNL     1      44.383   6.500  11.463  0.00  0.00    +0.000 A 
ATOM      8  C   UNL     1      45.208   7.326  12.247  0.00  0.00    +0.000 A 
ATOM      9  C   UNL     1      46.239   6.706  12.966  0.00  0.00    +0.000 A 
ENDROOT
BRANCH   6  10
ATOM     10  C   UNL     1      43.908   4.223  10.420  0.00  0.00    +0.000 C 
ATOM     11  N   UNL     1      44.004   4.511   9.087  0.00  0.00    +0.000 N 
ATOM     12  O   UNL     1      43.312   3.210  10.771  0.00  0.00    +0.000 OA
ATOM     13  H   UNL     1      44.471   5.308   8.688  0.00  0.00    +0.000 HD
ATOM     14  H   UNL     1      43.598   3.832   8.456  0.00  0.00    +0.000 HD
ENDBRANCH   6  10
BRANCH   1  15
ATOM     15  C   UNL     1      48.013   8.444  13.370  0.00  0.00    +0.000 C 
BRANCH  15  19
ATOM     16  C   UNL     1      51.912   8.166  11.480  0.00  0.00    +0.000 A 
ATOM     17  C   UNL     1      50.759   7.765  10.796  0.00  0.00    +0.000 A 
ATOM     18  C   UNL     1      49.500   7.861  11.401  0.00  0.00    +0.000 A 
ATOM     19  C   UNL     1      49.366   8.349  12.712  0.00  0.00    +0.000 A 
ATOM     20  C   UNL     1      50.518   8.765  13.389  0.00  0.00    +0.000 A 
ATOM     21  C   UNL     1      51.774   8.679  12.777  0.00  0.00    +0.000 A 
BRANCH  16  22
ATOM     22  C   UNL     1      53.293   7.985  10.878  0.00  0.00    +0.000 C 
BRANCH  22  24
ATOM     23  C   UNL     1      53.767   5.654  10.035  0.00  0.00    +0.000 C 
ATOM     24  C   UNL     1      53.381   7.081   9.628  0.00  0.00    +0.000 C 
BRANCH  24  25
ATOM     25  N   UNL     1      54.367   7.560   8.657  0.00  0.00    +0.000 NA
ATOM     26  H   UNL     1      54.815   6.768   8.196  0.00  0.00    +0.000 HD
ATOM     27  H   UNL     1      55.119   8.046   9.156  0.00  0.00    +0.000 HD
ENDBRANCH  24  25
ENDBRANCH  22  24
ENDBRANCH  16  22
ENDBRANCH  15  19
ENDBRANCH   1  15
TORSDOF 6
ENDMDL
MODEL 9
REMARK VINA RESULT:    -5.459      4.189      6.203
REMARK INTER + INTRA:          -8.043
REMARK INTER:                  -7.324
REMARK INTRA:                  -0.719
REMARK UNBOUND:                -0.829
REMARK  Name = 
REMARK  7 active torsions:
REMARK  status: ('A' for Active; 'I' for Inactive)
REMARK    1  A    between atoms: C_1  and  C_2
REMARK    2  A    between atoms: C_2  and  N_3
REMARK    3  A    between atoms: C_2  and  C_4
REMARK    4  A    between atoms: C_4  and  C_5
REMARK    5  A    between atoms: C_8  and  C_9
REMARK    6  A    between atoms: C_9  and  N_10
REMARK    7  A    between atoms: C_15  and  C_16
REMARK                            x       y       z     vdW  Elec       q    Type
REMARK                         _______ _______ _______ _____ _____    ______ ____
ROOT
ATOM      1  N   UNL     1      48.147   8.383  13.026  0.00  0.00    +0.000 N 
ATOM      2  C   UNL     1      47.432   9.452  12.551  0.00  0.00    +0.000 A 
ATOM      3  N   UNL     1      46.202   9.117  12.237  0.00  0.00    +0.000 NA
ATOM      4  C   UNL     1      46.118   7.772  12.501  0.00  0.00    +0.000 A 
ATOM      5  C   UNL     1      44.995   6.935  12.485  0.00  0.00    +0.000 A 
ATOM      6  C   UNL     1      45.139   5.589  12.862  0.00  0.00    +0.000 A 
ATOM      7  C   UNL     1      46.418   5.064  13.102  0.00  0.00    +0.000 A 
ATOM      8  C   UNL     1      47.555   5.891  13.113  0.00  0.00    +0.000 A 
ATOM      9  C   UNL     1      47.356   7.258  12.878  0.00  0.00    +0.000 A 
ENDROOT
BRANCH   6  10
ATOM     10  C   UNL     1      43.881   4.816  13.077  0.00  0.00    +0.000 C 
ATOM     11  N   UNL     1      42.684   5.475  13.078  0.00  0.00    +0.000 N 
ATOM     12  O   UNL     1      43.893   3.596  13.200  0.00  0.00    +0.000 OA
ATOM     13  H   UNL     1      42.557   6.468  12.980  0.00  0.00    +0.000 HD
ATOM     14  H   UNL     1      41.857   4.894  13.146  0.00  0.00    +0.000 HD
ENDBRANCH   6  10
BRANCH   1  15
ATOM     15  C   UNL     1      49.285   8.481  13.934  0.00  0.00    +0.000 C 
BRANCH  15  19
ATOM     16  C   UNL     1      48.448   7.566  18.095  0.00  0.00    +0.000 A 
ATOM     17  C   UNL     1      47.948   8.734  17.509  0.00  0.00    +0.000 A 
ATOM     18  C   UNL     1      48.211   9.027  16.165  0.00  0.00    +0.000 A 
ATOM     19  C   UNL     1      48.992   8.163  15.379  0.00  0.00    +0.000 A 
ATOM     20  C   UNL     1      49.477   6.988  15.962  0.00  0.00    +0.000 A 
ATOM     21  C   UNL     1      49.203   6.692  17.302  0.00  0.00    +0.000 A 
BRANCH  16  22
ATOM     22  C   UNL     1      48.253   7.276  19.571  0.00  0.00    +0.000 C 
BRANCH  22  24
ATOM     23  C   UNL     1      48.447   4.827  20.151  0.00  0.00    +0.000 C 
ATOM     24  C   UNL     1      47.473   5.987  19.918  0.00  0.00    +0.000 C 
BRANCH  24  25
ATOM     25  N   UNL     1      46.541   5.594  18.860  0.00  0.00    +0.000 NA
ATOM     26  H   UNL     1      46.786   4.669  18.505  0.00  0.00    +0.000 HD
ATOM     27  H   UNL     1      46.651   6.230  18.064  0.00  0.00    +0.000 HD
ENDBRANCH  24  25
ENDBRANCH  22  24
ENDBRANCH  16  22
ENDBRANCH  15  19
ENDBRANCH   1  15
TORSDOF 6
ENDMDL
