MODEL 1
REMARK VINA RESULT:    -8.079      0.000      0.000
REMARK INTER + INTRA:         -11.994
REMARK INTER:                 -10.913
REMARK INTRA:                  -1.081
REMARK UNBOUND:                -1.081
REMARK  Name = 
REMARK  6 active torsions:
REMARK  status: ('A' for Active; 'I' for Inactive)
REMARK    1  A    between atoms: C_2  and  C_20
REMARK    2  A    between atoms: N_3  and  C_4
REMARK    3  A    between atoms: C_4  and  C_5
REMARK    4  A    between atoms: C_8  and  C_9
REMARK    5  A    between atoms: C_9  and  N_10
REMARK    6  A    between atoms: C_11  and  C_13
REMARK                            x       y       z     vdW  Elec       q    Type
REMARK                         _______ _______ _______ _____ _____    ______ ____
ROOT
ATOM      1  C   UNL     1      46.259   7.199  12.533  0.00  0.00    +0.000 A 
ATOM      2  C   UNL     1      44.943   6.923  12.928  0.00  0.00    +0.000 A 
ATOM      3  C   UNL     1      44.107   6.136  12.128  0.00  0.00    +0.000 A 
ATOM      4  C   UNL     1      44.576   5.590  10.927  0.00  0.00    +0.000 A 
ATOM      5  C   UNL     1      45.894   5.860  10.535  0.00  0.00    +0.000 A 
ATOM      6  C   UNL     1      46.730   6.647  11.334  0.00  0.00    +0.000 A 
ENDROOT
BRANCH   1   7
ATOM      7  C   UNL     1      47.166   8.022  13.412  0.00  0.00    +0.000 C 
BRANCH   7  10
ATOM      8  O   UNL     1      49.705   6.965  13.913  0.00  0.00    +0.000 OA
ATOM      9  C   UNL     1      48.840   6.853  14.777  0.00  0.00    +0.000 C 
ATOM     10  N   UNL     1      47.552   7.279  14.584  0.00  0.00    +0.000 N 
ATOM     11  H   UNL     1      46.935   7.358  15.386  0.00  0.00    +0.000 HD
BRANCH   9  12
ATOM     12  C   UNL     1      49.120   6.210  16.067  0.00  0.00    +0.000 A 
ATOM     13  C   UNL     1      50.100   6.724  16.905  0.00  0.00    +0.000 A 
ATOM     14  S   UNL     1      50.311   5.825  18.340  0.00  0.00    +0.000 S 
ATOM     15  C   UNL     1      49.066   4.746  17.914  0.00  0.00    +0.000 A 
ATOM     16  N   UNL     1      48.712   3.723  18.736  0.00  0.00    +0.000 NA
ATOM     17  C   UNL     1      47.730   3.004  18.302  0.00  0.00    +0.000 A 
ATOM     18  N   UNL     1      47.072   3.214  17.118  0.00  0.00    +0.000 N 
ATOM     19  C   UNL     1      47.414   4.215  16.244  0.00  0.00    +0.000 A 
ATOM     20  O   UNL     1      46.834   4.347  15.171  0.00  0.00    +0.000 OA
ATOM     21  C   UNL     1      48.507   5.058  16.688  0.00  0.00    +0.000 A 
ATOM     22  H   UNL     1      46.318   2.609  16.828  0.00  0.00    +0.000 HD
ENDBRANCH   9  12
ENDBRANCH   7  10
ENDBRANCH   1   7
BRANCH   4  23
ATOM     23  C   UNL     1      43.690   4.714  10.081  0.00  0.00    +0.000 C 
BRANCH  23  24
ATOM     24  N   UNL     1      44.347   4.231   8.895  0.00  0.00    +0.000 N 
ATOM     25  C   UNL     1      44.877   2.962   8.846  0.00  0.00    +0.000 C 
ATOM     26  O   UNL     1      44.887   2.202   9.812  0.00  0.00    +0.000 OA
ATOM     27  H   UNL     1      44.275   4.727   8.009  0.00  0.00    +0.000 HD
BRANCH  25  28
ATOM     28  C   UNL     1      45.533   2.586   7.513  0.00  0.00    +0.000 C 
ATOM     29  C   UNL     1      46.696   1.633   7.705  0.00  0.00    +0.000 C 
ATOM     30  C   UNL     1      47.470   1.783   6.411  0.00  0.00    +0.000 C 
ATOM     31  C   UNL     1      47.198   3.213   5.961  0.00  0.00    +0.000 C 
ATOM     32  N   UNL     1      46.179   3.757   6.866  0.00  0.00    +0.000 NA
ATOM     33  H   UNL     1      45.481   4.281   6.339  0.00  0.00    +0.000 HD
ENDBRANCH  25  28
ENDBRANCH  23  24
ENDBRANCH   4  23
TORSDOF 6
ENDMDL
MODEL 2
REMARK VINA RESULT:    -7.837      2.174      3.687
REMARK INTER + INTRA:         -11.666
REMARK INTER:                 -10.647
REMARK INTRA:                  -1.019
REMARK UNBOUND:                -1.081
REMARK  Name = 
REMARK  6 active torsions:
REMARK  status: ('A' for Active; 'I' for Inactive)
REMARK    1  A    between atoms: C_2  and  C_20
REMARK    2  A    between atoms: N_3  and  C_4
REMARK    3  A    between atoms: C_4  and  C_5
REMARK    4  A    between atoms: C_8  and  C_9
REMARK    5  A    between atoms: C_9  and  N_10
REMARK    6  A    between atoms: C_11  and  C_13
REMARK                            x       y       z     vdW  Elec       q    Type
REMARK                         _______ _______ _______ _____ _____    ______ ____
ROOT
ATOM      1  C   UNL     1      46.135   4.479  13.661  0.00  0.00    +0.000 A 
ATOM      2  C   UNL     1      45.746   3.310  12.992  0.00  0.00    +0.000 A 
ATOM      3  C   UNL     1      44.953   3.376  11.841  0.00  0.00    +0.000 A 
ATOM      4  C   UNL     1      44.551   4.613  11.322  0.00  0.00    +0.000 A 
ATOM      5  C   UNL     1      44.944   5.781  11.987  0.00  0.00    +0.000 A 
ATOM      6  C   UNL     1      45.738   5.716  13.138  0.00  0.00    +0.000 A 
ENDROOT
BRANCH   1   7
ATOM      7  C   UNL     1      47.015   4.405  14.883  0.00  0.00    +0.000 C 
BRANCH   7  10
ATOM      8  O   UNL     1      49.114   4.863  16.671  0.00  0.00    +0.000 OA
ATOM      9  C   UNL     1      48.709   5.798  15.987  0.00  0.00    +0.000 C 
ATOM     10  N   UNL     1      47.639   5.678  15.140  0.00  0.00    +0.000 N 
ATOM     11  H   UNL     1      47.473   6.403  14.450  0.00  0.00    +0.000 HD
BRANCH   9  12
ATOM     12  C   UNL     1      49.321   7.131  16.067  0.00  0.00    +0.000 A 
ATOM     13  C   UNL     1      49.534   7.727  17.303  0.00  0.00    +0.000 A 
ATOM     14  S   UNL     1      50.218   9.287  17.198  0.00  0.00    +0.000 S 
ATOM     15  C   UNL     1      50.299   9.200  15.501  0.00  0.00    +0.000 A 
ATOM     16  N   UNL     1      50.815  10.223  14.768  0.00  0.00    +0.000 NA
ATOM     17  C   UNL     1      50.845  10.006  13.495  0.00  0.00    +0.000 A 
ATOM     18  N   UNL     1      50.403   8.860  12.887  0.00  0.00    +0.000 N 
ATOM     19  C   UNL     1      49.848   7.815  13.582  0.00  0.00    +0.000 A 
ATOM     20  O   UNL     1      49.420   6.822  13.002  0.00  0.00    +0.000 OA
ATOM     21  C   UNL     1      49.798   8.004  15.019  0.00  0.00    +0.000 A 
ATOM     22  H   UNL     1      50.442   8.756  11.884  0.00  0.00    +0.000 HD
ENDBRANCH   9  12
ENDBRANCH   7  10
ENDBRANCH   1   7
BRANCH   4  23
ATOM     23  C   UNL     1      43.726   4.688  10.063  0.00  0.00    +0.000 C 
BRANCH  23  24
ATOM     24  N   UNL     1      44.229   3.840   9.014  0.00  0.00    +0.000 N 
ATOM     25  C   UNL     1      45.364   4.180   8.312  0.00  0.00    +0.000 C 
ATOM     26  O   UNL     1      45.964   5.238   8.482  0.00  0.00    +0.000 OA
ATOM     27  H   UNL     1      43.885   2.891   8.888  0.00  0.00    +0.000 HD
BRANCH  25  28
ATOM     28  C   UNL     1      45.783   3.174   7.236  0.00  0.00    +0.000 C 
ATOM     29  C   UNL     1      46.482   1.968   7.831  0.00  0.00    +0.000 C 
ATOM     30  C   UNL     1      47.217   1.384   6.641  0.00  0.00    +0.000 C 
ATOM     31  C   UNL     1      47.519   2.581   5.748  0.00  0.00    +0.000 C 
ATOM     32  N   UNL     1      46.821   3.732   6.331  0.00  0.00    +0.000 NA
ATOM     33  H   UNL     1      46.371   4.281   5.598  0.00  0.00    +0.000 HD
ENDBRANCH  25  28
ENDBRANCH  23  24
ENDBRANCH   4  23
TORSDOF 6
ENDMDL
MODEL 3
REMARK VINA RESULT:    -7.540      2.538      3.588
REMARK INTER + INTRA:         -11.265
REMARK INTER:                 -10.342
REMARK INTRA:                  -0.924
REMARK UNBOUND:                -1.081
REMARK  Name = 
REMARK  6 active torsions:
REMARK  status: ('A' for Active; 'I' for Inactive)
REMARK    1  A    between atoms: C_2  and  C_20
REMARK    2  A    between atoms: N_3  and  C_4
REMARK    3  A    between atoms: C_4  and  C_5
REMARK    4  A    between atoms: C_8  and  C_9
REMARK    5  A    between atoms: C_9  and  N_10
REMARK    6  A    between atoms: C_11  and  C_13
REMARK                            x       y       z     vdW  Elec       q    Type
REMARK                         _______ _______ _______ _____ _____    ______ ____
ROOT
ATOM      1  C   UNL     1      46.945   4.756  14.327  0.00  0.00    +0.000 A 
ATOM      2  C   UNL     1      45.835   4.144  13.728  0.00  0.00    +0.000 A 
ATOM      3  C   UNL     1      45.335   4.610  12.507  0.00  0.00    +0.000 A 
ATOM      4  C   UNL     1      45.947   5.684  11.849  0.00  0.00    +0.000 A 
ATOM      5  C   UNL     1      47.060   6.292  12.444  0.00  0.00    +0.000 A 
ATOM      6  C   UNL     1      47.561   5.826  13.665  0.00  0.00    +0.000 A 
ENDROOT
BRANCH   1   7
ATOM      7  C   UNL     1      47.500   4.231  15.628  0.00  0.00    +0.000 C 
BRANCH   7  10
ATOM      8  O   UNL     1      49.726   5.450  16.798  0.00  0.00    +0.000 OA
ATOM      9  C   UNL     1      48.607   5.841  17.116  0.00  0.00    +0.000 C 
ATOM     10  N   UNL     1      47.463   5.250  16.646  0.00  0.00    +0.000 N 
ATOM     11  H   UNL     1      46.577   5.729  16.766  0.00  0.00    +0.000 HD
BRANCH   9  12
ATOM     12  C   UNL     1      48.418   6.944  18.067  0.00  0.00    +0.000 A 
ATOM     13  C   UNL     1      48.413   6.695  19.432  0.00  0.00    +0.000 A 
ATOM     14  S   UNL     1      48.144   8.089  20.379  0.00  0.00    +0.000 S 
ATOM     15  C   UNL     1      48.074   9.082  18.999  0.00  0.00    +0.000 A 
ATOM     16  N   UNL     1      47.883  10.424  19.107  0.00  0.00    +0.000 NA
ATOM     17  C   UNL     1      47.885  11.056  17.981  0.00  0.00    +0.000 A 
ATOM     18  N   UNL     1      48.059  10.469  16.755  0.00  0.00    +0.000 N 
ATOM     19  C   UNL     1      48.226   9.116  16.595  0.00  0.00    +0.000 A 
ATOM     20  O   UNL     1      48.333   8.617  15.479  0.00  0.00    +0.000 OA
ATOM     21  C   UNL     1      48.240   8.358  17.831  0.00  0.00    +0.000 A 
ATOM     22  H   UNL     1      48.039  11.017  15.908  0.00  0.00    +0.000 HD
ENDBRANCH   9  12
ENDBRANCH   7  10
ENDBRANCH   1   7
BRANCH   4  23
ATOM     23  C   UNL     1      45.432   6.166  10.518  0.00  0.00    +0.000 C 
BRANCH  23  24
ATOM     24  N   UNL     1      45.842   5.327   9.423  0.00  0.00    +0.000 N 
ATOM     25  C   UNL     1      45.007   4.352   8.926  0.00  0.00    +0.000 C 
ATOM     26  O   UNL     1      43.913   4.092   9.420  0.00  0.00    +0.000 OA
ATOM     27  H   UNL     1      46.665   5.546   8.865  0.00  0.00    +0.000 HD
BRANCH  25  28
ATOM     28  C   UNL     1      45.577   3.549   7.752  0.00  0.00    +0.000 C 
ATOM     29  C   UNL     1      46.015   2.161   8.177  0.00  0.00    +0.000 C 
ATOM     30  C   UNL     1      46.953   1.748   7.060  0.00  0.00    +0.000 C 
ATOM     31  C   UNL     1      47.553   3.055   6.556  0.00  0.00    +0.000 C 
ATOM     32  N   UNL     1      46.840   4.141   7.239  0.00  0.00    +0.000 NA
ATOM     33  H   UNL     1      46.620   4.888   6.580  0.00  0.00    +0.000 HD
ENDBRANCH  25  28
ENDBRANCH  23  24
ENDBRANCH   4  23
TORSDOF 6
ENDMDL
MODEL 4
REMARK VINA RESULT:    -7.435      2.457      3.127
REMARK INTER + INTRA:         -11.124
REMARK INTER:                 -10.149
REMARK INTRA:                  -0.975
REMARK UNBOUND:                -1.081
REMARK  Name = 
REMARK  6 active torsions:
REMARK  status: ('A' for Active; 'I' for Inactive)
REMARK    1  A    between atoms: C_2  and  C_20
REMARK    2  A    between atoms: N_3  and  C_4
REMARK    3  A    between atoms: C_4  and  C_5
REMARK    4  A    between atoms: C_8  and  C_9
REMARK    5  A    between atoms: C_9  and  N_10
REMARK    6  A    between atoms: C_11  and  C_13
REMARK                            x       y       z     vdW  Elec       q    Type
REMARK                         _______ _______ _______ _____ _____    ______ ____
ROOT
ATOM      1  C   UNL     1      46.527   4.747  14.376  0.00  0.00    +0.000 A 
ATOM      2  C   UNL     1      47.375   5.693  13.785  0.00  0.00    +0.000 A 
ATOM      3  C   UNL     1      47.149   6.137  12.477  0.00  0.00    +0.000 A 
ATOM      4  C   UNL     1      46.058   5.659  11.740  0.00  0.00    +0.000 A 
ATOM      5  C   UNL     1      45.206   4.718  12.333  0.00  0.00    +0.000 A 
ATOM      6  C   UNL     1      45.432   4.275  13.641  0.00  0.00    +0.000 A 
ENDROOT
BRANCH   1   7
ATOM      7  C   UNL     1      46.756   4.294  15.796  0.00  0.00    +0.000 C 
BRANCH   7  10
ATOM      8  O   UNL     1      47.940   5.210  18.156  0.00  0.00    +0.000 OA
ATOM      9  C   UNL     1      48.650   4.671  17.313  0.00  0.00    +0.000 C 
ATOM     10  N   UNL     1      48.164   4.259  16.099  0.00  0.00    +0.000 N 
ATOM     11  H   UNL     1      48.728   3.640  15.528  0.00  0.00    +0.000 HD
BRANCH   9  12
ATOM     12  C   UNL     1      50.089   4.473  17.531  0.00  0.00    +0.000 A 
ATOM     13  C   UNL     1      50.897   5.549  17.873  0.00  0.00    +0.000 A 
ATOM     14  S   UNL     1      52.543   5.135  18.049  0.00  0.00    +0.000 S 
ATOM     15  C   UNL     1      52.226   3.496  17.722  0.00  0.00    +0.000 A 
ATOM     16  N   UNL     1      53.223   2.571  17.734  0.00  0.00    +0.000 NA
ATOM     17  C   UNL     1      52.832   1.362  17.503  0.00  0.00    +0.000 A 
ATOM     18  N   UNL     1      51.535   0.993  17.258  0.00  0.00    +0.000 N 
ATOM     19  C   UNL     1      50.502   1.895  17.207  0.00  0.00    +0.000 A 
ATOM     20  O   UNL     1      49.359   1.537  16.940  0.00  0.00    +0.000 OA
ATOM     21  C   UNL     1      50.885   3.269  17.469  0.00  0.00    +0.000 A 
ATOM     22  H   UNL     1      51.295   0.031  17.072  0.00  0.00    +0.000 HD
ENDBRANCH   9  12
ENDBRANCH   7  10
ENDBRANCH   1   7
BRANCH   4  23
ATOM     23  C   UNL     1      45.792   6.161  10.345  0.00  0.00    +0.000 C 
BRANCH  23  24
ATOM     24  N   UNL     1      46.143   5.203   9.330  0.00  0.00    +0.000 N 
ATOM     25  C   UNL     1      45.190   4.382   8.772  0.00  0.00    +0.000 C 
ATOM     26  O   UNL     1      44.020   4.363   9.146  0.00  0.00    +0.000 OA
ATOM     27  H   UNL     1      47.047   5.231   8.863  0.00  0.00    +0.000 HD
BRANCH  25  28
ATOM     28  C   UNL     1      45.711   3.424   7.696  0.00  0.00    +0.000 C 
ATOM     29  C   UNL     1      46.067   2.067   8.272  0.00  0.00    +0.000 C 
ATOM     30  C   UNL     1      46.979   1.481   7.212  0.00  0.00    +0.000 C 
ATOM     31  C   UNL     1      47.654   2.688   6.573  0.00  0.00    +0.000 C 
ATOM     32  N   UNL     1      47.006   3.882   7.128  0.00  0.00    +0.000 NA
ATOM     33  H   UNL     1      46.830   4.564   6.391  0.00  0.00    +0.000 HD
ENDBRANCH  25  28
ENDBRANCH  23  24
ENDBRANCH   4  23
TORSDOF 6
ENDMDL
MODEL 5
REMARK VINA RESULT:    -7.323      2.339      3.247
REMARK INTER + INTRA:         -10.973
REMARK INTER:                 -10.044
REMARK INTRA:                  -0.928
REMARK UNBOUND:                -1.081
REMARK  Name = 
REMARK  6 active torsions:
REMARK  status: ('A' for Active; 'I' for Inactive)
REMARK    1  A    between atoms: C_2  and  C_20
REMARK    2  A    between atoms: N_3  and  C_4
REMARK    3  A    between atoms: C_4  and  C_5
REMARK    4  A    between atoms: C_8  and  C_9
REMARK    5  A    between atoms: C_9  and  N_10
REMARK    6  A    between atoms: C_11  and  C_13
REMARK                            x       y       z     vdW  Elec       q    Type
REMARK                         _______ _______ _______ _____ _____    ______ ____
ROOT
ATOM      1  C   UNL     1      46.688   4.729  14.186  0.00  0.00    +0.000 A 
ATOM      2  C   UNL     1      45.591   4.149  13.534  0.00  0.00    +0.000 A 
ATOM      3  C   UNL     1      45.177   4.612  12.280  0.00  0.00    +0.000 A 
ATOM      4  C   UNL     1      45.866   5.651  11.641  0.00  0.00    +0.000 A 
ATOM      5  C   UNL     1      46.966   6.227  12.289  0.00  0.00    +0.000 A 
ATOM      6  C   UNL     1      47.380   5.763  13.544  0.00  0.00    +0.000 A 
ENDROOT
BRANCH   1   7
ATOM      7  C   UNL     1      47.148   4.207  15.523  0.00  0.00    +0.000 C 
BRANCH   7  10
ATOM      8  O   UNL     1      46.843   4.751  18.248  0.00  0.00    +0.000 OA
ATOM      9  C   UNL     1      47.679   5.386  17.612  0.00  0.00    +0.000 C 
ATOM     10  N   UNL     1      47.843   5.232  16.259  0.00  0.00    +0.000 N 
ATOM     11  H   UNL     1      48.672   5.615  15.818  0.00  0.00    +0.000 HD
BRANCH   9  12
ATOM     12  C   UNL     1      48.534   6.392  18.254  0.00  0.00    +0.000 A 
ATOM     13  C   UNL     1      47.965   7.421  18.993  0.00  0.00    +0.000 A 
ATOM     14  S   UNL     1      49.109   8.514  19.633  0.00  0.00    +0.000 S 
ATOM     15  C   UNL     1      50.407   7.623  18.985  0.00  0.00    +0.000 A 
ATOM     16  N   UNL     1      51.694   8.011  19.186  0.00  0.00    +0.000 NA
ATOM     17  C   UNL     1      52.576   7.223  18.667  0.00  0.00    +0.000 A 
ATOM     18  N   UNL     1      52.288   6.083  17.962  0.00  0.00    +0.000 N 
ATOM     19  C   UNL     1      51.004   5.669  17.711  0.00  0.00    +0.000 A 
ATOM     20  O   UNL     1      50.781   4.668  17.037  0.00  0.00    +0.000 OA
ATOM     21  C   UNL     1      49.973   6.515  18.279  0.00  0.00    +0.000 A 
ATOM     22  H   UNL     1      53.024   5.515  17.570  0.00  0.00    +0.000 HD
ENDBRANCH   9  12
ENDBRANCH   7  10
ENDBRANCH   1   7
BRANCH   4  23
ATOM     23  C   UNL     1      45.445   6.128  10.276  0.00  0.00    +0.000 C 
BRANCH  23  24
ATOM     24  N   UNL     1      45.909   5.271   9.216  0.00  0.00    +0.000 N 
ATOM     25  C   UNL     1      45.109   4.271   8.712  0.00  0.00    +0.000 C 
ATOM     26  O   UNL     1      44.002   4.003   9.172  0.00  0.00    +0.000 OA
ATOM     27  H   UNL     1      46.748   5.492   8.684  0.00  0.00    +0.000 HD
BRANCH  25  28
ATOM     28  C   UNL     1      45.736   3.451   7.579  0.00  0.00    +0.000 C 
ATOM     29  C   UNL     1      46.144   2.067   8.043  0.00  0.00    +0.000 C 
ATOM     30  C   UNL     1      47.137   1.637   6.981  0.00  0.00    +0.000 C 
ATOM     31  C   UNL     1      47.768   2.935   6.493  0.00  0.00    +0.000 C 
ATOM     32  N   UNL     1      47.025   4.032   7.125  0.00  0.00    +0.000 NA
ATOM     33  H   UNL     1      46.843   4.772   6.446  0.00  0.00    +0.000 HD
ENDBRANCH  25  28
ENDBRANCH  23  24
ENDBRANCH   4  23
TORSDOF 6
ENDMDL
MODEL 6
REMARK VINA RESULT:    -7.308      2.682      3.283
REMARK INTER + INTRA:         -10.953
REMARK INTER:                  -9.995
REMARK INTRA:                  -0.958
REMARK UNBOUND:                -1.081
REMARK  Name = 
REMARK  6 active torsions:
REMARK  status: ('A' for Active; 'I' for Inactive)
REMARK    1  A    between atoms: C_2  and  C_20
REMARK    2  A    between atoms: N_3  and  C_4
REMARK    3  A    between atoms: C_4  and  C_5
REMARK    4  A    between atoms: C_8  and  C_9
REMARK    5  A    between atoms: C_9  and  N_10
REMARK    6  A    between atoms: C_11  and  C_13
REMARK                            x       y       z     vdW  Elec       q    Type
REMARK                         _______ _______ _______ _____ _____    ______ ____
ROOT
ATOM      1  C   UNL     1      46.978   4.841  14.332  0.00  0.00    +0.000 A 
ATOM      2  C   UNL     1      47.395   6.035  13.729  0.00  0.00    +0.000 A 
ATOM      3  C   UNL     1      46.892   6.419  12.481  0.00  0.00    +0.000 A 
ATOM      4  C   UNL     1      45.944   5.627  11.820  0.00  0.00    +0.000 A 
ATOM      5  C   UNL     1      45.522   4.437  12.426  0.00  0.00    +0.000 A 
ATOM      6  C   UNL     1      46.025   4.053  13.674  0.00  0.00    +0.000 A 
ENDROOT
BRANCH   1   7
ATOM      7  C   UNL     1      47.500   4.446  15.691  0.00  0.00    +0.000 C 
BRANCH   7  10
ATOM      8  O   UNL     1      50.020   5.054  16.735  0.00  0.00    +0.000 OA
ATOM      9  C   UNL     1      49.110   5.864  16.886  0.00  0.00    +0.000 C 
ATOM     10  N   UNL     1      47.829   5.613  16.470  0.00  0.00    +0.000 N 
ATOM     11  H   UNL     1      47.167   6.380  16.425  0.00  0.00    +0.000 HD
BRANCH   9  12
ATOM     12  C   UNL     1      49.326   7.145  17.571  0.00  0.00    +0.000 A 
ATOM     13  C   UNL     1      50.191   8.087  17.031  0.00  0.00    +0.000 A 
ATOM     14  S   UNL     1      50.344   9.496  17.981  0.00  0.00    +0.000 S 
ATOM     15  C   UNL     1      49.222   8.917  19.122  0.00  0.00    +0.000 A 
ATOM     16  N   UNL     1      48.874   9.661  20.206  0.00  0.00    +0.000 NA
ATOM     17  C   UNL     1      47.988   9.112  20.969  0.00  0.00    +0.000 A 
ATOM     18  N   UNL     1      47.419   7.884  20.748  0.00  0.00    +0.000 N 
ATOM     19  C   UNL     1      47.761   7.087  19.685  0.00  0.00    +0.000 A 
ATOM     20  O   UNL     1      47.266   5.973  19.541  0.00  0.00    +0.000 OA
ATOM     21  C   UNL     1      48.747   7.660  18.791  0.00  0.00    +0.000 A 
ATOM     22  H   UNL     1      46.739   7.504  21.388  0.00  0.00    +0.000 HD
ENDBRANCH   9  12
ENDBRANCH   7  10
ENDBRANCH   1   7
BRANCH   4  23
ATOM     23  C   UNL     1      45.375   6.055  10.493  0.00  0.00    +0.000 C 
BRANCH  23  24
ATOM     24  N   UNL     1      45.822   5.231   9.401  0.00  0.00    +0.000 N 
ATOM     25  C   UNL     1      45.029   4.219   8.907  0.00  0.00    +0.000 C 
ATOM     26  O   UNL     1      43.947   3.914   9.401  0.00  0.00    +0.000 OA
ATOM     27  H   UNL     1      46.634   5.484   8.843  0.00  0.00    +0.000 HD
BRANCH  25  28
ATOM     28  C   UNL     1      45.634   3.438   7.736  0.00  0.00    +0.000 C 
ATOM     29  C   UNL     1      46.136   2.074   8.167  0.00  0.00    +0.000 C 
ATOM     30  C   UNL     1      47.091   1.699   7.050  0.00  0.00    +0.000 C 
ATOM     31  C   UNL     1      47.629   3.030   6.539  0.00  0.00    +0.000 C 
ATOM     32  N   UNL     1      46.867   4.085   7.217  0.00  0.00    +0.000 NA
ATOM     33  H   UNL     1      46.612   4.818   6.555  0.00  0.00    +0.000 HD
ENDBRANCH  25  28
ENDBRANCH  23  24
ENDBRANCH   4  23
TORSDOF 6
ENDMDL
MODEL 7
REMARK VINA RESULT:    -7.210      1.552      1.982
REMARK INTER + INTRA:         -10.820
REMARK INTER:                  -9.740
REMARK INTRA:                  -1.080
REMARK UNBOUND:                -1.081
REMARK  Name = 
REMARK  6 active torsions:
REMARK  status: ('A' for Active; 'I' for Inactive)
REMARK    1  A    between atoms: C_2  and  C_20
REMARK    2  A    between atoms: N_3  and  C_4
REMARK    3  A    between atoms: C_4  and  C_5
REMARK    4  A    between atoms: C_8  and  C_9
REMARK    5  A    between atoms: C_9  and  N_10
REMARK    6  A    between atoms: C_11  and  C_13
REMARK                            x       y       z     vdW  Elec       q    Type
REMARK                         _______ _______ _______ _____ _____    ______ ____
ROOT
ATOM      1  C   UNL     1      47.763   7.840  13.328  0.00  0.00    +0.000 A 
ATOM      2  C   UNL     1      47.809   6.532  12.828  0.00  0.00    +0.000 A 
ATOM      3  C   UNL     1      46.702   5.976  12.177  0.00  0.00    +0.000 A 
ATOM      4  C   UNL     1      45.533   6.725  11.993  0.00  0.00    +0.000 A 
ATOM      5  C   UNL     1      45.489   8.035  12.488  0.00  0.00    +0.000 A 
ATOM      6  C   UNL     1      46.596   8.591  13.138  0.00  0.00    +0.000 A 
ENDROOT
BRANCH   1   7
ATOM      7  C   UNL     1      48.969   8.445  14.002  0.00  0.00    +0.000 C 
BRANCH   7  10
ATOM      8  O   UNL     1      47.938   9.251  16.472  0.00  0.00    +0.000 OA
ATOM      9  C   UNL     1      48.619   8.231  16.423  0.00  0.00    +0.000 C 
ATOM     10  N   UNL     1      49.221   7.805  15.268  0.00  0.00    +0.000 N 
ATOM     11  H   UNL     1      49.592   6.862  15.225  0.00  0.00    +0.000 HD
BRANCH   9  12
ATOM     12  C   UNL     1      48.873   7.418  17.619  0.00  0.00    +0.000 A 
ATOM     13  C   UNL     1      49.275   8.024  18.802  0.00  0.00    +0.000 A 
ATOM     14  S   UNL     1      49.558   6.919  20.071  0.00  0.00    +0.000 S 
ATOM     15  C   UNL     1      49.106   5.598  19.099  0.00  0.00    +0.000 A 
ATOM     16  N   UNL     1      49.104   4.331  19.593  0.00  0.00    +0.000 NA
ATOM     17  C   UNL     1      48.706   3.432  18.755  0.00  0.00    +0.000 A 
ATOM     18  N   UNL     1      48.312   3.684  17.467  0.00  0.00    +0.000 N 
ATOM     19  C   UNL     1      48.325   4.942  16.918  0.00  0.00    +0.000 A 
ATOM     20  O   UNL     1      48.010   5.127  15.746  0.00  0.00    +0.000 OA
ATOM     21  C   UNL     1      48.757   5.991  17.820  0.00  0.00    +0.000 A 
ATOM     22  H   UNL     1      48.022   2.936  16.856  0.00  0.00    +0.000 HD
ENDBRANCH   9  12
ENDBRANCH   7  10
ENDBRANCH   1   7
BRANCH   4  23
ATOM     23  C   UNL     1      44.352   6.142  11.262  0.00  0.00    +0.000 C 
BRANCH  23  24
ATOM     24  N   UNL     1      44.723   5.477  10.041  0.00  0.00    +0.000 N 
ATOM     25  C   UNL     1      44.537   4.122   9.887  0.00  0.00    +0.000 C 
ATOM     26  O   UNL     1      44.120   3.397  10.787  0.00  0.00    +0.000 OA
ATOM     27  H   UNL     1      44.951   6.002   9.199  0.00  0.00    +0.000 HD
BRANCH  25  28
ATOM     28  C   UNL     1      44.968   3.560   8.529  0.00  0.00    +0.000 C 
ATOM     29  C   UNL     1      45.680   2.229   8.668  0.00  0.00    +0.000 C 
ATOM     30  C   UNL     1      46.422   2.106   7.352  0.00  0.00    +0.000 C 
ATOM     31  C   UNL     1      46.710   3.542   6.934  0.00  0.00    +0.000 C 
ATOM     32  N   UNL     1      45.999   4.410   7.880  0.00  0.00    +0.000 NA
ATOM     33  H   UNL     1      45.544   5.176   7.384  0.00  0.00    +0.000 HD
ENDBRANCH  25  28
ENDBRANCH  23  24
ENDBRANCH   4  23
TORSDOF 6
ENDMDL
MODEL 8
REMARK VINA RESULT:    -6.979      3.585      4.844
REMARK INTER + INTRA:         -10.507
REMARK INTER:                  -9.509
REMARK INTRA:                  -0.998
REMARK UNBOUND:                -1.081
REMARK  Name = 
REMARK  6 active torsions:
REMARK  status: ('A' for Active; 'I' for Inactive)
REMARK    1  A    between atoms: C_2  and  C_20
REMARK    2  A    between atoms: N_3  and  C_4
REMARK    3  A    between atoms: C_4  and  C_5
REMARK    4  A    between atoms: C_8  and  C_9
REMARK    5  A    between atoms: C_9  and  N_10
REMARK    6  A    between atoms: C_11  and  C_13
REMARK                            x       y       z     vdW  Elec       q    Type
REMARK                         _______ _______ _______ _____ _____    ______ ____
ROOT
ATOM      1  C   UNL     1      48.118   4.920  16.188  0.00  0.00    +0.000 A 
ATOM      2  C   UNL     1      47.143   4.271  15.419  0.00  0.00    +0.000 A 
ATOM      3  C   UNL     1      46.711   4.814  14.204  0.00  0.00    +0.000 A 
ATOM      4  C   UNL     1      47.262   6.008  13.721  0.00  0.00    +0.000 A 
ATOM      5  C   UNL     1      48.242   6.654  14.486  0.00  0.00    +0.000 A 
ATOM      6  C   UNL     1      48.673   6.111  15.701  0.00  0.00    +0.000 A 
ENDROOT
BRANCH   1   7
ATOM      7  C   UNL     1      48.602   4.316  17.482  0.00  0.00    +0.000 C 
BRANCH   7  10
ATOM      8  O   UNL     1      50.459   4.753  19.524  0.00  0.00    +0.000 OA
ATOM      9  C   UNL     1      50.839   4.212  18.490  0.00  0.00    +0.000 C 
ATOM     10  N   UNL     1      50.011   4.026  17.413  0.00  0.00    +0.000 N 
ATOM     11  H   UNL     1      50.302   3.397  16.672  0.00  0.00    +0.000 HD
BRANCH   9  12
ATOM     12  C   UNL     1      52.228   3.767  18.319  0.00  0.00    +0.000 A 
ATOM     13  C   UNL     1      53.277   4.620  18.633  0.00  0.00    +0.000 A 
ATOM     14  S   UNL     1      54.816   3.946  18.336  0.00  0.00    +0.000 S 
ATOM     15  C   UNL     1      54.135   2.472  17.825  0.00  0.00    +0.000 A 
ATOM     16  N   UNL     1      54.921   1.431  17.441  0.00  0.00    +0.000 NA
ATOM     17  C   UNL     1      54.270   0.365  17.111  0.00  0.00    +0.000 A 
ATOM     18  N   UNL     1      52.905   0.246  17.127  0.00  0.00    +0.000 N 
ATOM     19  C   UNL     1      52.072   1.279  17.478  0.00  0.00    +0.000 A 
ATOM     20  O   UNL     1      50.852   1.153  17.437  0.00  0.00    +0.000 OA
ATOM     21  C   UNL     1      52.753   2.499  17.866  0.00  0.00    +0.000 A 
ATOM     22  H   UNL     1      52.455  -0.612  16.846  0.00  0.00    +0.000 HD
ENDBRANCH   9  12
ENDBRANCH   7  10
ENDBRANCH   1   7
BRANCH   4  23
ATOM     23  C   UNL     1      46.825   6.577  12.397  0.00  0.00    +0.000 C 
BRANCH  23  24
ATOM     24  N   UNL     1      46.209   5.596  11.542  0.00  0.00    +0.000 N 
ATOM     25  C   UNL     1      44.935   5.780  11.055  0.00  0.00    +0.000 C 
ATOM     26  O   UNL     1      44.230   6.736  11.369  0.00  0.00    +0.000 OA
ATOM     27  H   UNL     1      46.751   4.843  11.122  0.00  0.00    +0.000 HD
BRANCH  25  28
ATOM     28  C   UNL     1      44.421   4.657  10.149  0.00  0.00    +0.000 C 
ATOM     29  C   UNL     1      44.919   3.297  10.596  0.00  0.00    +0.000 C 
ATOM     30  C   UNL     1      44.730   2.446   9.357  0.00  0.00    +0.000 C 
ATOM     31  C   UNL     1      44.883   3.417   8.193  0.00  0.00    +0.000 C 
ATOM     32  N   UNL     1      44.967   4.763   8.771  0.00  0.00    +0.000 NA
ATOM     33  H   UNL     1      44.400   5.416   8.231  0.00  0.00    +0.000 HD
ENDBRANCH  25  28
ENDBRANCH  23  24
ENDBRANCH   4  23
TORSDOF 6
ENDMDL
MODEL 9
REMARK VINA RESULT:    -6.814      1.825      2.696
REMARK INTER + INTRA:         -10.286
REMARK INTER:                  -9.029
REMARK INTRA:                  -1.257
REMARK UNBOUND:                -1.081
REMARK  Name = 
REMARK  6 active torsions:
REMARK  status: ('A' for Active; 'I' for Inactive)
REMARK    1  A    between atoms: C_2  and  C_20
REMARK    2  A    between atoms: N_3  and  C_4
REMARK    3  A    between atoms: C_4  and  C_5
REMARK    4  A    between atoms: C_8  and  C_9
REMARK    5  A    between atoms: C_9  and  N_10
REMARK    6  A    between atoms: C_11  and  C_13
REMARK                            x       y       z     vdW  Elec       q    Type
REMARK                         _______ _______ _______ _____ _____    ______ ____
ROOT
ATOM      1  C   UNL     1      48.953   8.158  12.977  0.00  0.00    +0.000 A 
ATOM      2  C   UNL     1      47.905   8.889  13.552  0.00  0.00    +0.000 A 
ATOM      3  C   UNL     1      46.585   8.703  13.124  0.00  0.00    +0.000 A 
ATOM      4  C   UNL     1      46.284   7.766  12.128  0.00  0.00    +0.000 A 
ATOM      5  C   UNL     1      47.331   7.031  11.557  0.00  0.00    +0.000 A 
ATOM      6  C   UNL     1      48.651   7.216  11.985  0.00  0.00    +0.000 A 
ENDROOT
BRANCH   1   7
ATOM      7  C   UNL     1      50.369   8.339  13.463  0.00  0.00    +0.000 C 
BRANCH   7  10
ATOM      8  O   UNL     1      50.507   8.922  16.193  0.00  0.00    +0.000 OA
ATOM      9  C   UNL     1      50.655   7.758  15.832  0.00  0.00    +0.000 C 
ATOM     10  N   UNL     1      50.674   7.397  14.510  0.00  0.00    +0.000 N 
ATOM     11  H   UNL     1      50.589   6.416  14.266  0.00  0.00    +0.000 HD
BRANCH   9  12
ATOM     12  C   UNL     1      50.870   6.674  16.799  0.00  0.00    +0.000 A 
ATOM     13  C   UNL     1      51.980   6.694  17.632  0.00  0.00    +0.000 A 
ATOM     14  S   UNL     1      52.083   5.336  18.661  0.00  0.00    +0.000 S 
ATOM     15  C   UNL     1      50.623   4.700  18.063  0.00  0.00    +0.000 A 
ATOM     16  N   UNL     1      50.113   3.535  18.546  0.00  0.00    +0.000 NA
ATOM     17  C   UNL     1      48.983   3.190  18.025  0.00  0.00    +0.000 A 
ATOM     18  N   UNL     1      48.316   3.903  17.063  0.00  0.00    +0.000 N 
ATOM     19  C   UNL     1      48.806   5.067  16.526  0.00  0.00    +0.000 A 
ATOM     20  O   UNL     1      48.205   5.656  15.632  0.00  0.00    +0.000 OA
ATOM     21  C   UNL     1      50.071   5.505  17.082  0.00  0.00    +0.000 A 
ATOM     22  H   UNL     1      47.440   3.574  16.686  0.00  0.00    +0.000 HD
ENDBRANCH   9  12
ENDBRANCH   7  10
ENDBRANCH   1   7
BRANCH   4  23
ATOM     23  C   UNL     1      44.861   7.539  11.690  0.00  0.00    +0.000 C 
BRANCH  23  24
ATOM     24  N   UNL     1      44.739   6.501  10.701  0.00  0.00    +0.000 N 
ATOM     25  C   UNL     1      44.204   5.274  11.025  0.00  0.00    +0.000 C 
ATOM     26  O   UNL     1      43.871   4.969  12.168  0.00  0.00    +0.000 OA
ATOM     27  H   UNL     1      44.860   6.694   9.710  0.00  0.00    +0.000 HD
BRANCH  25  28
ATOM     28  C   UNL     1      44.127   4.276   9.865  0.00  0.00    +0.000 C 
ATOM     29  C   UNL     1      44.734   2.936  10.231  0.00  0.00    +0.000 C 
ATOM     30  C   UNL     1      45.000   2.307   8.879  0.00  0.00    +0.000 C 
ATOM     31  C   UNL     1      45.255   3.485   7.947  0.00  0.00    +0.000 C 
ATOM     32  N   UNL     1      44.960   4.703   8.712  0.00  0.00    +0.000 NA
ATOM     33  H   UNL     1      44.434   5.362   8.138  0.00  0.00    +0.000 HD
ENDBRANCH  25  28
ENDBRANCH  23  24
ENDBRANCH   4  23
TORSDOF 6
ENDMDL
