MODEL 1
REMARK VINA RESULT:    -7.732      0.000      0.000
REMARK INTER + INTRA:         -12.762
REMARK INTER:                 -11.800
REMARK INTRA:                  -0.963
REMARK UNBOUND:                -0.963
REMARK  Name = 
REMARK  11 active torsions:
REMARK  status: ('A' for Active; 'I' for Inactive)
REMARK    1  A    between atoms: C_1  and  C_2
REMARK    2  A    between atoms: C_2  and  C_3
REMARK    3  A    between atoms: C_3  and  N_4
REMARK    4  A    between atoms: C_3  and  C_21
REMARK    5  A    between atoms: N_4  and  C_5
REMARK    6  A    between atoms: C_5  and  C_6
REMARK    7  A    between atoms: C_9  and  C_10
REMARK    8  A    between atoms: C_10  and  N_11
REMARK    9  A    between atoms: N_11  and  C_12
REMARK   10  A    between atoms: C_12  and  C_13
REMARK   11  A    between atoms: N_16  and  C_17
REMARK                            x       y       z     vdW  Elec       q    Type
REMARK                         _______ _______ _______ _____ _____    ______ ____
ROOT
ATOM      1  C   UNL     1      47.896   5.847  14.500  0.00  0.00    +0.000 C 
ENDROOT
BRANCH   1   2
ATOM      2  C   UNL     1      46.922   5.413  13.433  0.00  0.00    +0.000 A 
ATOM      3  C   UNL     1      46.456   4.094  13.379  0.00  0.00    +0.000 A 
ATOM      4  C   UNL     1      45.482   3.724  12.450  0.00  0.00    +0.000 A 
ATOM      5  C   UNL     1      44.950   4.668  11.557  0.00  0.00    +0.000 A 
ATOM      6  C   UNL     1      45.418   5.985  11.608  0.00  0.00    +0.000 A 
ATOM      7  C   UNL     1      46.393   6.354  12.538  0.00  0.00    +0.000 A 
BRANCH   5   8
ATOM      8  C   UNL     1      43.868   4.274  10.582  0.00  0.00    +0.000 C 
BRANCH   8   9
ATOM      9  N   UNL     1      44.223   4.720   9.241  0.00  0.00    +0.000 NA
ATOM     10  H   UNL     1      45.086   5.263   9.288  0.00  0.00    +0.000 HD
BRANCH   9  11
ATOM     11  C   UNL     1      44.373   3.618   8.299  0.00  0.00    +0.000 C 
BRANCH  11  12
ATOM     12  C   UNL     1      45.832   3.153   8.315  0.00  0.00    +0.000 C 
ATOM     13  C   UNL     1      45.990   1.639   8.492  0.00  0.00    +0.000 C 
ATOM     14  C   UNL     1      46.795   1.179   7.282  0.00  0.00    +0.000 C 
ATOM     15  N   UNL     1      47.525   2.380   6.881  0.00  0.00    +0.000 NA
ATOM     16  C   UNL     1      48.052   2.284   5.527  0.00  0.00    +0.000 C 
ATOM     17  C   UNL     1      46.551   3.469   7.001  0.00  0.00    +0.000 C 
ENDBRANCH  11  12
ENDBRANCH   9  11
ENDBRANCH   8   9
ENDBRANCH   5   8
ENDBRANCH   1   2
BRANCH   1  18
ATOM     18  N   UNL     1      48.131   4.800  15.493  0.00  0.00    +0.000 NA
ATOM     19  H   UNL     1      48.983   4.307  15.230  0.00  0.00    +0.000 HD
BRANCH  18  20
ATOM     20  C   UNL     1      48.311   5.350  16.850  0.00  0.00    +0.000 C 
BRANCH  20  21
ATOM     21  C   UNL     1      49.751   5.057  17.233  0.00  0.00    +0.000 A 
ATOM     22  C   UNL     1      50.662   6.014  17.655  0.00  0.00    +0.000 A 
ATOM     23  S   UNL     1      52.189   5.367  18.061  0.00  0.00    +0.000 S 
ATOM     24  C   UNL     1      51.673   3.780  17.721  0.00  0.00    +0.000 A 
ATOM     25  N   UNL     1      52.495   2.714  17.919  0.00  0.00    +0.000 NA
ATOM     26  C   UNL     1      51.957   1.572  17.643  0.00  0.00    +0.000 A 
ATOM     27  N   UNL     1      50.685   1.400  17.160  0.00  0.00    +0.000 N 
ATOM     28  C   UNL     1      49.833   2.450  16.895  0.00  0.00    +0.000 A 
ATOM     29  O   UNL     1      48.732   2.264  16.390  0.00  0.00    +0.000 OA
ATOM     30  C   UNL     1      50.372   3.751  17.253  0.00  0.00    +0.000 A 
ATOM     31  H   UNL     1      50.335   0.482  16.937  0.00  0.00    +0.000 HD
ENDBRANCH  20  21
BRANCH  20  33
ATOM     32  C   UNL     1      47.081   5.626  19.086  0.00  0.00    +0.000 C 
ATOM     33  C   UNL     1      47.291   4.763  17.850  0.00  0.00    +0.000 C 
ENDBRANCH  20  33
ENDBRANCH  18  20
ENDBRANCH   1  18
TORSDOF 9
ENDMDL
MODEL 2
REMARK VINA RESULT:    -7.368      2.093      2.912
REMARK INTER + INTRA:         -12.207
REMARK INTER:                 -10.929
REMARK INTRA:                  -1.279
REMARK UNBOUND:                -0.963
REMARK  Name = 
REMARK  11 active torsions:
REMARK  status: ('A' for Active; 'I' for Inactive)
REMARK    1  A    between atoms: C_1  and  C_2
REMARK    2  A    between atoms: C_2  and  C_3
REMARK    3  A    between atoms: C_3  and  N_4
REMARK    4  A    between atoms: C_3  and  C_21
REMARK    5  A    between atoms: N_4  and  C_5
REMARK    6  A    between atoms: C_5  and  C_6
REMARK    7  A    between atoms: C_9  and  C_10
REMARK    8  A    between atoms: C_10  and  N_11
REMARK    9  A    between atoms: N_11  and  C_12
REMARK   10  A    between atoms: C_12  and  C_13
REMARK   11  A    between atoms: N_16  and  C_17
REMARK                            x       y       z     vdW  Elec       q    Type
REMARK                         _______ _______ _______ _____ _____    ______ ____
ROOT
ATOM      1  C   UNL     1      48.439   6.836  13.398  0.00  0.00    +0.000 C 
ENDROOT
BRANCH   1   2
ATOM      2  C   UNL     1      47.212   6.100  12.919  0.00  0.00    +0.000 A 
ATOM      3  C   UNL     1      46.745   4.967  13.597  0.00  0.00    +0.000 A 
ATOM      4  C   UNL     1      45.556   4.348  13.207  0.00  0.00    +0.000 A 
ATOM      5  C   UNL     1      44.805   4.853  12.134  0.00  0.00    +0.000 A 
ATOM      6  C   UNL     1      45.274   5.983  11.455  0.00  0.00    +0.000 A 
ATOM      7  C   UNL     1      46.464   6.600  11.844  0.00  0.00    +0.000 A 
BRANCH   5   8
ATOM      8  C   UNL     1      43.500   4.206  11.742  0.00  0.00    +0.000 C 
BRANCH   8   9
ATOM      9  N   UNL     1      43.559   3.776  10.351  0.00  0.00    +0.000 NA
ATOM     10  H   UNL     1      43.909   4.544   9.779  0.00  0.00    +0.000 HD
BRANCH   9  11
ATOM     11  C   UNL     1      44.384   2.589  10.161  0.00  0.00    +0.000 C 
BRANCH  11  12
ATOM     12  C   UNL     1      44.698   2.442   8.670  0.00  0.00    +0.000 C 
ATOM     13  C   UNL     1      44.975   3.775   7.968  0.00  0.00    +0.000 C 
ATOM     14  C   UNL     1      46.363   3.623   7.356  0.00  0.00    +0.000 C 
ATOM     15  N   UNL     1      46.506   2.177   7.193  0.00  0.00    +0.000 NA
ATOM     16  C   UNL     1      47.891   1.775   6.993  0.00  0.00    +0.000 C 
ATOM     17  C   UNL     1      45.955   1.604   8.425  0.00  0.00    +0.000 C 
ENDBRANCH  11  12
ENDBRANCH   9  11
ENDBRANCH   8   9
ENDBRANCH   5   8
ENDBRANCH   1   2
BRANCH   1  18
ATOM     18  N   UNL     1      48.329   7.245  14.797  0.00  0.00    +0.000 NA
ATOM     19  H   UNL     1      47.470   6.846  15.171  0.00  0.00    +0.000 HD
BRANCH  18  20
ATOM     20  C   UNL     1      49.461   6.758  15.609  0.00  0.00    +0.000 C 
BRANCH  20  21
ATOM     21  C   UNL     1      49.044   6.940  17.059  0.00  0.00    +0.000 A 
ATOM     22  C   UNL     1      48.562   8.125  17.594  0.00  0.00    +0.000 A 
ATOM     23  S   UNL     1      48.133   8.000  19.242  0.00  0.00    +0.000 S 
ATOM     24  C   UNL     1      48.544   6.349  19.286  0.00  0.00    +0.000 A 
ATOM     25  N   UNL     1      48.359   5.606  20.411  0.00  0.00    +0.000 NA
ATOM     26  C   UNL     1      48.692   4.364  20.286  0.00  0.00    +0.000 A 
ATOM     27  N   UNL     1      49.218   3.803  19.150  0.00  0.00    +0.000 N 
ATOM     28  C   UNL     1      49.472   4.524  18.004  0.00  0.00    +0.000 A 
ATOM     29  O   UNL     1      50.016   4.007  17.035  0.00  0.00    +0.000 OA
ATOM     30  C   UNL     1      49.052   5.912  18.076  0.00  0.00    +0.000 A 
ATOM     31  H   UNL     1      49.485   2.831  19.128  0.00  0.00    +0.000 HD
ENDBRANCH  20  21
BRANCH  20  33
ATOM     32  C   UNL     1      51.982   6.981  16.039  0.00  0.00    +0.000 C 
ATOM     33  C   UNL     1      50.775   7.493  15.265  0.00  0.00    +0.000 C 
ENDBRANCH  20  33
ENDBRANCH  18  20
ENDBRANCH   1  18
TORSDOF 9
ENDMDL
MODEL 3
REMARK VINA RESULT:    -7.326      2.339      3.174
REMARK INTER + INTRA:         -12.143
REMARK INTER:                 -10.704
REMARK INTRA:                  -1.439
REMARK UNBOUND:                -0.963
REMARK  Name = 
REMARK  11 active torsions:
REMARK  status: ('A' for Active; 'I' for Inactive)
REMARK    1  A    between atoms: C_1  and  C_2
REMARK    2  A    between atoms: C_2  and  C_3
REMARK    3  A    between atoms: C_3  and  N_4
REMARK    4  A    between atoms: C_3  and  C_21
REMARK    5  A    between atoms: N_4  and  C_5
REMARK    6  A    between atoms: C_5  and  C_6
REMARK    7  A    between atoms: C_9  and  C_10
REMARK    8  A    between atoms: C_10  and  N_11
REMARK    9  A    between atoms: N_11  and  C_12
REMARK   10  A    between atoms: C_12  and  C_13
REMARK   11  A    between atoms: N_16  and  C_17
REMARK                            x       y       z     vdW  Elec       q    Type
REMARK                         _______ _______ _______ _____ _____    ______ ____
ROOT
ATOM      1  C   UNL     1      46.747   8.262  12.755  0.00  0.00    +0.000 C 
ENDROOT
BRANCH   1   2
ATOM      2  C   UNL     1      45.986   7.046  12.287  0.00  0.00    +0.000 A 
ATOM      3  C   UNL     1      44.894   6.558  13.016  0.00  0.00    +0.000 A 
ATOM      4  C   UNL     1      44.135   5.492  12.527  0.00  0.00    +0.000 A 
ATOM      5  C   UNL     1      44.451   4.895  11.296  0.00  0.00    +0.000 A 
ATOM      6  C   UNL     1      45.543   5.381  10.571  0.00  0.00    +0.000 A 
ATOM      7  C   UNL     1      46.302   6.446  11.061  0.00  0.00    +0.000 A 
BRANCH   5   8
ATOM      8  C   UNL     1      43.604   3.771  10.752  0.00  0.00    +0.000 C 
BRANCH   8   9
ATOM      9  N   UNL     1      44.451   2.639  10.400  0.00  0.00    +0.000 NA
ATOM     10  H   UNL     1      44.103   1.804  10.871  0.00  0.00    +0.000 HD
BRANCH   9  11
ATOM     11  C   UNL     1      44.524   2.413   8.962  0.00  0.00    +0.000 C 
BRANCH  11  12
ATOM     12  C   UNL     1      45.996   2.302   8.556  0.00  0.00    +0.000 C 
ATOM     13  C   UNL     1      46.412   0.887   8.143  0.00  0.00    +0.000 C 
ATOM     14  C   UNL     1      46.963   1.030   6.729  0.00  0.00    +0.000 C 
ATOM     15  N   UNL     1      47.393   2.426   6.671  0.00  0.00    +0.000 NA
ATOM     16  C   UNL     1      47.589   2.890   5.305  0.00  0.00    +0.000 C 
ATOM     17  C   UNL     1      46.327   3.175   7.343  0.00  0.00    +0.000 C 
ENDBRANCH  11  12
ENDBRANCH   9  11
ENDBRANCH   8   9
ENDBRANCH   5   8
ENDBRANCH   1   2
BRANCH   1  18
ATOM     18  N   UNL     1      47.210   8.128  14.135  0.00  0.00    +0.000 NA
ATOM     19  H   UNL     1      46.541   7.544  14.633  0.00  0.00    +0.000 HD
BRANCH  18  20
ATOM     20  C   UNL     1      48.538   7.490  14.216  0.00  0.00    +0.000 C 
BRANCH  20  21
ATOM     21  C   UNL     1      48.651   6.938  15.627  0.00  0.00    +0.000 A 
ATOM     22  C   UNL     1      49.201   7.627  16.698  0.00  0.00    +0.000 A 
ATOM     23  S   UNL     1      49.141   6.759  18.167  0.00  0.00    +0.000 S 
ATOM     24  C   UNL     1      48.346   5.447  17.428  0.00  0.00    +0.000 A 
ATOM     25  N   UNL     1      47.946   4.367  18.154  0.00  0.00    +0.000 NA
ATOM     26  C   UNL     1      47.334   3.463  17.462  0.00  0.00    +0.000 A 
ATOM     27  N   UNL     1      47.111   3.526  16.110  0.00  0.00    +0.000 N 
ATOM     28  C   UNL     1      47.541   4.573  15.325  0.00  0.00    +0.000 A 
ATOM     29  O   UNL     1      47.394   4.558  14.109  0.00  0.00    +0.000 OA
ATOM     30  C   UNL     1      48.178   5.645  16.071  0.00  0.00    +0.000 A 
ATOM     31  H   UNL     1      46.651   2.771  15.625  0.00  0.00    +0.000 HD
ENDBRANCH  20  21
BRANCH  20  33
ATOM     32  C   UNL     1      50.523   8.031  12.681  0.00  0.00    +0.000 C 
ATOM     33  C   UNL     1      49.673   8.475  13.863  0.00  0.00    +0.000 C 
ENDBRANCH  20  33
ENDBRANCH  18  20
ENDBRANCH   1  18
TORSDOF 9
ENDMDL
MODEL 4
REMARK VINA RESULT:    -7.176      2.746      3.901
REMARK INTER + INTRA:         -11.914
REMARK INTER:                 -10.564
REMARK INTRA:                  -1.350
REMARK UNBOUND:                -0.963
REMARK  Name = 
REMARK  11 active torsions:
REMARK  status: ('A' for Active; 'I' for Inactive)
REMARK    1  A    between atoms: C_1  and  C_2
REMARK    2  A    between atoms: C_2  and  C_3
REMARK    3  A    between atoms: C_3  and  N_4
REMARK    4  A    between atoms: C_3  and  C_21
REMARK    5  A    between atoms: N_4  and  C_5
REMARK    6  A    between atoms: C_5  and  C_6
REMARK    7  A    between atoms: C_9  and  C_10
REMARK    8  A    between atoms: C_10  and  N_11
REMARK    9  A    between atoms: N_11  and  C_12
REMARK   10  A    between atoms: C_12  and  C_13
REMARK   11  A    between atoms: N_16  and  C_17
REMARK                            x       y       z     vdW  Elec       q    Type
REMARK                         _______ _______ _______ _____ _____    ______ ____
ROOT
ATOM      1  C   UNL     1      46.970   8.279  12.790  0.00  0.00    +0.000 C 
ENDROOT
BRANCH   1   2
ATOM      2  C   UNL     1      45.966   7.160  12.657  0.00  0.00    +0.000 A 
ATOM      3  C   UNL     1      44.911   7.247  11.740  0.00  0.00    +0.000 A 
ATOM      4  C   UNL     1      44.044   6.169  11.552  0.00  0.00    +0.000 A 
ATOM      5  C   UNL     1      44.217   4.978  12.275  0.00  0.00    +0.000 A 
ATOM      6  C   UNL     1      45.268   4.892  13.194  0.00  0.00    +0.000 A 
ATOM      7  C   UNL     1      46.134   5.972  13.382  0.00  0.00    +0.000 A 
BRANCH   5   8
ATOM      8  C   UNL     1      43.303   3.801  12.040  0.00  0.00    +0.000 C 
BRANCH   8   9
ATOM      9  N   UNL     1      43.389   3.377  10.649  0.00  0.00    +0.000 NA
ATOM     10  H   UNL     1      43.302   4.195  10.045  0.00  0.00    +0.000 HD
BRANCH   9  11
ATOM     11  C   UNL     1      44.624   2.661  10.351  0.00  0.00    +0.000 C 
BRANCH  11  12
ATOM     12  C   UNL     1      44.820   2.630   8.833  0.00  0.00    +0.000 C 
ATOM     13  C   UNL     1      45.185   3.991   8.234  0.00  0.00    +0.000 C 
ATOM     14  C   UNL     1      46.506   3.766   7.508  0.00  0.00    +0.000 C 
ATOM     15  N   UNL     1      46.488   2.336   7.205  0.00  0.00    +0.000 NA
ATOM     16  C   UNL     1      47.808   1.823   6.865  0.00  0.00    +0.000 C 
ATOM     17  C   UNL     1      45.965   1.702   8.419  0.00  0.00    +0.000 C 
ENDBRANCH  11  12
ENDBRANCH   9  11
ENDBRANCH   8   9
ENDBRANCH   5   8
ENDBRANCH   1   2
BRANCH   1  18
ATOM     18  N   UNL     1      47.007   8.830  14.144  0.00  0.00    +0.000 NA
ATOM     19  H   UNL     1      46.585   8.146  14.770  0.00  0.00    +0.000 HD
BRANCH  18  20
ATOM     20  C   UNL     1      48.385   9.092  14.599  0.00  0.00    +0.000 C 
BRANCH  20  21
ATOM     21  C   UNL     1      48.381   8.859  16.101  0.00  0.00    +0.000 A 
ATOM     22  C   UNL     1      48.120   9.840  17.047  0.00  0.00    +0.000 A 
ATOM     23  S   UNL     1      48.141   9.258  18.652  0.00  0.00    +0.000 S 
ATOM     24  C   UNL     1      48.465   7.669  18.135  0.00  0.00    +0.000 A 
ATOM     25  N   UNL     1      48.551   6.643  19.024  0.00  0.00    +0.000 NA
ATOM     26  C   UNL     1      48.776   5.491  18.482  0.00  0.00    +0.000 A 
ATOM     27  N   UNL     1      48.951   5.276  17.140  0.00  0.00    +0.000 N 
ATOM     28  C   UNL     1      48.924   6.289  16.206  0.00  0.00    +0.000 A 
ATOM     29  O   UNL     1      49.164   6.071  15.024  0.00  0.00    +0.000 OA
ATOM     30  C   UNL     1      48.609   7.593  16.762  0.00  0.00    +0.000 A 
ATOM     31  H   UNL     1      49.153   4.354  16.784  0.00  0.00    +0.000 HD
ENDBRANCH  20  21
BRANCH  20  33
ATOM     32  C   UNL     1      50.113  10.519  13.348  0.00  0.00    +0.000 C 
ATOM     33  C   UNL     1      48.860  10.509  14.213  0.00  0.00    +0.000 C 
ENDBRANCH  20  33
ENDBRANCH  18  20
ENDBRANCH   1  18
TORSDOF 9
ENDMDL
MODEL 5
REMARK VINA RESULT:    -7.042      1.824      2.422
REMARK INTER + INTRA:         -11.709
REMARK INTER:                 -10.554
REMARK INTRA:                  -1.156
REMARK UNBOUND:                -0.963
REMARK  Name = 
REMARK  11 active torsions:
REMARK  status: ('A' for Active; 'I' for Inactive)
REMARK    1  A    between atoms: C_1  and  C_2
REMARK    2  A    between atoms: C_2  and  C_3
REMARK    3  A    between atoms: C_3  and  N_4
REMARK    4  A    between atoms: C_3  and  C_21
REMARK    5  A    between atoms: N_4  and  C_5
REMARK    6  A    between atoms: C_5  and  C_6
REMARK    7  A    between atoms: C_9  and  C_10
REMARK    8  A    between atoms: C_10  and  N_11
REMARK    9  A    between atoms: N_11  and  C_12
REMARK   10  A    between atoms: C_12  and  C_13
REMARK   11  A    between atoms: N_16  and  C_17
REMARK                            x       y       z     vdW  Elec       q    Type
REMARK                         _______ _______ _______ _____ _____    ______ ____
ROOT
ATOM      1  C   UNL     1      48.198   6.870  13.708  0.00  0.00    +0.000 C 
ENDROOT
BRANCH   1   2
ATOM      2  C   UNL     1      47.048   6.253  12.951  0.00  0.00    +0.000 A 
ATOM      3  C   UNL     1      46.622   6.790  11.730  0.00  0.00    +0.000 A 
ATOM      4  C   UNL     1      45.622   6.158  10.988  0.00  0.00    +0.000 A 
ATOM      5  C   UNL     1      45.030   4.972  11.450  0.00  0.00    +0.000 A 
ATOM      6  C   UNL     1      45.454   4.437  12.671  0.00  0.00    +0.000 A 
ATOM      7  C   UNL     1      46.453   5.071  13.413  0.00  0.00    +0.000 A 
BRANCH   5   8
ATOM      8  C   UNL     1      43.979   4.270  10.626  0.00  0.00    +0.000 C 
BRANCH   8   9
ATOM      9  N   UNL     1      43.993   4.786   9.263  0.00  0.00    +0.000 NA
ATOM     10  H   UNL     1      44.698   5.518   9.191  0.00  0.00    +0.000 HD
BRANCH   9  11
ATOM     11  C   UNL     1      44.240   3.749   8.269  0.00  0.00    +0.000 C 
BRANCH  11  12
ATOM     12  C   UNL     1      45.699   3.297   8.381  0.00  0.00    +0.000 C 
ATOM     13  C   UNL     1      45.856   1.798   8.654  0.00  0.00    +0.000 C 
ATOM     14  C   UNL     1      46.721   1.274   7.514  0.00  0.00    +0.000 C 
ATOM     15  N   UNL     1      47.464   2.456   7.080  0.00  0.00    +0.000 NA
ATOM     16  C   UNL     1      48.056   2.285   5.760  0.00  0.00    +0.000 C 
ATOM     17  C   UNL     1      46.479   3.542   7.088  0.00  0.00    +0.000 C 
ENDBRANCH  11  12
ENDBRANCH   9  11
ENDBRANCH   8   9
ENDBRANCH   5   8
ENDBRANCH   1   2
BRANCH   1  18
ATOM     18  N   UNL     1      47.941   6.940  15.145  0.00  0.00    +0.000 NA
ATOM     19  H   UNL     1      47.485   6.072  15.422  0.00  0.00    +0.000 HD
BRANCH  18  20
ATOM     20  C   UNL     1      49.184   7.085  15.926  0.00  0.00    +0.000 C 
BRANCH  20  21
ATOM     21  C   UNL     1      49.379   5.763  16.650  0.00  0.00    +0.000 A 
ATOM     22  C   UNL     1      48.358   4.873  16.948  0.00  0.00    +0.000 A 
ATOM     23  S   UNL     1      48.901   3.452  17.724  0.00  0.00    +0.000 S 
ATOM     24  C   UNL     1      50.523   3.964  17.655  0.00  0.00    +0.000 A 
ATOM     25  N   UNL     1      51.532   3.169  18.107  0.00  0.00    +0.000 NA
ATOM     26  C   UNL     1      52.711   3.680  17.965  0.00  0.00    +0.000 A 
ATOM     27  N   UNL     1      52.972   4.920  17.442  0.00  0.00    +0.000 N 
ATOM     28  C   UNL     1      51.982   5.780  17.019  0.00  0.00    +0.000 A 
ATOM     29  O   UNL     1      52.248   6.912  16.630  0.00  0.00    +0.000 OA
ATOM     30  C   UNL     1      50.643   5.223  17.098  0.00  0.00    +0.000 A 
ATOM     31  H   UNL     1      53.915   5.271  17.386  0.00  0.00    +0.000 HD
ENDBRANCH  20  21
BRANCH  20  33
ATOM     32  C   UNL     1      48.185   9.397  16.422  0.00  0.00    +0.000 C 
ATOM     33  C   UNL     1      49.124   8.293  16.887  0.00  0.00    +0.000 C 
ENDBRANCH  20  33
ENDBRANCH  18  20
ENDBRANCH   1  18
TORSDOF 9
ENDMDL
MODEL 6
REMARK VINA RESULT:    -6.821      1.394      2.219
REMARK INTER + INTRA:         -11.373
REMARK INTER:                 -10.296
REMARK INTRA:                  -1.076
REMARK UNBOUND:                -0.963
REMARK  Name = 
REMARK  11 active torsions:
REMARK  status: ('A' for Active; 'I' for Inactive)
REMARK    1  A    between atoms: C_1  and  C_2
REMARK    2  A    between atoms: C_2  and  C_3
REMARK    3  A    between atoms: C_3  and  N_4
REMARK    4  A    between atoms: C_3  and  C_21
REMARK    5  A    between atoms: N_4  and  C_5
REMARK    6  A    between atoms: C_5  and  C_6
REMARK    7  A    between atoms: C_9  and  C_10
REMARK    8  A    between atoms: C_10  and  N_11
REMARK    9  A    between atoms: N_11  and  C_12
REMARK   10  A    between atoms: C_12  and  C_13
REMARK   11  A    between atoms: N_16  and  C_17
REMARK                            x       y       z     vdW  Elec       q    Type
REMARK                         _______ _______ _______ _____ _____    ______ ____
ROOT
ATOM      1  C   UNL     1      49.317   6.530  15.651  0.00  0.00    +0.000 C 
ENDROOT
BRANCH   1   2
ATOM      2  C   UNL     1      48.158   6.641  14.692  0.00  0.00    +0.000 A 
ATOM      3  C   UNL     1      47.858   7.857  14.064  0.00  0.00    +0.000 A 
ATOM      4  C   UNL     1      46.846   7.929  13.106  0.00  0.00    +0.000 A 
ATOM      5  C   UNL     1      46.114   6.785  12.751  0.00  0.00    +0.000 A 
ATOM      6  C   UNL     1      46.411   5.571  13.380  0.00  0.00    +0.000 A 
ATOM      7  C   UNL     1      47.423   5.500  14.340  0.00  0.00    +0.000 A 
BRANCH   5   8
ATOM      8  C   UNL     1      45.049   6.858  11.685  0.00  0.00    +0.000 C 
BRANCH   8   9
ATOM      9  N   UNL     1      44.053   5.817  11.908  0.00  0.00    +0.000 NA
ATOM     10  H   UNL     1      43.227   6.233  12.338  0.00  0.00    +0.000 HD
BRANCH   9  11
ATOM     11  C   UNL     1      43.685   5.116  10.684  0.00  0.00    +0.000 C 
BRANCH  11  12
ATOM     12  C   UNL     1      44.845   4.207  10.270  0.00  0.00    +0.000 C 
ATOM     13  C   UNL     1      44.473   2.722  10.222  0.00  0.00    +0.000 C 
ATOM     14  C   UNL     1      44.796   2.275   8.800  0.00  0.00    +0.000 C 
ATOM     15  N   UNL     1      45.819   3.226   8.370  0.00  0.00    +0.000 NA
ATOM     16  C   UNL     1      45.995   3.237   6.925  0.00  0.00    +0.000 C 
ATOM     17  C   UNL     1      45.354   4.526   8.862  0.00  0.00    +0.000 C 
ENDBRANCH  11  12
ENDBRANCH   9  11
ENDBRANCH   8   9
ENDBRANCH   5   8
ENDBRANCH   1   2
BRANCH   1  18
ATOM     18  N   UNL     1      49.384   5.217  16.289  0.00  0.00    +0.000 NA
ATOM     19  H   UNL     1      50.208   4.737  15.930  0.00  0.00    +0.000 HD
BRANCH  18  20
ATOM     20  C   UNL     1      49.505   5.317  17.756  0.00  0.00    +0.000 C 
BRANCH  20  21
ATOM     21  C   UNL     1      50.836   4.675  18.111  0.00  0.00    +0.000 A 
ATOM     22  C   UNL     1      51.861   5.317  18.790  0.00  0.00    +0.000 A 
ATOM     23  S   UNL     1      53.213   4.317  19.083  0.00  0.00    +0.000 S 
ATOM     24  C   UNL     1      52.459   2.981  18.344  0.00  0.00    +0.000 A 
ATOM     25  N   UNL     1      53.065   1.763  18.305  0.00  0.00    +0.000 NA
ATOM     26  C   UNL     1      52.361   0.841  17.735  0.00  0.00    +0.000 A 
ATOM     27  N   UNL     1      51.123   1.030  17.177  0.00  0.00    +0.000 N 
ATOM     28  C   UNL     1      50.492   2.254  17.145  0.00  0.00    +0.000 A 
ATOM     29  O   UNL     1      49.421   2.403  16.567  0.00  0.00    +0.000 OA
ATOM     30  C   UNL     1      51.217   3.308  17.833  0.00  0.00    +0.000 A 
ATOM     31  H   UNL     1      50.639   0.272  16.720  0.00  0.00    +0.000 HD
ENDBRANCH  20  21
BRANCH  20  33
ATOM     32  C   UNL     1      47.064   5.535  18.522  0.00  0.00    +0.000 C 
ATOM     33  C   UNL     1      48.309   4.660  18.479  0.00  0.00    +0.000 C 
ENDBRANCH  20  33
ENDBRANCH  18  20
ENDBRANCH   1  18
TORSDOF 9
ENDMDL
MODEL 7
REMARK VINA RESULT:    -6.746      2.067      2.960
REMARK INTER + INTRA:         -11.258
REMARK INTER:                  -9.894
REMARK INTRA:                  -1.365
REMARK UNBOUND:                -0.963
REMARK  Name = 
REMARK  11 active torsions:
REMARK  status: ('A' for Active; 'I' for Inactive)
REMARK    1  A    between atoms: C_1  and  C_2
REMARK    2  A    between atoms: C_2  and  C_3
REMARK    3  A    between atoms: C_3  and  N_4
REMARK    4  A    between atoms: C_3  and  C_21
REMARK    5  A    between atoms: N_4  and  C_5
REMARK    6  A    between atoms: C_5  and  C_6
REMARK    7  A    between atoms: C_9  and  C_10
REMARK    8  A    between atoms: C_10  and  N_11
REMARK    9  A    between atoms: N_11  and  C_12
REMARK   10  A    between atoms: C_12  and  C_13
REMARK   11  A    between atoms: N_16  and  C_17
REMARK                            x       y       z     vdW  Elec       q    Type
REMARK                         _______ _______ _______ _____ _____    ______ ____
ROOT
ATOM      1  C   UNL     1      47.815   5.818  14.348  0.00  0.00    +0.000 C 
ENDROOT
BRANCH   1   2
ATOM      2  C   UNL     1      46.736   5.495  13.344  0.00  0.00    +0.000 A 
ATOM      3  C   UNL     1      46.233   4.193  13.225  0.00  0.00    +0.000 A 
ATOM      4  C   UNL     1      45.168   3.921  12.363  0.00  0.00    +0.000 A 
ATOM      5  C   UNL     1      44.580   4.947  11.607  0.00  0.00    +0.000 A 
ATOM      6  C   UNL     1      45.084   6.247  11.724  0.00  0.00    +0.000 A 
ATOM      7  C   UNL     1      46.151   6.518  12.585  0.00  0.00    +0.000 A 
BRANCH   5   8
ATOM      8  C   UNL     1      43.403   4.658  10.709  0.00  0.00    +0.000 C 
BRANCH   8   9
ATOM      9  N   UNL     1      43.745   3.596   9.771  0.00  0.00    +0.000 NA
ATOM     10  H   UNL     1      42.889   3.143   9.452  0.00  0.00    +0.000 HD
BRANCH   9  11
ATOM     11  C   UNL     1      44.515   4.077   8.630  0.00  0.00    +0.000 C 
BRANCH  11  12
ATOM     12  C   UNL     1      45.880   3.383   8.630  0.00  0.00    +0.000 C 
ATOM     13  C   UNL     1      45.793   1.862   8.789  0.00  0.00    +0.000 C 
ATOM     14  C   UNL     1      46.507   1.292   7.568  0.00  0.00    +0.000 C 
ATOM     15  N   UNL     1      47.419   2.365   7.177  0.00  0.00    +0.000 NA
ATOM     16  C   UNL     1      47.917   2.202   5.818  0.00  0.00    +0.000 C 
ATOM     17  C   UNL     1      46.634   3.595   7.315  0.00  0.00    +0.000 C 
ENDBRANCH  11  12
ENDBRANCH   9  11
ENDBRANCH   8   9
ENDBRANCH   5   8
ENDBRANCH   1   2
BRANCH   1  18
ATOM     18  N   UNL     1      47.905   4.813  15.406  0.00  0.00    +0.000 NA
ATOM     19  H   UNL     1      48.744   4.260  15.240  0.00  0.00    +0.000 HD
BRANCH  18  20
ATOM     20  C   UNL     1      48.006   5.425  16.745  0.00  0.00    +0.000 C 
BRANCH  20  21
ATOM     21  C   UNL     1      49.482   5.716  16.961  0.00  0.00    +0.000 A 
ATOM     22  C   UNL     1      50.439   4.753  17.244  0.00  0.00    +0.000 A 
ATOM     23  S   UNL     1      52.018   5.385  17.386  0.00  0.00    +0.000 S 
ATOM     24  C   UNL     1      51.481   6.963  17.039  0.00  0.00    +0.000 A 
ATOM     25  N   UNL     1      52.357   8.001  16.945  0.00  0.00    +0.000 NA
ATOM     26  C   UNL     1      51.806   9.133  16.651  0.00  0.00    +0.000 A 
ATOM     27  N   UNL     1      50.461   9.328  16.471  0.00  0.00    +0.000 N 
ATOM     28  C   UNL     1      49.530   8.321  16.605  0.00  0.00    +0.000 A 
ATOM     29  O   UNL     1      48.330   8.548  16.515  0.00  0.00    +0.000 OA
ATOM     30  C   UNL     1      50.110   7.015  16.871  0.00  0.00    +0.000 A 
ATOM     31  H   UNL     1      50.092  10.245  16.271  0.00  0.00    +0.000 HD
ENDBRANCH  20  21
BRANCH  20  33
ATOM     32  C   UNL     1      47.143   3.091  17.376  0.00  0.00    +0.000 C 
ATOM     33  C   UNL     1      47.406   4.516  17.840  0.00  0.00    +0.000 C 
ENDBRANCH  20  33
ENDBRANCH  18  20
ENDBRANCH   1  18
TORSDOF 9
ENDMDL
MODEL 8
REMARK VINA RESULT:    -6.680      2.143      3.018
REMARK INTER + INTRA:         -11.157
REMARK INTER:                 -10.567
REMARK INTRA:                  -0.590
REMARK UNBOUND:                -0.963
REMARK  Name = 
REMARK  11 active torsions:
REMARK  status: ('A' for Active; 'I' for Inactive)
REMARK    1  A    between atoms: C_1  and  C_2
REMARK    2  A    between atoms: C_2  and  C_3
REMARK    3  A    between atoms: C_3  and  N_4
REMARK    4  A    between atoms: C_3  and  C_21
REMARK    5  A    between atoms: N_4  and  C_5
REMARK    6  A    between atoms: C_5  and  C_6
REMARK    7  A    between atoms: C_9  and  C_10
REMARK    8  A    between atoms: C_10  and  N_11
REMARK    9  A    between atoms: N_11  and  C_12
REMARK   10  A    between atoms: C_12  and  C_13
REMARK   11  A    between atoms: N_16  and  C_17
REMARK                            x       y       z     vdW  Elec       q    Type
REMARK                         _______ _______ _______ _____ _____    ______ ____
ROOT
ATOM      1  C   UNL     1      47.879   6.149  14.476  0.00  0.00    +0.000 C 
ENDROOT
BRANCH   1   2
ATOM      2  C   UNL     1      46.780   5.760  13.519  0.00  0.00    +0.000 A 
ATOM      3  C   UNL     1      45.930   4.683  13.802  0.00  0.00    +0.000 A 
ATOM      4  C   UNL     1      44.854   4.389  12.961  0.00  0.00    +0.000 A 
ATOM      5  C   UNL     1      44.604   5.169  11.821  0.00  0.00    +0.000 A 
ATOM      6  C   UNL     1      45.455   6.242  11.537  0.00  0.00    +0.000 A 
ATOM      7  C   UNL     1      46.531   6.535  12.378  0.00  0.00    +0.000 A 
BRANCH   5   8
ATOM      8  C   UNL     1      43.417   4.873  10.938  0.00  0.00    +0.000 C 
BRANCH   8   9
ATOM      9  N   UNL     1      43.375   3.451  10.626  0.00  0.00    +0.000 NA
ATOM     10  H   UNL     1      42.744   3.301   9.838  0.00  0.00    +0.000 HD
BRANCH   9  11
ATOM     11  C   UNL     1      44.691   2.898  10.329  0.00  0.00    +0.000 C 
BRANCH  11  12
ATOM     12  C   UNL     1      44.832   2.752   8.811  0.00  0.00    +0.000 C 
ATOM     13  C   UNL     1      45.280   4.039   8.112  0.00  0.00    +0.000 C 
ATOM     14  C   UNL     1      46.554   3.664   7.364  0.00  0.00    +0.000 C 
ATOM     15  N   UNL     1      46.417   2.224   7.159  0.00  0.00    +0.000 NA
ATOM     16  C   UNL     1      47.681   1.588   6.816  0.00  0.00    +0.000 C 
ATOM     17  C   UNL     1      45.888   1.713   8.428  0.00  0.00    +0.000 C 
ENDBRANCH  11  12
ENDBRANCH   9  11
ENDBRANCH   8   9
ENDBRANCH   5   8
ENDBRANCH   1   2
BRANCH   1  18
ATOM     18  N   UNL     1      48.342   5.018  15.278  0.00  0.00    +0.000 NA
ATOM     19  H   UNL     1      49.361   5.029  15.272  0.00  0.00    +0.000 HD
BRANCH  18  20
ATOM     20  C   UNL     1      47.882   5.103  16.676  0.00  0.00    +0.000 C 
BRANCH  20  21
ATOM     21  C   UNL     1      49.066   5.623  17.475  0.00  0.00    +0.000 A 
ATOM     22  C   UNL     1      50.379   5.613  17.029  0.00  0.00    +0.000 A 
ATOM     23  S   UNL     1      51.478   6.311  18.135  0.00  0.00    +0.000 S 
ATOM     24  C   UNL     1      50.229   6.682  19.231  0.00  0.00    +0.000 A 
ATOM     25  N   UNL     1      50.484   7.353  20.388  0.00  0.00    +0.000 NA
ATOM     26  C   UNL     1      49.435   7.586  21.106  0.00  0.00    +0.000 A 
ATOM     27  N   UNL     1      48.163   7.186  20.789  0.00  0.00    +0.000 N 
ATOM     28  C   UNL     1      47.862   6.461  19.657  0.00  0.00    +0.000 A 
ATOM     29  O   UNL     1      46.726   6.053  19.447  0.00  0.00    +0.000 OA
ATOM     30  C   UNL     1      49.001   6.232  18.785  0.00  0.00    +0.000 A 
ATOM     31  H   UNL     1      47.391   7.376  21.410  0.00  0.00    +0.000 HD
ENDBRANCH  20  21
BRANCH  20  33
ATOM     32  C   UNL     1      48.322   2.591  16.968  0.00  0.00    +0.000 C 
ATOM     33  C   UNL     1      47.358   3.746  17.195  0.00  0.00    +0.000 C 
ENDBRANCH  20  33
ENDBRANCH  18  20
ENDBRANCH   1  18
TORSDOF 9
ENDMDL
MODEL 9
REMARK VINA RESULT:    -6.328      4.479      5.419
REMARK INTER + INTRA:         -10.620
REMARK INTER:                  -9.460
REMARK INTRA:                  -1.161
REMARK UNBOUND:                -0.963
REMARK  Name = 
REMARK  11 active torsions:
REMARK  status: ('A' for Active; 'I' for Inactive)
REMARK    1  A    between atoms: C_1  and  C_2
REMARK    2  A    between atoms: C_2  and  C_3
REMARK    3  A    between atoms: C_3  and  N_4
REMARK    4  A    between atoms: C_3  and  C_21
REMARK    5  A    between atoms: N_4  and  C_5
REMARK    6  A    between atoms: C_5  and  C_6
REMARK    7  A    between atoms: C_9  and  C_10
REMARK    8  A    between atoms: C_10  and  N_11
REMARK    9  A    between atoms: N_11  and  C_12
REMARK   10  A    between atoms: C_12  and  C_13
REMARK   11  A    between atoms: N_16  and  C_17
REMARK                            x       y       z     vdW  Elec       q    Type
REMARK                         _______ _______ _______ _____ _____    ______ ____
ROOT
ATOM      1  C   UNL     1      47.841   7.552  12.249  0.00  0.00    +0.000 C 
ENDROOT
BRANCH   1   2
ATOM      2  C   UNL     1      46.576   6.731  12.314  0.00  0.00    +0.000 A 
ATOM      3  C   UNL     1      45.476   7.042  11.505  0.00  0.00    +0.000 A 
ATOM      4  C   UNL     1      44.346   6.222  11.499  0.00  0.00    +0.000 A 
ATOM      5  C   UNL     1      44.295   5.069  12.299  0.00  0.00    +0.000 A 
ATOM      6  C   UNL     1      45.392   4.761  13.109  0.00  0.00    +0.000 A 
ATOM      7  C   UNL     1      46.522   5.582  13.115  0.00  0.00    +0.000 A 
BRANCH   5   8
ATOM      8  C   UNL     1      43.089   4.163  12.259  0.00  0.00    +0.000 C 
BRANCH   8   9
ATOM      9  N   UNL     1      43.068   3.423  11.004  0.00  0.00    +0.000 NA
ATOM     10  H   UNL     1      42.766   4.045  10.255  0.00  0.00    +0.000 HD
BRANCH   9  11
ATOM     11  C   UNL     1      44.358   2.829  10.677  0.00  0.00    +0.000 C 
BRANCH  11  12
ATOM     12  C   UNL     1      44.489   2.748   9.153  0.00  0.00    +0.000 C 
ATOM     13  C   UNL     1      44.887   4.076   8.501  0.00  0.00    +0.000 C 
ATOM     14  C   UNL     1      46.166   3.773   7.729  0.00  0.00    +0.000 C 
ATOM     15  N   UNL     1      46.074   2.338   7.468  0.00  0.00    +0.000 NA
ATOM     16  C   UNL     1      47.356   1.760   7.089  0.00  0.00    +0.000 C 
ATOM     17  C   UNL     1      45.576   1.761   8.720  0.00  0.00    +0.000 C 
ENDBRANCH  11  12
ENDBRANCH   9  11
ENDBRANCH   8   9
ENDBRANCH   5   8
ENDBRANCH   1   2
BRANCH   1  18
ATOM     18  N   UNL     1      47.600   8.963  12.545  0.00  0.00    +0.000 NA
ATOM     19  H   UNL     1      47.698   9.091  13.551  0.00  0.00    +0.000 HD
BRANCH  18  20
ATOM     20  C   UNL     1      48.567   9.846  11.866  0.00  0.00    +0.000 C 
BRANCH  20  21
ATOM     21  C   UNL     1      49.677  10.103  12.872  0.00  0.00    +0.000 A 
ATOM     22  C   UNL     1      49.588  10.999  13.927  0.00  0.00    +0.000 A 
ATOM     23  S   UNL     1      50.982  11.029  14.912  0.00  0.00    +0.000 S 
ATOM     24  C   UNL     1      51.737   9.819  13.983  0.00  0.00    +0.000 A 
ATOM     25  N   UNL     1      52.959   9.328  14.325  0.00  0.00    +0.000 NA
ATOM     26  C   UNL     1      53.393   8.396  13.542  0.00  0.00    +0.000 A 
ATOM     27  N   UNL     1      52.733   7.931  12.434  0.00  0.00    +0.000 N 
ATOM     28  C   UNL     1      51.518   8.432  12.017  0.00  0.00    +0.000 A 
ATOM     29  O   UNL     1      50.995   8.048  10.978  0.00  0.00    +0.000 OA
ATOM     30  C   UNL     1      50.960   9.437  12.905  0.00  0.00    +0.000 A 
ATOM     31  H   UNL     1      53.141   7.221  11.846  0.00  0.00    +0.000 HD
ENDBRANCH  20  21
BRANCH  20  33
ATOM     32  C   UNL     1      46.385  11.076  11.305  0.00  0.00    +0.000 C 
ATOM     33  C   UNL     1      47.905  11.145  11.358  0.00  0.00    +0.000 C 
ENDBRANCH  20  33
ENDBRANCH  18  20
ENDBRANCH   1  18
TORSDOF 9
ENDMDL
