MODEL 1
REMARK VINA RESULT:    -7.679      0.000      0.000
REMARK INTER + INTRA:         -10.390
REMARK INTER:                  -9.699
REMARK INTRA:                  -0.691
REMARK UNBOUND:                -0.691
REMARK  Name = 
REMARK  5 active torsions:
REMARK  status: ('A' for Active; 'I' for Inactive)
REMARK    1  A    between atoms: N_1  and  C_2
REMARK    2  A    between atoms: C_2  and  C_3
REMARK    3  A    between atoms: C_3  and  C_4
REMARK    4  A    between atoms: C_7  and  C_8
REMARK    5  A    between atoms: C_8  and  N_9
REMARK                            x       y       z     vdW  Elec       q    Type
REMARK                         _______ _______ _______ _____ _____    ______ ____
ROOT
ATOM      1  C   UNL     1      45.907   2.585   8.248  0.00  0.00    +0.000 A 
ATOM      2  C   UNL     1      45.982   3.983   8.220  0.00  0.00    +0.000 A 
ATOM      3  C   UNL     1      45.180   4.755   9.067  0.00  0.00    +0.000 A 
ATOM      4  C   UNL     1      44.288   4.144   9.961  0.00  0.00    +0.000 A 
ATOM      5  C   UNL     1      44.230   2.744   9.994  0.00  0.00    +0.000 A 
ATOM      6  C   UNL     1      45.035   1.972   9.153  0.00  0.00    +0.000 A 
ENDROOT
BRANCH   1   7
ATOM      7  C   UNL     1      46.741   1.747   7.309  0.00  0.00    +0.000 C 
BRANCH   7   8
ATOM      8  C   UNL     1      47.928   2.524   6.737  0.00  0.00    +0.000 C 
BRANCH   8   9
ATOM      9  N   UNL     1      48.570   1.782   5.651  0.00  0.00    +0.000 NA
ATOM     10  H   UNL     1      49.403   2.287   5.347  0.00  0.00    +0.000 HD
ATOM     11  H   UNL     1      47.949   1.745   4.844  0.00  0.00    +0.000 HD
ENDBRANCH   8   9
ENDBRANCH   7   8
ENDBRANCH   1   7
BRANCH   4  12
ATOM     12  C   UNL     1      43.328   4.972  10.793  0.00  0.00    +0.000 C 
BRANCH  12  13
ATOM     13  N   UNL     1      44.072   5.936  11.596  0.00  0.00    +0.000 N 
ATOM     14  N   UNL     1      44.019   7.251  11.274  0.00  0.00    +0.000 NA
ATOM     15  C   UNL     1      45.154   7.732  11.790  0.00  0.00    +0.000 A 
ATOM     16  C   UNL     1      45.879   6.761  12.516  0.00  0.00    +0.000 A 
ATOM     17  C   UNL     1      47.119   6.702  13.171  0.00  0.00    +0.000 A 
ATOM     18  C   UNL     1      47.465   5.531  13.855  0.00  0.00    +0.000 A 
ATOM     19  C   UNL     1      46.582   4.453  13.921  0.00  0.00    +0.000 A 
ATOM     20  C   UNL     1      45.361   4.478  13.240  0.00  0.00    +0.000 A 
ATOM     21  C   UNL     1      45.060   5.635  12.509  0.00  0.00    +0.000 A 
ENDBRANCH  12  13
ENDBRANCH   4  12
TORSDOF 5
ENDMDL
MODEL 2
REMARK VINA RESULT:    -7.272      1.381      2.519
REMARK INTER + INTRA:          -9.876
REMARK INTER:                  -9.364
REMARK INTRA:                  -0.512
REMARK UNBOUND:                -0.691
REMARK  Name = 
REMARK  5 active torsions:
REMARK  status: ('A' for Active; 'I' for Inactive)
REMARK    1  A    between atoms: N_1  and  C_2
REMARK    2  A    between atoms: C_2  and  C_3
REMARK    3  A    between atoms: C_3  and  C_4
REMARK    4  A    between atoms: C_7  and  C_8
REMARK    5  A    between atoms: C_8  and  N_9
REMARK                            x       y       z     vdW  Elec       q    Type
REMARK                         _______ _______ _______ _____ _____    ______ ____
ROOT
ATOM      1  C   UNL     1      45.865   3.081   7.834  0.00  0.00    +0.000 A 
ATOM      2  C   UNL     1      45.272   2.309   8.841  0.00  0.00    +0.000 A 
ATOM      3  C   UNL     1      44.868   2.899  10.044  0.00  0.00    +0.000 A 
ATOM      4  C   UNL     1      45.048   4.273  10.262  0.00  0.00    +0.000 A 
ATOM      5  C   UNL     1      45.627   5.041   9.243  0.00  0.00    +0.000 A 
ATOM      6  C   UNL     1      46.025   4.454   8.040  0.00  0.00    +0.000 A 
ENDROOT
BRANCH   1   7
ATOM      7  C   UNL     1      46.339   2.443   6.550  0.00  0.00    +0.000 C 
BRANCH   7   8
ATOM      8  C   UNL     1      47.603   1.605   6.749  0.00  0.00    +0.000 C 
BRANCH   8   9
ATOM      9  N   UNL     1      48.587   1.876   5.700  0.00  0.00    +0.000 NA
ATOM     10  H   UNL     1      48.520   1.153   4.984  0.00  0.00    +0.000 HD
ATOM     11  H   UNL     1      49.529   1.812   6.084  0.00  0.00    +0.000 HD
ENDBRANCH   8   9
ENDBRANCH   7   8
ENDBRANCH   1   7
BRANCH   4  12
ATOM     12  C   UNL     1      44.727   4.897  11.606  0.00  0.00    +0.000 C 
BRANCH  12  13
ATOM     13  N   UNL     1      45.897   4.837  12.474  0.00  0.00    +0.000 N 
ATOM     14  N   UNL     1      45.966   3.880  13.431  0.00  0.00    +0.000 NA
ATOM     15  C   UNL     1      46.799   4.414  14.329  0.00  0.00    +0.000 A 
ATOM     16  C   UNL     1      47.332   5.654  13.910  0.00  0.00    +0.000 A 
ATOM     17  C   UNL     1      48.159   6.642  14.469  0.00  0.00    +0.000 A 
ATOM     18  C   UNL     1      48.524   7.739  13.679  0.00  0.00    +0.000 A 
ATOM     19  C   UNL     1      48.112   7.834  12.350  0.00  0.00    +0.000 A 
ATOM     20  C   UNL     1      47.255   6.881  11.791  0.00  0.00    +0.000 A 
ATOM     21  C   UNL     1      46.849   5.824  12.616  0.00  0.00    +0.000 A 
ENDBRANCH  12  13
ENDBRANCH   4  12
TORSDOF 5
ENDMDL
MODEL 3
REMARK VINA RESULT:    -6.664      1.242      2.709
REMARK INTER + INTRA:          -9.108
REMARK INTER:                  -8.728
REMARK INTRA:                  -0.379
REMARK UNBOUND:                -0.691
REMARK  Name = 
REMARK  5 active torsions:
REMARK  status: ('A' for Active; 'I' for Inactive)
REMARK    1  A    between atoms: N_1  and  C_2
REMARK    2  A    between atoms: C_2  and  C_3
REMARK    3  A    between atoms: C_3  and  C_4
REMARK    4  A    between atoms: C_7  and  C_8
REMARK    5  A    between atoms: C_8  and  N_9
REMARK                            x       y       z     vdW  Elec       q    Type
REMARK                         _______ _______ _______ _____ _____    ______ ____
ROOT
ATOM      1  C   UNL     1      45.819   2.978   7.831  0.00  0.00    +0.000 A 
ATOM      2  C   UNL     1      45.093   2.221   8.759  0.00  0.00    +0.000 A 
ATOM      3  C   UNL     1      44.618   2.806   9.938  0.00  0.00    +0.000 A 
ATOM      4  C   UNL     1      44.857   4.161  10.210  0.00  0.00    +0.000 A 
ATOM      5  C   UNL     1      45.570   4.915   9.269  0.00  0.00    +0.000 A 
ATOM      6  C   UNL     1      46.039   4.334   8.090  0.00  0.00    +0.000 A 
ENDROOT
BRANCH   1   7
ATOM      7  C   UNL     1      46.368   2.343   6.576  0.00  0.00    +0.000 C 
BRANCH   7   8
ATOM      8  C   UNL     1      47.726   1.677   6.808  0.00  0.00    +0.000 C 
BRANCH   8   9
ATOM      9  N   UNL     1      48.592   1.823   5.638  0.00  0.00    +0.000 NA
ATOM     10  H   UNL     1      49.294   2.539   5.828  0.00  0.00    +0.000 HD
ATOM     11  H   UNL     1      48.048   2.162   4.845  0.00  0.00    +0.000 HD
ENDBRANCH   8   9
ENDBRANCH   7   8
ENDBRANCH   1   7
BRANCH   4  12
ATOM     12  C   UNL     1      44.453   4.772  11.538  0.00  0.00    +0.000 C 
BRANCH  12  13
ATOM     13  N   UNL     1      45.413   5.799  11.925  0.00  0.00    +0.000 N 
ATOM     14  N   UNL     1      46.458   5.468  12.721  0.00  0.00    +0.000 NA
ATOM     15  C   UNL     1      46.774   6.631  13.300  0.00  0.00    +0.000 A 
ATOM     16  C   UNL     1      46.008   7.711  12.808  0.00  0.00    +0.000 A 
ATOM     17  C   UNL     1      45.875   9.078  13.105  0.00  0.00    +0.000 A 
ATOM     18  C   UNL     1      45.020   9.858  12.318  0.00  0.00    +0.000 A 
ATOM     19  C   UNL     1      44.339   9.303  11.234  0.00  0.00    +0.000 A 
ATOM     20  C   UNL     1      44.425   7.937  10.951  0.00  0.00    +0.000 A 
ATOM     21  C   UNL     1      45.238   7.160  11.788  0.00  0.00    +0.000 A 
ENDBRANCH  12  13
ENDBRANCH   4  12
TORSDOF 5
ENDMDL
MODEL 4
REMARK VINA RESULT:    -6.611      2.092      6.208
REMARK INTER + INTRA:          -9.040
REMARK INTER:                  -8.656
REMARK INTRA:                  -0.384
REMARK UNBOUND:                -0.691
REMARK  Name = 
REMARK  5 active torsions:
REMARK  status: ('A' for Active; 'I' for Inactive)
REMARK    1  A    between atoms: N_1  and  C_2
REMARK    2  A    between atoms: C_2  and  C_3
REMARK    3  A    between atoms: C_3  and  C_4
REMARK    4  A    between atoms: C_7  and  C_8
REMARK    5  A    between atoms: C_8  and  N_9
REMARK                            x       y       z     vdW  Elec       q    Type
REMARK                         _______ _______ _______ _____ _____    ______ ____
ROOT
ATOM      1  C   UNL     1      47.042   5.375  13.539  0.00  0.00    +0.000 A 
ATOM      2  C   UNL     1      46.124   4.332  13.359  0.00  0.00    +0.000 A 
ATOM      3  C   UNL     1      45.355   4.255  12.193  0.00  0.00    +0.000 A 
ATOM      4  C   UNL     1      45.491   5.218  11.182  0.00  0.00    +0.000 A 
ATOM      5  C   UNL     1      46.422   6.249  11.363  0.00  0.00    +0.000 A 
ATOM      6  C   UNL     1      47.194   6.324  12.523  0.00  0.00    +0.000 A 
ENDROOT
BRANCH   1   7
ATOM      7  C   UNL     1      47.846   5.485  14.811  0.00  0.00    +0.000 C 
BRANCH   7   8
ATOM      8  C   UNL     1      47.371   4.504  15.886  0.00  0.00    +0.000 C 
BRANCH   8   9
ATOM      9  N   UNL     1      48.279   3.361  15.993  0.00  0.00    +0.000 NA
ATOM     10  H   UNL     1      49.114   3.643  16.505  0.00  0.00    +0.000 HD
ATOM     11  H   UNL     1      48.594   3.081  15.065  0.00  0.00    +0.000 HD
ENDBRANCH   8   9
ENDBRANCH   7   8
ENDBRANCH   1   7
BRANCH   4  12
ATOM     12  C   UNL     1      44.576   5.212   9.972  0.00  0.00    +0.000 C 
BRANCH  12  13
ATOM     13  N   UNL     1      44.582   3.893   9.352  0.00  0.00    +0.000 N 
ATOM     14  N   UNL     1      43.810   2.909   9.873  0.00  0.00    +0.000 NA
ATOM     15  C   UNL     1      44.431   1.796   9.471  0.00  0.00    +0.000 A 
ATOM     16  C   UNL     1      45.530   2.059   8.624  0.00  0.00    +0.000 A 
ATOM     17  C   UNL     1      46.536   1.301   8.004  0.00  0.00    +0.000 A 
ATOM     18  C   UNL     1      47.442   1.949   7.156  0.00  0.00    +0.000 A 
ATOM     19  C   UNL     1      47.329   3.315   6.896  0.00  0.00    +0.000 A 
ATOM     20  C   UNL     1      46.360   4.093   7.538  0.00  0.00    +0.000 A 
ATOM     21  C   UNL     1      45.502   3.438   8.431  0.00  0.00    +0.000 A 
ENDBRANCH  12  13
ENDBRANCH   4  12
TORSDOF 5
ENDMDL
MODEL 5
REMARK VINA RESULT:    -6.235      2.119      5.529
REMARK INTER + INTRA:          -8.566
REMARK INTER:                  -7.831
REMARK INTRA:                  -0.735
REMARK UNBOUND:                -0.691
REMARK  Name = 
REMARK  5 active torsions:
REMARK  status: ('A' for Active; 'I' for Inactive)
REMARK    1  A    between atoms: N_1  and  C_2
REMARK    2  A    between atoms: C_2  and  C_3
REMARK    3  A    between atoms: C_3  and  C_4
REMARK    4  A    between atoms: C_7  and  C_8
REMARK    5  A    between atoms: C_8  and  N_9
REMARK                            x       y       z     vdW  Elec       q    Type
REMARK                         _______ _______ _______ _____ _____    ______ ____
ROOT
ATOM      1  C   UNL     1      47.401   6.495  12.766  0.00  0.00    +0.000 A 
ATOM      2  C   UNL     1      46.838   7.283  11.755  0.00  0.00    +0.000 A 
ATOM      3  C   UNL     1      45.556   7.005  11.268  0.00  0.00    +0.000 A 
ATOM      4  C   UNL     1      44.811   5.935  11.785  0.00  0.00    +0.000 A 
ATOM      5  C   UNL     1      45.375   5.162  12.808  0.00  0.00    +0.000 A 
ATOM      6  C   UNL     1      46.652   5.441  13.299  0.00  0.00    +0.000 A 
ENDROOT
BRANCH   1   7
ATOM      7  C   UNL     1      48.799   6.765  13.268  0.00  0.00    +0.000 C 
BRANCH   7   8
ATOM      8  C   UNL     1      49.491   7.883  12.486  0.00  0.00    +0.000 C 
BRANCH   8   9
ATOM      9  N   UNL     1      50.766   7.427  11.929  0.00  0.00    +0.000 NA
ATOM     10  H   UNL     1      51.181   6.742  12.561  0.00  0.00    +0.000 HD
ATOM     11  H   UNL     1      51.422   8.206  11.883  0.00  0.00    +0.000 HD
ENDBRANCH   8   9
ENDBRANCH   7   8
ENDBRANCH   1   7
BRANCH   4  12
ATOM     12  C   UNL     1      43.474   5.552  11.181  0.00  0.00    +0.000 C 
BRANCH  12  13
ATOM     13  N   UNL     1      43.539   4.195  10.652  0.00  0.00    +0.000 N 
ATOM     14  N   UNL     1      43.049   3.169  11.389  0.00  0.00    +0.000 NA
ATOM     15  C   UNL     1      43.725   2.115  10.923  0.00  0.00    +0.000 A 
ATOM     16  C   UNL     1      44.565   2.442   9.836  0.00  0.00    +0.000 A 
ATOM     17  C   UNL     1      45.514   1.769   9.049  0.00  0.00    +0.000 A 
ATOM     18  C   UNL     1      46.112   2.451   7.983  0.00  0.00    +0.000 A 
ATOM     19  C   UNL     1      45.747   3.763   7.678  0.00  0.00    +0.000 A 
ATOM     20  C   UNL     1      44.836   4.463   8.475  0.00  0.00    +0.000 A 
ATOM     21  C   UNL     1      44.296   3.783   9.575  0.00  0.00    +0.000 A 
ENDBRANCH  12  13
ENDBRANCH   4  12
TORSDOF 5
ENDMDL
MODEL 6
REMARK VINA RESULT:    -5.899      1.212      1.532
REMARK INTER + INTRA:          -8.141
REMARK INTER:                  -7.778
REMARK INTRA:                  -0.363
REMARK UNBOUND:                -0.691
REMARK  Name = 
REMARK  5 active torsions:
REMARK  status: ('A' for Active; 'I' for Inactive)
REMARK    1  A    between atoms: N_1  and  C_2
REMARK    2  A    between atoms: C_2  and  C_3
REMARK    3  A    between atoms: C_3  and  C_4
REMARK    4  A    between atoms: C_7  and  C_8
REMARK    5  A    between atoms: C_8  and  N_9
REMARK                            x       y       z     vdW  Elec       q    Type
REMARK                         _______ _______ _______ _____ _____    ______ ____
ROOT
ATOM      1  C   UNL     1      45.768   3.575   8.245  0.00  0.00    +0.000 A 
ATOM      2  C   UNL     1      46.039   4.915   8.555  0.00  0.00    +0.000 A 
ATOM      3  C   UNL     1      45.594   5.470   9.759  0.00  0.00    +0.000 A 
ATOM      4  C   UNL     1      44.872   4.695  10.679  0.00  0.00    +0.000 A 
ATOM      5  C   UNL     1      44.619   3.353  10.370  0.00  0.00    +0.000 A 
ATOM      6  C   UNL     1      45.068   2.796   9.171  0.00  0.00    +0.000 A 
ENDROOT
BRANCH   1   7
ATOM      7  C   UNL     1      46.212   2.982   6.930  0.00  0.00    +0.000 C 
BRANCH   7   8
ATOM      8  C   UNL     1      47.554   2.256   7.043  0.00  0.00    +0.000 C 
BRANCH   8   9
ATOM      9  N   UNL     1      47.383   0.808   6.924  0.00  0.00    +0.000 NA
ATOM     10  H   UNL     1      47.588   0.371   7.823  0.00  0.00    +0.000 HD
ATOM     11  H   UNL     1      48.063   0.433   6.263  0.00  0.00    +0.000 HD
ENDBRANCH   8   9
ENDBRANCH   7   8
ENDBRANCH   1   7
BRANCH   4  12
ATOM     12  C   UNL     1      44.281   5.320  11.929  0.00  0.00    +0.000 C 
BRANCH  12  13
ATOM     13  N   UNL     1      44.986   6.556  12.247  0.00  0.00    +0.000 N 
ATOM     14  N   UNL     1      44.446   7.743  11.879  0.00  0.00    +0.000 NA
ATOM     15  C   UNL     1      45.510   8.547  11.807  0.00  0.00    +0.000 A 
ATOM     16  C   UNL     1      46.704   7.912  12.217  0.00  0.00    +0.000 A 
ATOM     17  C   UNL     1      48.066   8.248  12.266  0.00  0.00    +0.000 A 
ATOM     18  C   UNL     1      48.967   7.331  12.820  0.00  0.00    +0.000 A 
ATOM     19  C   UNL     1      48.521   6.120  13.350  0.00  0.00    +0.000 A 
ATOM     20  C   UNL     1      47.175   5.750  13.272  0.00  0.00    +0.000 A 
ATOM     21  C   UNL     1      46.298   6.655  12.657  0.00  0.00    +0.000 A 
ENDBRANCH  12  13
ENDBRANCH   4  12
TORSDOF 5
ENDMDL
MODEL 7
REMARK VINA RESULT:    -5.461      4.962      7.725
REMARK INTER + INTRA:          -7.589
REMARK INTER:                  -7.332
REMARK INTRA:                  -0.257
REMARK UNBOUND:                -0.691
REMARK  Name = 
REMARK  5 active torsions:
REMARK  status: ('A' for Active; 'I' for Inactive)
REMARK    1  A    between atoms: N_1  and  C_2
REMARK    2  A    between atoms: C_2  and  C_3
REMARK    3  A    between atoms: C_3  and  C_4
REMARK    4  A    between atoms: C_7  and  C_8
REMARK    5  A    between atoms: C_8  and  N_9
REMARK                            x       y       z     vdW  Elec       q    Type
REMARK                         _______ _______ _______ _____ _____    ______ ____
ROOT
ATOM      1  C   UNL     1      51.000   2.784  17.584  0.00  0.00    +0.000 A 
ATOM      2  C   UNL     1      50.647   4.123  17.801  0.00  0.00    +0.000 A 
ATOM      3  C   UNL     1      49.407   4.609  17.373  0.00  0.00    +0.000 A 
ATOM      4  C   UNL     1      48.494   3.765  16.723  0.00  0.00    +0.000 A 
ATOM      5  C   UNL     1      48.848   2.424  16.525  0.00  0.00    +0.000 A 
ATOM      6  C   UNL     1      50.083   1.936  16.956  0.00  0.00    +0.000 A 
ENDROOT
BRANCH   1   7
ATOM      7  C   UNL     1      52.352   2.264  18.007  0.00  0.00    +0.000 C 
BRANCH   7   8
ATOM      8  C   UNL     1      52.682   0.914  17.367  0.00  0.00    +0.000 C 
BRANCH   8   9
ATOM      9  N   UNL     1      52.670  -0.159  18.363  0.00  0.00    +0.000 NA
ATOM     10  H   UNL     1      53.624  -0.491  18.509  0.00  0.00    +0.000 HD
ATOM     11  H   UNL     1      52.143  -0.955  18.007  0.00  0.00    +0.000 HD
ENDBRANCH   8   9
ENDBRANCH   7   8
ENDBRANCH   1   7
BRANCH   4  12
ATOM     12  C   UNL     1      47.201   4.312  16.149  0.00  0.00    +0.000 C 
BRANCH  12  13
ATOM     13  N   UNL     1      47.452   4.913  14.844  0.00  0.00    +0.000 N 
ATOM     14  N   UNL     1      48.228   6.021  14.761  0.00  0.00    +0.000 NA
ATOM     15  C   UNL     1      47.815   6.590  13.624  0.00  0.00    +0.000 A 
ATOM     16  C   UNL     1      46.858   5.809  12.938  0.00  0.00    +0.000 A 
ATOM     17  C   UNL     1      46.068   5.955  11.786  0.00  0.00    +0.000 A 
ATOM     18  C   UNL     1      45.257   4.887  11.386  0.00  0.00    +0.000 A 
ATOM     19  C   UNL     1      45.259   3.683  12.091  0.00  0.00    +0.000 A 
ATOM     20  C   UNL     1      46.007   3.534  13.262  0.00  0.00    +0.000 A 
ATOM     21  C   UNL     1      46.764   4.636  13.682  0.00  0.00    +0.000 A 
ENDBRANCH  12  13
ENDBRANCH   4  12
TORSDOF 5
ENDMDL
MODEL 8
REMARK VINA RESULT:    -5.362      2.553      6.171
REMARK INTER + INTRA:          -7.464
REMARK INTER:                  -6.902
REMARK INTRA:                  -0.562
REMARK UNBOUND:                -0.691
REMARK  Name = 
REMARK  5 active torsions:
REMARK  status: ('A' for Active; 'I' for Inactive)
REMARK    1  A    between atoms: N_1  and  C_2
REMARK    2  A    between atoms: C_2  and  C_3
REMARK    3  A    between atoms: C_3  and  C_4
REMARK    4  A    between atoms: C_7  and  C_8
REMARK    5  A    between atoms: C_8  and  N_9
REMARK                            x       y       z     vdW  Elec       q    Type
REMARK                         _______ _______ _______ _____ _____    ______ ____
ROOT
ATOM      1  C   UNL     1      48.218   7.306  13.822  0.00  0.00    +0.000 A 
ATOM      2  C   UNL     1      47.300   8.364  13.846  0.00  0.00    +0.000 A 
ATOM      3  C   UNL     1      46.138   8.315  13.068  0.00  0.00    +0.000 A 
ATOM      4  C   UNL     1      45.869   7.204  12.254  0.00  0.00    +0.000 A 
ATOM      5  C   UNL     1      46.784   6.143  12.249  0.00  0.00    +0.000 A 
ATOM      6  C   UNL     1      47.941   6.188  13.029  0.00  0.00    +0.000 A 
ENDROOT
BRANCH   1   7
ATOM      7  C   UNL     1      49.492   7.371  14.628  0.00  0.00    +0.000 C 
BRANCH   7   8
ATOM      8  C   UNL     1      49.327   6.771  16.026  0.00  0.00    +0.000 C 
BRANCH   8   9
ATOM      9  N   UNL     1      50.471   5.927  16.376  0.00  0.00    +0.000 NA
ATOM     10  H   UNL     1      50.137   4.993  16.617  0.00  0.00    +0.000 HD
ATOM     11  H   UNL     1      50.926   6.291  17.213  0.00  0.00    +0.000 HD
ENDBRANCH   8   9
ENDBRANCH   7   8
ENDBRANCH   1   7
BRANCH   4  12
ATOM     12  C   UNL     1      44.677   7.195  11.318  0.00  0.00    +0.000 C 
BRANCH  12  13
ATOM     13  N   UNL     1      43.955   5.934  11.445  0.00  0.00    +0.000 N 
ATOM     14  N   UNL     1      43.323   5.644  12.607  0.00  0.00    +0.000 NA
ATOM     15  C   UNL     1      43.268   4.309  12.592  0.00  0.00    +0.000 A 
ATOM     16  C   UNL     1      43.768   3.755  11.393  0.00  0.00    +0.000 A 
ATOM     17  C   UNL     1      44.007   2.463  10.895  0.00  0.00    +0.000 A 
ATOM     18  C   UNL     1      44.470   2.323   9.581  0.00  0.00    +0.000 A 
ATOM     19  C   UNL     1      44.653   3.439   8.764  0.00  0.00    +0.000 A 
ATOM     20  C   UNL     1      44.460   4.733   9.255  0.00  0.00    +0.000 A 
ATOM     21  C   UNL     1      44.058   4.856  10.592  0.00  0.00    +0.000 A 
ENDBRANCH  12  13
ENDBRANCH   4  12
TORSDOF 5
ENDMDL
MODEL 9
REMARK VINA RESULT:    -5.343      2.709      4.008
REMARK INTER + INTRA:          -7.439
REMARK INTER:                  -6.874
REMARK INTRA:                  -0.565
REMARK UNBOUND:                -0.691
REMARK  Name = 
REMARK  5 active torsions:
REMARK  status: ('A' for Active; 'I' for Inactive)
REMARK    1  A    between atoms: N_1  and  C_2
REMARK    2  A    between atoms: C_2  and  C_3
REMARK    3  A    between atoms: C_3  and  C_4
REMARK    4  A    between atoms: C_7  and  C_8
REMARK    5  A    between atoms: C_8  and  N_9
REMARK                            x       y       z     vdW  Elec       q    Type
REMARK                         _______ _______ _______ _____ _____    ______ ____
ROOT
ATOM      1  C   UNL     1      44.974   3.593  10.474  0.00  0.00    +0.000 A 
ATOM      2  C   UNL     1      45.278   4.872   9.990  0.00  0.00    +0.000 A 
ATOM      3  C   UNL     1      45.717   5.875  10.861  0.00  0.00    +0.000 A 
ATOM      4  C   UNL     1      45.862   5.619  12.232  0.00  0.00    +0.000 A 
ATOM      5  C   UNL     1      45.571   4.333  12.705  0.00  0.00    +0.000 A 
ATOM      6  C   UNL     1      45.139   3.329  11.836  0.00  0.00    +0.000 A 
ENDROOT
BRANCH   1   7
ATOM      7  C   UNL     1      44.462   2.518   9.546  0.00  0.00    +0.000 C 
BRANCH   7   8
ATOM      8  C   UNL     1      45.365   2.327   8.325  0.00  0.00    +0.000 C 
BRANCH   8   9
ATOM      9  N   UNL     1      46.040   1.029   8.365  0.00  0.00    +0.000 NA
ATOM     10  H   UNL     1      46.856   1.057   7.754  0.00  0.00    +0.000 HD
ATOM     11  H   UNL     1      45.426   0.308   7.988  0.00  0.00    +0.000 HD
ENDBRANCH   8   9
ENDBRANCH   7   8
ENDBRANCH   1   7
BRANCH   4  12
ATOM     12  C   UNL     1      46.218   6.731  13.200  0.00  0.00    +0.000 C 
BRANCH  12  13
ATOM     13  N   UNL     1      47.627   6.639  13.565  0.00  0.00    +0.000 N 
ATOM     14  N   UNL     1      47.970   6.110  14.764  0.00  0.00    +0.000 NA
ATOM     15  C   UNL     1      49.166   6.657  15.001  0.00  0.00    +0.000 A 
ATOM     16  C   UNL     1      49.628   7.449  13.927  0.00  0.00    +0.000 A 
ATOM     17  C   UNL     1      50.733   8.280  13.681  0.00  0.00    +0.000 A 
ATOM     18  C   UNL     1      50.869   8.864  12.416  0.00  0.00    +0.000 A 
ATOM     19  C   UNL     1      49.949   8.598  11.402  0.00  0.00    +0.000 A 
ATOM     20  C   UNL     1      48.820   7.808  11.641  0.00  0.00    +0.000 A 
ATOM     21  C   UNL     1      48.668   7.284  12.931  0.00  0.00    +0.000 A 
ENDBRANCH  12  13
ENDBRANCH   4  12
TORSDOF 5
ENDMDL
