MODEL 1
REMARK VINA RESULT:    -9.223      0.000      0.000
REMARK INTER + INTRA:         -13.204
REMARK INTER:                 -11.918
REMARK INTRA:                  -1.286
REMARK UNBOUND:                -1.286
REMARK  Name = 
REMARK  5 active torsions:
REMARK  status: ('A' for Active; 'I' for Inactive)
REMARK    1  A    between atoms: C_2  and  C_4
REMARK    2  A    between atoms: N_8  and  C_9
REMARK    3  A    between atoms: C_9  and  C_10
REMARK    4  A    between atoms: C_14  and  C_15
REMARK    5  A    between atoms: C_19  and  C_20
REMARK                            x       y       z     vdW  Elec       q    Type
REMARK                         _______ _______ _______ _____ _____    ______ ____
ROOT
ATOM      1  C   UNL     1      43.810   4.962  11.355  0.00  0.00    +0.000 C 
ATOM      2  C   UNL     1      42.448   5.216  12.003  0.00  0.00    +0.000 C 
ATOM      3  C   UNL     1      42.975   6.182  11.000  0.00  0.00    +0.000 C 
ENDROOT
BRANCH   1   8
ATOM      4  C   UNL     1      46.577   2.745   7.530  0.00  0.00    +0.000 A 
ATOM      5  C   UNL     1      46.297   4.091   7.740  0.00  0.00    +0.000 A 
ATOM      6  C   UNL     1      45.419   4.457   8.761  0.00  0.00    +0.000 A 
ATOM      7  C   UNL     1      44.829   3.476   9.550  0.00  0.00    +0.000 A 
ATOM      8  N   UNL     1      43.876   3.747  10.532  0.00  0.00    +0.000 N 
ATOM      9  N   UNL     1      45.086   2.165   9.349  0.00  0.00    +0.000 NA
ATOM     10  C   UNL     1      45.942   1.823   8.349  0.00  0.00    +0.000 A 
ATOM     11  H   UNL     1      43.672   2.863  10.991  0.00  0.00    +0.000 HD
BRANCH   4  13
ATOM     12  N   UNL     1      47.450   2.959   5.279  0.00  0.00    +0.000 N 
ATOM     13  C   UNL     1      47.470   2.263   6.461  0.00  0.00    +0.000 C 
ATOM     14  O   UNL     1      48.221   1.311   6.619  0.00  0.00    +0.000 OA
ATOM     15  H   UNL     1      48.124   2.673   4.576  0.00  0.00    +0.000 HD
ATOM     16  H   UNL     1      47.043   3.878   5.186  0.00  0.00    +0.000 HD
ENDBRANCH   4  13
ENDBRANCH   1   8
BRANCH   1  17
ATOM     17  C   UNL     1      45.052   5.230  12.204  0.00  0.00    +0.000 A 
ATOM     18  C   UNL     1      45.475   4.320  13.184  0.00  0.00    +0.000 A 
ATOM     19  C   UNL     1      46.694   4.483  13.839  0.00  0.00    +0.000 A 
ATOM     20  C   UNL     1      47.519   5.564  13.523  0.00  0.00    +0.000 A 
ATOM     21  C   UNL     1      47.129   6.519  12.571  0.00  0.00    +0.000 A 
ATOM     22  C   UNL     1      45.875   6.348  11.959  0.00  0.00    +0.000 A 
BRANCH  21  23
ATOM     23  C   UNL     1      48.025   7.622  12.172  0.00  0.00    +0.000 A 
ATOM     24  C   UNL     1      47.605   8.954  12.194  0.00  0.00    +0.000 A 
ATOM     25  N   UNL     1      48.371  10.020  11.858  0.00  0.00    +0.000 NA
ATOM     26  C   UNL     1      49.641   9.762  11.484  0.00  0.00    +0.000 A 
ATOM     27  C   UNL     1      50.185   8.489  11.433  0.00  0.00    +0.000 A 
ATOM     28  C   UNL     1      49.357   7.411  11.785  0.00  0.00    +0.000 A 
BRANCH  27  29
ATOM     29  C   UNL     1      51.607   8.281  11.021  0.00  0.00    +0.000 C 
ATOM     30  F   UNL     1      52.468   8.154  12.068  0.00  0.00    +0.000 F 
ATOM     31  F   UNL     1      51.772   7.159  10.266  0.00  0.00    +0.000 F 
ATOM     32  F   UNL     1      52.087   9.309  10.269  0.00  0.00    +0.000 F 
ENDBRANCH  27  29
ENDBRANCH  21  23
ENDBRANCH   1  17
TORSDOF 5
ENDMDL
MODEL 2
REMARK VINA RESULT:    -9.115      3.538      4.572
REMARK INTER + INTRA:         -13.066
REMARK INTER:                 -12.475
REMARK INTRA:                  -0.590
REMARK UNBOUND:                -1.286
REMARK  Name = 
REMARK  5 active torsions:
REMARK  status: ('A' for Active; 'I' for Inactive)
REMARK    1  A    between atoms: C_2  and  C_4
REMARK    2  A    between atoms: N_8  and  C_9
REMARK    3  A    between atoms: C_9  and  C_10
REMARK    4  A    between atoms: C_14  and  C_15
REMARK    5  A    between atoms: C_19  and  C_20
REMARK                            x       y       z     vdW  Elec       q    Type
REMARK                         _______ _______ _______ _____ _____    ______ ____
ROOT
ATOM      1  C   UNL     1      43.942   4.848  11.520  0.00  0.00    +0.000 C 
ATOM      2  C   UNL     1      42.890   4.813  12.630  0.00  0.00    +0.000 C 
ATOM      3  C   UNL     1      42.729   5.765  11.496  0.00  0.00    +0.000 C 
ENDROOT
BRANCH   1   8
ATOM      4  C   UNL     1      46.462   2.755   7.461  0.00  0.00    +0.000 A 
ATOM      5  C   UNL     1      46.057   4.072   7.655  0.00  0.00    +0.000 A 
ATOM      6  C   UNL     1      45.273   4.391   8.765  0.00  0.00    +0.000 A 
ATOM      7  C   UNL     1      44.899   3.392   9.657  0.00  0.00    +0.000 A 
ATOM      8  N   UNL     1      44.046   3.608  10.741  0.00  0.00    +0.000 N 
ATOM      9  N   UNL     1      45.277   2.109   9.473  0.00  0.00    +0.000 NA
ATOM     10  C   UNL     1      46.040   1.812   8.388  0.00  0.00    +0.000 A 
ATOM     11  H   UNL     1      44.001   2.731  11.253  0.00  0.00    +0.000 HD
BRANCH   4  13
ATOM     12  N   UNL     1      47.149   3.058   5.157  0.00  0.00    +0.000 N 
ATOM     13  C   UNL     1      47.268   2.320   6.307  0.00  0.00    +0.000 C 
ATOM     14  O   UNL     1      48.034   1.368   6.369  0.00  0.00    +0.000 OA
ATOM     15  H   UNL     1      47.766   2.803   4.393  0.00  0.00    +0.000 HD
ATOM     16  H   UNL     1      46.731   3.976   5.131  0.00  0.00    +0.000 HD
ENDBRANCH   4  13
ENDBRANCH   1   8
BRANCH   1  17
ATOM     17  C   UNL     1      45.277   5.520  11.839  0.00  0.00    +0.000 A 
ATOM     18  C   UNL     1      45.774   6.565  11.046  0.00  0.00    +0.000 A 
ATOM     19  C   UNL     1      46.903   7.285  11.432  0.00  0.00    +0.000 A 
ATOM     20  C   UNL     1      47.558   6.974  12.624  0.00  0.00    +0.000 A 
ATOM     21  C   UNL     1      47.119   5.918  13.439  0.00  0.00    +0.000 A 
ATOM     22  C   UNL     1      46.003   5.185  13.000  0.00  0.00    +0.000 A 
BRANCH  21  23
ATOM     23  C   UNL     1      47.755   5.629  14.739  0.00  0.00    +0.000 A 
ATOM     24  C   UNL     1      48.544   6.576  15.396  0.00  0.00    +0.000 A 
ATOM     25  N   UNL     1      49.147   6.392  16.596  0.00  0.00    +0.000 NA
ATOM     26  C   UNL     1      48.953   5.200  17.198  0.00  0.00    +0.000 A 
ATOM     27  C   UNL     1      48.182   4.183  16.658  0.00  0.00    +0.000 A 
ATOM     28  C   UNL     1      47.579   4.412  15.412  0.00  0.00    +0.000 A 
BRANCH  27  29
ATOM     29  C   UNL     1      48.002   2.891  17.390  0.00  0.00    +0.000 C 
ATOM     30  F   UNL     1      46.700   2.520  17.535  0.00  0.00    +0.000 F 
ATOM     31  F   UNL     1      48.618   1.848  16.765  0.00  0.00    +0.000 F 
ATOM     32  F   UNL     1      48.521   2.928  18.648  0.00  0.00    +0.000 F 
ENDBRANCH  27  29
ENDBRANCH  21  23
ENDBRANCH   1  17
TORSDOF 5
ENDMDL
MODEL 3
REMARK VINA RESULT:    -8.704      3.155      4.447
REMARK INTER + INTRA:         -12.534
REMARK INTER:                 -11.602
REMARK INTRA:                  -0.931
REMARK UNBOUND:                -1.286
REMARK  Name = 
REMARK  5 active torsions:
REMARK  status: ('A' for Active; 'I' for Inactive)
REMARK    1  A    between atoms: C_2  and  C_4
REMARK    2  A    between atoms: N_8  and  C_9
REMARK    3  A    between atoms: C_9  and  C_10
REMARK    4  A    between atoms: C_14  and  C_15
REMARK    5  A    between atoms: C_19  and  C_20
REMARK                            x       y       z     vdW  Elec       q    Type
REMARK                         _______ _______ _______ _____ _____    ______ ____
ROOT
ATOM      1  C   UNL     1      44.027   5.002  11.440  0.00  0.00    +0.000 C 
ATOM      2  C   UNL     1      42.814   5.172  12.357  0.00  0.00    +0.000 C 
ATOM      3  C   UNL     1      43.006   6.105  11.214  0.00  0.00    +0.000 C 
ENDROOT
BRANCH   1   8
ATOM      4  C   UNL     1      46.465   2.631   7.486  0.00  0.00    +0.000 A 
ATOM      5  C   UNL     1      46.161   3.979   7.644  0.00  0.00    +0.000 A 
ATOM      6  C   UNL     1      45.379   4.383   8.728  0.00  0.00    +0.000 A 
ATOM      7  C   UNL     1      44.908   3.436   9.630  0.00  0.00    +0.000 A 
ATOM      8  N   UNL     1      44.050   3.741  10.689  0.00  0.00    +0.000 N 
ATOM      9  N   UNL     1      45.188   2.123   9.481  0.00  0.00    +0.000 NA
ATOM     10  C   UNL     1      45.949   1.744   8.420  0.00  0.00    +0.000 A 
ATOM     11  H   UNL     1      43.925   2.882  11.217  0.00  0.00    +0.000 HD
BRANCH   4  13
ATOM     12  N   UNL     1      47.821   3.036   5.518  0.00  0.00    +0.000 N 
ATOM     13  C   UNL     1      47.260   2.109   6.360  0.00  0.00    +0.000 C 
ATOM     14  O   UNL     1      47.446   0.912   6.194  0.00  0.00    +0.000 OA
ATOM     15  H   UNL     1      48.433   2.674   4.794  0.00  0.00    +0.000 HD
ATOM     16  H   UNL     1      47.902   4.014   5.750  0.00  0.00    +0.000 HD
ENDBRANCH   4  13
ENDBRANCH   1   8
BRANCH   1  17
ATOM     17  C   UNL     1      45.383   5.452  11.981  0.00  0.00    +0.000 A 
ATOM     18  C   UNL     1      46.096   6.500  11.380  0.00  0.00    +0.000 A 
ATOM     19  C   UNL     1      47.247   7.019  11.970  0.00  0.00    +0.000 A 
ATOM     20  C   UNL     1      47.708   6.498  13.180  0.00  0.00    +0.000 A 
ATOM     21  C   UNL     1      47.050   5.429  13.808  0.00  0.00    +0.000 A 
ATOM     22  C   UNL     1      45.916   4.902  13.165  0.00  0.00    +0.000 A 
BRANCH  21  23
ATOM     23  C   UNL     1      47.481   4.922  15.125  0.00  0.00    +0.000 A 
ATOM     24  C   UNL     1      47.141   3.641  15.565  0.00  0.00    +0.000 A 
ATOM     25  N   UNL     1      47.510   3.099  16.751  0.00  0.00    +0.000 NA
ATOM     26  C   UNL     1      48.277   3.864  17.556  0.00  0.00    +0.000 A 
ATOM     27  C   UNL     1      48.694   5.144  17.232  0.00  0.00    +0.000 A 
ATOM     28  C   UNL     1      48.286   5.670  15.996  0.00  0.00    +0.000 A 
BRANCH  27  29
ATOM     29  C   UNL     1      49.555   5.928  18.171  0.00  0.00    +0.000 C 
ATOM     30  F   UNL     1      50.787   5.385  18.368  0.00  0.00    +0.000 F 
ATOM     31  F   UNL     1      49.775   7.201  17.736  0.00  0.00    +0.000 F 
ATOM     32  F   UNL     1      49.000   6.049  19.408  0.00  0.00    +0.000 F 
ENDBRANCH  27  29
ENDBRANCH  21  23
ENDBRANCH   1  17
TORSDOF 5
ENDMDL
MODEL 4
REMARK VINA RESULT:    -7.592      4.767      8.365
REMARK INTER + INTRA:         -11.097
REMARK INTER:                  -9.924
REMARK INTRA:                  -1.173
REMARK UNBOUND:                -1.286
REMARK  Name = 
REMARK  5 active torsions:
REMARK  status: ('A' for Active; 'I' for Inactive)
REMARK    1  A    between atoms: C_2  and  C_4
REMARK    2  A    between atoms: N_8  and  C_9
REMARK    3  A    between atoms: C_9  and  C_10
REMARK    4  A    between atoms: C_14  and  C_15
REMARK    5  A    between atoms: C_19  and  C_20
REMARK                            x       y       z     vdW  Elec       q    Type
REMARK                         _______ _______ _______ _____ _____    ______ ____
ROOT
ATOM      1  C   UNL     1      49.056   8.087  12.946  0.00  0.00    +0.000 C 
ATOM      2  C   UNL     1      50.020   8.293  11.776  0.00  0.00    +0.000 C 
ATOM      3  C   UNL     1      49.714   9.433  12.684  0.00  0.00    +0.000 C 
ENDROOT
BRANCH   1   8
ATOM      4  C   UNL     1      48.422   6.787  17.957  0.00  0.00    +0.000 A 
ATOM      5  C   UNL     1      48.368   8.045  17.366  0.00  0.00    +0.000 A 
ATOM      6  C   UNL     1      48.701   8.183  16.018  0.00  0.00    +0.000 A 
ATOM      7  C   UNL     1      49.090   7.069  15.284  0.00  0.00    +0.000 A 
ATOM      8  N   UNL     1      49.522   7.131  13.958  0.00  0.00    +0.000 N 
ATOM      9  N   UNL     1      49.156   5.843  15.849  0.00  0.00    +0.000 NA
ATOM     10  C   UNL     1      48.830   5.723  17.164  0.00  0.00    +0.000 A 
ATOM     11  H   UNL     1      49.675   6.173  13.657  0.00  0.00    +0.000 HD
BRANCH   4  13
ATOM     12  N   UNL     1      47.123   5.639  19.651  0.00  0.00    +0.000 N 
ATOM     13  C   UNL     1      48.114   6.548  19.378  0.00  0.00    +0.000 C 
ATOM     14  O   UNL     1      48.728   7.101  20.280  0.00  0.00    +0.000 OA
ATOM     15  H   UNL     1      46.971   5.419  20.630  0.00  0.00    +0.000 HD
ATOM     16  H   UNL     1      46.768   4.988  18.967  0.00  0.00    +0.000 HD
ENDBRANCH   4  13
ENDBRANCH   1   8
BRANCH   1  17
ATOM     17  C   UNL     1      47.566   8.002  12.621  0.00  0.00    +0.000 A 
ATOM     18  C   UNL     1      46.726   9.118  12.753  0.00  0.00    +0.000 A 
ATOM     19  C   UNL     1      45.409   9.084  12.299  0.00  0.00    +0.000 A 
ATOM     20  C   UNL     1      44.905   7.930  11.699  0.00  0.00    +0.000 A 
ATOM     21  C   UNL     1      45.694   6.776  11.569  0.00  0.00    +0.000 A 
ATOM     22  C   UNL     1      47.005   6.829  12.074  0.00  0.00    +0.000 A 
BRANCH  21  23
ATOM     23  C   UNL     1      45.199   5.576  10.866  0.00  0.00    +0.000 A 
ATOM     24  C   UNL     1      44.086   4.866  11.322  0.00  0.00    +0.000 A 
ATOM     25  N   UNL     1      43.564   3.767  10.726  0.00  0.00    +0.000 NA
ATOM     26  C   UNL     1      44.168   3.342   9.596  0.00  0.00    +0.000 A 
ATOM     27  C   UNL     1      45.270   3.965   9.033  0.00  0.00    +0.000 A 
ATOM     28  C   UNL     1      45.783   5.098   9.684  0.00  0.00    +0.000 A 
BRANCH  27  29
ATOM     29  C   UNL     1      45.880   3.444   7.771  0.00  0.00    +0.000 C 
ATOM     30  F   UNL     1      46.874   4.233   7.276  0.00  0.00    +0.000 F 
ATOM     31  F   UNL     1      46.430   2.208   7.930  0.00  0.00    +0.000 F 
ATOM     32  F   UNL     1      44.970   3.319   6.766  0.00  0.00    +0.000 F 
ENDBRANCH  27  29
ENDBRANCH  21  23
ENDBRANCH   1  17
TORSDOF 5
ENDMDL
MODEL 5
REMARK VINA RESULT:    -7.534      4.174      7.681
REMARK INTER + INTRA:         -11.022
REMARK INTER:                 -10.752
REMARK INTRA:                  -0.270
REMARK UNBOUND:                -1.286
REMARK  Name = 
REMARK  5 active torsions:
REMARK  status: ('A' for Active; 'I' for Inactive)
REMARK    1  A    between atoms: C_2  and  C_4
REMARK    2  A    between atoms: N_8  and  C_9
REMARK    3  A    between atoms: C_9  and  C_10
REMARK    4  A    between atoms: C_14  and  C_15
REMARK    5  A    between atoms: C_19  and  C_20
REMARK                            x       y       z     vdW  Elec       q    Type
REMARK                         _______ _______ _______ _____ _____    ______ ____
ROOT
ATOM      1  C   UNL     1      48.348   7.879  12.882  0.00  0.00    +0.000 C 
ATOM      2  C   UNL     1      49.521   7.328  12.069  0.00  0.00    +0.000 C 
ATOM      3  C   UNL     1      49.236   8.789  12.049  0.00  0.00    +0.000 C 
ENDROOT
BRANCH   1   8
ATOM      4  C   UNL     1      47.962   4.289  16.645  0.00  0.00    +0.000 A 
ATOM      5  C   UNL     1      47.229   4.405  15.468  0.00  0.00    +0.000 A 
ATOM      6  C   UNL     1      47.408   5.528  14.659  0.00  0.00    +0.000 A 
ATOM      7  C   UNL     1      48.306   6.518  15.038  0.00  0.00    +0.000 A 
ATOM      8  N   UNL     1      48.481   7.711  14.334  0.00  0.00    +0.000 N 
ATOM      9  N   UNL     1      49.016   6.421  16.184  0.00  0.00    +0.000 NA
ATOM     10  C   UNL     1      48.831   5.323  16.964  0.00  0.00    +0.000 A 
ATOM     11  H   UNL     1      49.237   8.210  14.793  0.00  0.00    +0.000 HD
BRANCH   4  13
ATOM     12  N   UNL     1      48.927   2.825  18.318  0.00  0.00    +0.000 N 
ATOM     13  C   UNL     1      47.822   3.154  17.575  0.00  0.00    +0.000 C 
ATOM     14  O   UNL     1      46.768   2.549  17.711  0.00  0.00    +0.000 OA
ATOM     15  H   UNL     1      48.802   2.097  19.013  0.00  0.00    +0.000 HD
ATOM     16  H   UNL     1      49.725   3.435  18.421  0.00  0.00    +0.000 HD
ENDBRANCH   4  13
ENDBRANCH   1   8
BRANCH   1  17
ATOM     17  C   UNL     1      46.941   7.640  12.334  0.00  0.00    +0.000 A 
ATOM     18  C   UNL     1      45.987   8.668  12.304  0.00  0.00    +0.000 A 
ATOM     19  C   UNL     1      44.765   8.497  11.654  0.00  0.00    +0.000 A 
ATOM     20  C   UNL     1      44.476   7.289  11.017  0.00  0.00    +0.000 A 
ATOM     21  C   UNL     1      45.383   6.219  11.043  0.00  0.00    +0.000 A 
ATOM     22  C   UNL     1      46.588   6.410  11.743  0.00  0.00    +0.000 A 
BRANCH  21  23
ATOM     23  C   UNL     1      45.122   4.966  10.309  0.00  0.00    +0.000 A 
ATOM     24  C   UNL     1      44.084   4.105  10.671  0.00  0.00    +0.000 A 
ATOM     25  N   UNL     1      43.772   2.948  10.039  0.00  0.00    +0.000 NA
ATOM     26  C   UNL     1      44.525   2.618   8.969  0.00  0.00    +0.000 A 
ATOM     27  C   UNL     1      45.574   3.391   8.499  0.00  0.00    +0.000 A 
ATOM     28  C   UNL     1      45.867   4.580   9.185  0.00  0.00    +0.000 A 
BRANCH  27  29
ATOM     29  C   UNL     1      46.357   2.967   7.297  0.00  0.00    +0.000 C 
ATOM     30  F   UNL     1      45.657   3.043   6.132  0.00  0.00    +0.000 F 
ATOM     31  F   UNL     1      47.474   3.724   7.110  0.00  0.00    +0.000 F 
ATOM     32  F   UNL     1      46.791   1.680   7.387  0.00  0.00    +0.000 F 
ENDBRANCH  27  29
ENDBRANCH  21  23
ENDBRANCH   1  17
TORSDOF 5
ENDMDL
MODEL 6
REMARK VINA RESULT:    -7.014      6.255      8.698
REMARK INTER + INTRA:         -10.350
REMARK INTER:                  -9.388
REMARK INTRA:                  -0.962
REMARK UNBOUND:                -1.286
REMARK  Name = 
REMARK  5 active torsions:
REMARK  status: ('A' for Active; 'I' for Inactive)
REMARK    1  A    between atoms: C_2  and  C_4
REMARK    2  A    between atoms: N_8  and  C_9
REMARK    3  A    between atoms: C_9  and  C_10
REMARK    4  A    between atoms: C_14  and  C_15
REMARK    5  A    between atoms: C_19  and  C_20
REMARK                            x       y       z     vdW  Elec       q    Type
REMARK                         _______ _______ _______ _____ _____    ______ ____
ROOT
ATOM      1  C   UNL     1      48.564   5.089  17.591  0.00  0.00    +0.000 C 
ATOM      2  C   UNL     1      47.453   5.466  18.573  0.00  0.00    +0.000 C 
ATOM      3  C   UNL     1      47.333   4.216  17.774  0.00  0.00    +0.000 C 
ENDROOT
BRANCH   1   8
ATOM      4  C   UNL     1      52.450   1.611  17.613  0.00  0.00    +0.000 A 
ATOM      5  C   UNL     1      51.088   1.399  17.430  0.00  0.00    +0.000 A 
ATOM      6  C   UNL     1      50.201   2.464  17.596  0.00  0.00    +0.000 A 
ATOM      7  C   UNL     1      50.685   3.719  17.947  0.00  0.00    +0.000 A 
ATOM      8  N   UNL     1      49.863   4.814  18.217  0.00  0.00    +0.000 N 
ATOM      9  N   UNL     1      52.005   3.934  18.137  0.00  0.00    +0.000 NA
ATOM     10  C   UNL     1      52.858   2.888  17.974  0.00  0.00    +0.000 A 
ATOM     11  H   UNL     1      50.479   5.606  18.379  0.00  0.00    +0.000 HD
BRANCH   4  13
ATOM     12  N   UNL     1      53.313  -0.544  18.310  0.00  0.00    +0.000 N 
ATOM     13  C   UNL     1      53.458   0.543  17.486  0.00  0.00    +0.000 C 
ATOM     14  O   UNL     1      54.364   0.596  16.666  0.00  0.00    +0.000 OA
ATOM     15  H   UNL     1      53.962  -1.310  18.162  0.00  0.00    +0.000 HD
ATOM     16  H   UNL     1      52.463  -0.744  18.816  0.00  0.00    +0.000 HD
ENDBRANCH   4  13
ENDBRANCH   1   8
BRANCH   1  17
ATOM     17  C   UNL     1      48.636   5.871  16.280  0.00  0.00    +0.000 A 
ATOM     18  C   UNL     1      49.741   6.680  15.973  0.00  0.00    +0.000 A 
ATOM     19  C   UNL     1      49.882   7.257  14.713  0.00  0.00    +0.000 A 
ATOM     20  C   UNL     1      48.918   7.032  13.729  0.00  0.00    +0.000 A 
ATOM     21  C   UNL     1      47.779   6.255  13.992  0.00  0.00    +0.000 A 
ATOM     22  C   UNL     1      47.646   5.722  15.287  0.00  0.00    +0.000 A 
BRANCH  21  23
ATOM     23  C   UNL     1      46.794   5.946  12.939  0.00  0.00    +0.000 A 
ATOM     24  C   UNL     1      46.930   6.438  11.639  0.00  0.00    +0.000 A 
ATOM     25  N   UNL     1      46.078   6.187  10.615  0.00  0.00    +0.000 NA
ATOM     26  C   UNL     1      45.024   5.388  10.883  0.00  0.00    +0.000 A 
ATOM     27  C   UNL     1      44.782   4.825  12.126  0.00  0.00    +0.000 A 
ATOM     28  C   UNL     1      45.686   5.114  13.160  0.00  0.00    +0.000 A 
BRANCH  27  29
ATOM     29  C   UNL     1      43.598   3.938  12.346  0.00  0.00    +0.000 C 
ATOM     30  F   UNL     1      42.870   4.260  13.450  0.00  0.00    +0.000 F 
ATOM     31  F   UNL     1      42.724   3.968  11.301  0.00  0.00    +0.000 F 
ATOM     32  F   UNL     1      43.949   2.632  12.500  0.00  0.00    +0.000 F 
ENDBRANCH  27  29
ENDBRANCH  21  23
ENDBRANCH   1  17
TORSDOF 5
ENDMDL
MODEL 7
REMARK VINA RESULT:    -6.849      4.033      5.405
REMARK INTER + INTRA:         -10.136
REMARK INTER:                  -8.922
REMARK INTRA:                  -1.214
REMARK UNBOUND:                -1.286
REMARK  Name = 
REMARK  5 active torsions:
REMARK  status: ('A' for Active; 'I' for Inactive)
REMARK    1  A    between atoms: C_2  and  C_4
REMARK    2  A    between atoms: N_8  and  C_9
REMARK    3  A    between atoms: C_9  and  C_10
REMARK    4  A    between atoms: C_14  and  C_15
REMARK    5  A    between atoms: C_19  and  C_20
REMARK                            x       y       z     vdW  Elec       q    Type
REMARK                         _______ _______ _______ _____ _____    ______ ____
ROOT
ATOM      1  C   UNL     1      45.551   8.086  12.120  0.00  0.00    +0.000 C 
ATOM      2  C   UNL     1      44.921   9.346  12.718  0.00  0.00    +0.000 C 
ATOM      3  C   UNL     1      45.417   9.369  11.314  0.00  0.00    +0.000 C 
ENDROOT
BRANCH   1   8
ATOM      4  C   UNL     1      45.032   3.476   9.737  0.00  0.00    +0.000 A 
ATOM      5  C   UNL     1      45.638   4.638   9.271  0.00  0.00    +0.000 A 
ATOM      6  C   UNL     1      45.547   5.809  10.027  0.00  0.00    +0.000 A 
ATOM      7  C   UNL     1      44.849   5.803  11.229  0.00  0.00    +0.000 A 
ATOM      8  N   UNL     1      44.635   6.946  12.001  0.00  0.00    +0.000 N 
ATOM      9  N   UNL     1      44.247   4.683  11.686  0.00  0.00    +0.000 NA
ATOM     10  C   UNL     1      44.342   3.551  10.939  0.00  0.00    +0.000 A 
ATOM     11  H   UNL     1      44.160   6.640  12.846  0.00  0.00    +0.000 HD
BRANCH   4  13
ATOM     12  N   UNL     1      46.128   1.983   8.174  0.00  0.00    +0.000 N 
ATOM     13  C   UNL     1      45.052   2.202   8.997  0.00  0.00    +0.000 C 
ATOM     14  O   UNL     1      44.176   1.359   9.127  0.00  0.00    +0.000 OA
ATOM     15  H   UNL     1      46.177   1.072   7.730  0.00  0.00    +0.000 HD
ATOM     16  H   UNL     1      46.978   2.524   8.221  0.00  0.00    +0.000 HD
ENDBRANCH   4  13
ENDBRANCH   1   8
BRANCH   1  17
ATOM     17  C   UNL     1      46.967   7.729  12.570  0.00  0.00    +0.000 A 
ATOM     18  C   UNL     1      48.090   8.140  11.837  0.00  0.00    +0.000 A 
ATOM     19  C   UNL     1      49.379   7.958  12.333  0.00  0.00    +0.000 A 
ATOM     20  C   UNL     1      49.571   7.362  13.581  0.00  0.00    +0.000 A 
ATOM     21  C   UNL     1      48.483   6.906  14.341  0.00  0.00    +0.000 A 
ATOM     22  C   UNL     1      47.198   7.066  13.793  0.00  0.00    +0.000 A 
BRANCH  21  23
ATOM     23  C   UNL     1      48.667   6.345  15.694  0.00  0.00    +0.000 A 
ATOM     24  C   UNL     1      49.199   7.106  16.738  0.00  0.00    +0.000 A 
ATOM     25  N   UNL     1      49.384   6.669  18.007  0.00  0.00    +0.000 NA
ATOM     26  C   UNL     1      49.010   5.400  18.274  0.00  0.00    +0.000 A 
ATOM     27  C   UNL     1      48.457   4.547  17.332  0.00  0.00    +0.000 A 
ATOM     28  C   UNL     1      48.287   5.037  16.028  0.00  0.00    +0.000 A 
BRANCH  27  29
ATOM     29  C   UNL     1      48.055   3.156  17.705  0.00  0.00    +0.000 C 
ATOM     30  F   UNL     1      48.322   2.837  19.001  0.00  0.00    +0.000 F 
ATOM     31  F   UNL     1      46.721   2.936  17.535  0.00  0.00    +0.000 F 
ATOM     32  F   UNL     1      48.686   2.212  16.953  0.00  0.00    +0.000 F 
ENDBRANCH  27  29
ENDBRANCH  21  23
ENDBRANCH   1  17
TORSDOF 5
ENDMDL
MODEL 8
REMARK VINA RESULT:    -6.670      5.641      8.659
REMARK INTER + INTRA:          -9.905
REMARK INTER:                  -8.731
REMARK INTRA:                  -1.175
REMARK UNBOUND:                -1.286
REMARK  Name = 
REMARK  5 active torsions:
REMARK  status: ('A' for Active; 'I' for Inactive)
REMARK    1  A    between atoms: C_2  and  C_4
REMARK    2  A    between atoms: N_8  and  C_9
REMARK    3  A    between atoms: C_9  and  C_10
REMARK    4  A    between atoms: C_14  and  C_15
REMARK    5  A    between atoms: C_19  and  C_20
REMARK                            x       y       z     vdW  Elec       q    Type
REMARK                         _______ _______ _______ _____ _____    ______ ____
ROOT
ATOM      1  C   UNL     1      49.270   8.085  16.875  0.00  0.00    +0.000 C 
ATOM      2  C   UNL     1      49.084   9.536  17.324  0.00  0.00    +0.000 C 
ATOM      3  C   UNL     1      48.026   8.533  17.625  0.00  0.00    +0.000 C 
ENDROOT
BRANCH   1   8
ATOM      4  C   UNL     1      51.273   3.325  17.602  0.00  0.00    +0.000 A 
ATOM      5  C   UNL     1      49.939   3.710  17.522  0.00  0.00    +0.000 A 
ATOM      6  C   UNL     1      49.620   5.067  17.456  0.00  0.00    +0.000 A 
ATOM      7  C   UNL     1      50.635   6.017  17.479  0.00  0.00    +0.000 A 
ATOM      8  N   UNL     1      50.401   7.393  17.506  0.00  0.00    +0.000 N 
ATOM      9  N   UNL     1      51.934   5.656  17.567  0.00  0.00    +0.000 NA
ATOM     10  C   UNL     1      52.230   4.331  17.632  0.00  0.00    +0.000 A 
ATOM     11  H   UNL     1      51.311   7.843  17.451  0.00  0.00    +0.000 HD
BRANCH   4  13
ATOM     12  N   UNL     1      52.808   1.665  18.476  0.00  0.00    +0.000 N 
ATOM     13  C   UNL     1      51.704   1.920  17.701  0.00  0.00    +0.000 C 
ATOM     14  O   UNL     1      51.096   1.011  17.153  0.00  0.00    +0.000 OA
ATOM     15  H   UNL     1      53.051   0.688  18.606  0.00  0.00    +0.000 HD
ATOM     16  H   UNL     1      53.186   2.330  19.133  0.00  0.00    +0.000 HD
ENDBRANCH   4  13
ENDBRANCH   1   8
BRANCH   1  17
ATOM     17  C   UNL     1      49.078   7.781  15.390  0.00  0.00    +0.000 A 
ATOM     18  C   UNL     1      50.029   8.173  14.437  0.00  0.00    +0.000 A 
ATOM     19  C   UNL     1      49.936   7.751  13.112  0.00  0.00    +0.000 A 
ATOM     20  C   UNL     1      48.886   6.922  12.714  0.00  0.00    +0.000 A 
ATOM     21  C   UNL     1      47.891   6.525  13.621  0.00  0.00    +0.000 A 
ATOM     22  C   UNL     1      47.992   7.002  14.940  0.00  0.00    +0.000 A 
BRANCH  21  23
ATOM     23  C   UNL     1      46.820   5.587  13.233  0.00  0.00    +0.000 A 
ATOM     24  C   UNL     1      46.919   4.217  13.482  0.00  0.00    +0.000 A 
ATOM     25  N   UNL     1      45.974   3.296  13.170  0.00  0.00    +0.000 NA
ATOM     26  C   UNL     1      44.849   3.754  12.582  0.00  0.00    +0.000 A 
ATOM     27  C   UNL     1      44.622   5.090  12.293  0.00  0.00    +0.000 A 
ATOM     28  C   UNL     1      45.627   6.011  12.628  0.00  0.00    +0.000 A 
BRANCH  27  29
ATOM     29  C   UNL     1      43.344   5.526  11.650  0.00  0.00    +0.000 C 
ATOM     30  F   UNL     1      42.264   5.456  12.476  0.00  0.00    +0.000 F 
ATOM     31  F   UNL     1      43.395   6.815  11.212  0.00  0.00    +0.000 F 
ATOM     32  F   UNL     1      43.027   4.775  10.559  0.00  0.00    +0.000 F 
ENDBRANCH  27  29
ENDBRANCH  21  23
ENDBRANCH   1  17
TORSDOF 5
ENDMDL
MODEL 9
REMARK VINA RESULT:    -6.524      4.940      8.258
REMARK INTER + INTRA:          -9.717
REMARK INTER:                  -8.584
REMARK INTRA:                  -1.133
REMARK UNBOUND:                -1.286
REMARK  Name = 
REMARK  5 active torsions:
REMARK  status: ('A' for Active; 'I' for Inactive)
REMARK    1  A    between atoms: C_2  and  C_4
REMARK    2  A    between atoms: N_8  and  C_9
REMARK    3  A    between atoms: C_9  and  C_10
REMARK    4  A    between atoms: C_14  and  C_15
REMARK    5  A    between atoms: C_19  and  C_20
REMARK                            x       y       z     vdW  Elec       q    Type
REMARK                         _______ _______ _______ _____ _____    ______ ____
ROOT
ATOM      1  C   UNL     1      50.163   8.816  15.447  0.00  0.00    +0.000 C 
ATOM      2  C   UNL     1      50.958  10.096  15.716  0.00  0.00    +0.000 C 
ATOM      3  C   UNL     1      49.524  10.026  16.111  0.00  0.00    +0.000 C 
ENDROOT
BRANCH   1   8
ATOM      4  C   UNL     1      48.474   4.424  17.695  0.00  0.00    +0.000 A 
ATOM      5  C   UNL     1      47.841   5.659  17.603  0.00  0.00    +0.000 A 
ATOM      6  C   UNL     1      48.535   6.746  17.069  0.00  0.00    +0.000 A 
ATOM      7  C   UNL     1      49.849   6.586  16.643  0.00  0.00    +0.000 A 
ATOM      8  N   UNL     1      50.641   7.638  16.180  0.00  0.00    +0.000 N 
ATOM      9  N   UNL     1      50.477   5.394  16.737  0.00  0.00    +0.000 NA
ATOM     10  C   UNL     1      49.790   4.344  17.260  0.00  0.00    +0.000 A 
ATOM     11  H   UNL     1      51.520   7.227  15.878  0.00  0.00    +0.000 HD
BRANCH   4  13
ATOM     12  N   UNL     1      48.297   2.799  19.485  0.00  0.00    +0.000 N 
ATOM     13  C   UNL     1      47.832   3.227  18.267  0.00  0.00    +0.000 C 
ATOM     14  O   UNL     1      46.906   2.655  17.709  0.00  0.00    +0.000 OA
ATOM     15  H   UNL     1      47.798   2.025  19.911  0.00  0.00    +0.000 HD
ATOM     16  H   UNL     1      48.874   3.368  20.086  0.00  0.00    +0.000 HD
ENDBRANCH   4  13
ENDBRANCH   1   8
BRANCH   1  17
ATOM     17  C   UNL     1      49.736   8.546  14.005  0.00  0.00    +0.000 A 
ATOM     18  C   UNL     1      50.644   8.662  12.942  0.00  0.00    +0.000 A 
ATOM     19  C   UNL     1      50.300   8.256  11.654  0.00  0.00    +0.000 A 
ATOM     20  C   UNL     1      49.035   7.721  11.405  0.00  0.00    +0.000 A 
ATOM     21  C   UNL     1      48.079   7.610  12.426  0.00  0.00    +0.000 A 
ATOM     22  C   UNL     1      48.444   8.067  13.705  0.00  0.00    +0.000 A 
BRANCH  21  23
ATOM     23  C   UNL     1      46.768   6.974  12.193  0.00  0.00    +0.000 A 
ATOM     24  C   UNL     1      45.648   7.719  11.817  0.00  0.00    +0.000 A 
ATOM     25  N   UNL     1      44.418   7.208  11.570  0.00  0.00    +0.000 NA
ATOM     26  C   UNL     1      44.279   5.871  11.690  0.00  0.00    +0.000 A 
ATOM     27  C   UNL     1      45.314   5.019  12.042  0.00  0.00    +0.000 A 
ATOM     28  C   UNL     1      46.571   5.589  12.294  0.00  0.00    +0.000 A 
BRANCH  27  29
ATOM     29  C   UNL     1      45.088   3.544  12.143  0.00  0.00    +0.000 C 
ATOM     30  F   UNL     1      43.891   3.210  12.699  0.00  0.00    +0.000 F 
ATOM     31  F   UNL     1      45.120   2.928  10.929  0.00  0.00    +0.000 F 
ATOM     32  F   UNL     1      46.035   2.924  12.900  0.00  0.00    +0.000 F 
ENDBRANCH  27  29
ENDBRANCH  21  23
ENDBRANCH   1  17
TORSDOF 5
ENDMDL
