MODEL 1
REMARK VINA RESULT:    -7.345      0.000      0.000
REMARK INTER + INTRA:         -12.301
REMARK INTER:                 -10.780
REMARK INTRA:                  -1.520
REMARK UNBOUND:                -1.520
REMARK  Name = 
REMARK  9 active torsions:
REMARK  status: ('A' for Active; 'I' for Inactive)
REMARK    1  A    between atoms: C_1  and  C_2
REMARK    2  A    between atoms: C_2  and  O_3
REMARK    3  A    between atoms: O_3  and  C_4
REMARK    4  A    between atoms: C_4  and  N_5
REMARK    5  A    between atoms: C_4  and  C_18
REMARK    6  A    between atoms: C_6  and  C_8
REMARK    7  A    between atoms: C_21  and  C_22
REMARK    8  A    between atoms: C_22  and  N_23
REMARK    9  A    between atoms: C_24  and  C_26
REMARK                            x       y       z     vdW  Elec       q    Type
REMARK                         _______ _______ _______ _____ _____    ______ ____
ROOT
ATOM      1  C   UNL     1      47.550   4.541  15.491  0.00  0.00    +0.000 C 
ENDROOT
BRANCH   1   2
ATOM      2  C   UNL     1      46.834   4.516  14.149  0.00  0.00    +0.000 A 
ATOM      3  C   UNL     1      46.410   3.305  13.584  0.00  0.00    +0.000 A 
ATOM      4  C   UNL     1      45.679   3.296  12.389  0.00  0.00    +0.000 A 
ATOM      5  C   UNL     1      45.361   4.496  11.736  0.00  0.00    +0.000 A 
ATOM      6  C   UNL     1      45.801   5.703  12.288  0.00  0.00    +0.000 A 
ATOM      7  C   UNL     1      46.561   5.711  13.456  0.00  0.00    +0.000 A 
BRANCH   5   8
ATOM      8  C   UNL     1      44.586   4.504  10.447  0.00  0.00    +0.000 C 
BRANCH   8   9
ATOM      9  N   UNL     1      45.383   4.172   9.298  0.00  0.00    +0.000 N 
ATOM     10  C   UNL     1      45.377   2.887   8.801  0.00  0.00    +0.000 C 
ATOM     11  O   UNL     1      44.711   1.980   9.287  0.00  0.00    +0.000 OA
ATOM     12  H   UNL     1      45.981   4.851   8.841  0.00  0.00    +0.000 HD
BRANCH  10  13
ATOM     13  C   UNL     1      46.242   2.696   7.637  0.00  0.00    +0.000 A 
ATOM     14  C   UNL     1      46.470   3.616   6.631  0.00  0.00    +0.000 A 
ATOM     15  N   UNL     1      47.347   3.016   5.772  0.00  0.00    +0.000 N 
ATOM     16  C   UNL     1      47.618   1.771   6.266  0.00  0.00    +0.000 A 
ATOM     17  N   UNL     1      46.970   1.541   7.387  0.00  0.00    +0.000 NA
ATOM     18  H   UNL     1      47.729   3.416   4.929  0.00  0.00    +0.000 HD
ENDBRANCH  10  13
ENDBRANCH   8   9
ENDBRANCH   5   8
ENDBRANCH   1   2
BRANCH   1  19
ATOM     19  N   UNL     1      47.721   5.906  15.906  0.00  0.00    +0.000 N 
ATOM     20  C   UNL     1      48.934   6.440  16.239  0.00  0.00    +0.000 C 
ATOM     21  O   UNL     1      49.984   5.810  16.138  0.00  0.00    +0.000 OA
ATOM     22  H   UNL     1      46.873   6.359  16.221  0.00  0.00    +0.000 HD
BRANCH  20  23
ATOM     23  C   UNL     1      48.931   7.857  16.639  0.00  0.00    +0.000 A 
ATOM     24  C   UNL     1      49.584   8.797  15.850  0.00  0.00    +0.000 A 
ATOM     25  S   UNL     1      49.432  10.397  16.421  0.00  0.00    +0.000 S 
ATOM     26  C   UNL     1      48.538   9.888  17.775  0.00  0.00    +0.000 A 
ATOM     27  N   UNL     1      48.110  10.783  18.707  0.00  0.00    +0.000 NA
ATOM     28  C   UNL     1      47.483  10.255  19.705  0.00  0.00    +0.000 A 
ATOM     29  N   UNL     1      47.235   8.915  19.848  0.00  0.00    +0.000 N 
ATOM     30  C   UNL     1      47.592   7.982  18.902  0.00  0.00    +0.000 A 
ATOM     31  O   UNL     1      47.266   6.805  19.014  0.00  0.00    +0.000 OA
ATOM     32  C   UNL     1      48.336   8.520  17.776  0.00  0.00    +0.000 A 
ATOM     33  H   UNL     1      46.721   8.566  20.643  0.00  0.00    +0.000 HD
ENDBRANCH  20  23
ENDBRANCH   1  19
BRANCH   1  34
ATOM     34  O   UNL     1      46.772   3.912  16.511  0.00  0.00    +0.000 OA
BRANCH  34  36
ATOM     35  C   UNL     1      48.679   2.493  16.709  0.00  0.00    +0.000 C 
ATOM     36  C   UNL     1      47.559   3.186  17.459  0.00  0.00    +0.000 C 
ENDBRANCH  34  36
ENDBRANCH   1  34
TORSDOF 8
ENDMDL
MODEL 2
REMARK VINA RESULT:    -7.277      2.595      4.060
REMARK INTER + INTRA:         -12.201
REMARK INTER:                 -10.892
REMARK INTRA:                  -1.309
REMARK UNBOUND:                -1.520
REMARK  Name = 
REMARK  9 active torsions:
REMARK  status: ('A' for Active; 'I' for Inactive)
REMARK    1  A    between atoms: C_1  and  C_2
REMARK    2  A    between atoms: C_2  and  O_3
REMARK    3  A    between atoms: O_3  and  C_4
REMARK    4  A    between atoms: C_4  and  N_5
REMARK    5  A    between atoms: C_4  and  C_18
REMARK    6  A    between atoms: C_6  and  C_8
REMARK    7  A    between atoms: C_21  and  C_22
REMARK    8  A    between atoms: C_22  and  N_23
REMARK    9  A    between atoms: C_24  and  C_26
REMARK                            x       y       z     vdW  Elec       q    Type
REMARK                         _______ _______ _______ _____ _____    ______ ____
ROOT
ATOM      1  C   UNL     1      47.131   7.855  13.603  0.00  0.00    +0.000 C 
ENDROOT
BRANCH   1   2
ATOM      2  C   UNL     1      46.218   6.906  12.842  0.00  0.00    +0.000 A 
ATOM      3  C   UNL     1      45.219   7.399  11.990  0.00  0.00    +0.000 A 
ATOM      4  C   UNL     1      44.437   6.521  11.230  0.00  0.00    +0.000 A 
ATOM      5  C   UNL     1      44.635   5.135  11.309  0.00  0.00    +0.000 A 
ATOM      6  C   UNL     1      45.617   4.641  12.175  0.00  0.00    +0.000 A 
ATOM      7  C   UNL     1      46.370   5.512  12.959  0.00  0.00    +0.000 A 
BRANCH   5   8
ATOM      8  C   UNL     1      43.797   4.177  10.508  0.00  0.00    +0.000 C 
BRANCH   8   9
ATOM      9  N   UNL     1      44.574   3.212   9.777  0.00  0.00    +0.000 N 
ATOM     10  C   UNL     1      45.316   3.607   8.686  0.00  0.00    +0.000 C 
ATOM     11  O   UNL     1      45.363   4.764   8.287  0.00  0.00    +0.000 OA
ATOM     12  H   UNL     1      44.582   2.228  10.022  0.00  0.00    +0.000 HD
BRANCH  10  13
ATOM     13  C   UNL     1      46.046   2.517   8.038  0.00  0.00    +0.000 A 
ATOM     14  C   UNL     1      46.912   2.639   6.967  0.00  0.00    +0.000 A 
ATOM     15  N   UNL     1      47.366   1.376   6.712  0.00  0.00    +0.000 N 
ATOM     16  C   UNL     1      46.772   0.538   7.612  0.00  0.00    +0.000 A 
ATOM     17  N   UNL     1      45.970   1.187   8.426  0.00  0.00    +0.000 NA
ATOM     18  H   UNL     1      48.022   1.109   5.994  0.00  0.00    +0.000 HD
ENDBRANCH  10  13
ENDBRANCH   8   9
ENDBRANCH   5   8
ENDBRANCH   1   2
BRANCH   1  19
ATOM     19  N   UNL     1      48.063   7.087  14.381  0.00  0.00    +0.000 N 
ATOM     20  C   UNL     1      48.643   7.552  15.527  0.00  0.00    +0.000 C 
ATOM     21  O   UNL     1      48.355   8.640  16.020  0.00  0.00    +0.000 OA
ATOM     22  H   UNL     1      48.487   6.314  13.884  0.00  0.00    +0.000 HD
BRANCH  20  23
ATOM     23  C   UNL     1      49.574   6.632  16.202  0.00  0.00    +0.000 A 
ATOM     24  C   UNL     1      50.883   7.031  16.443  0.00  0.00    +0.000 A 
ATOM     25  S   UNL     1      51.809   5.874  17.288  0.00  0.00    +0.000 S 
ATOM     26  C   UNL     1      50.512   4.773  17.313  0.00  0.00    +0.000 A 
ATOM     27  N   UNL     1      50.652   3.543  17.877  0.00  0.00    +0.000 NA
ATOM     28  C   UNL     1      49.604   2.793  17.785  0.00  0.00    +0.000 A 
ATOM     29  N   UNL     1      48.427   3.168  17.192  0.00  0.00    +0.000 N 
ATOM     30  C   UNL     1      48.220   4.422  16.666  0.00  0.00    +0.000 A 
ATOM     31  O   UNL     1      47.123   4.757  16.233  0.00  0.00    +0.000 OA
ATOM     32  C   UNL     1      49.382   5.293  16.708  0.00  0.00    +0.000 A 
ATOM     33  H   UNL     1      47.636   2.542  17.170  0.00  0.00    +0.000 HD
ENDBRANCH  20  23
ENDBRANCH   1  19
BRANCH   1  34
ATOM     34  O   UNL     1      47.918   8.650  12.713  0.00  0.00    +0.000 OA
BRANCH  34  36
ATOM     35  C   UNL     1      50.113   8.583  11.782  0.00  0.00    +0.000 C 
ATOM     36  C   UNL     1      48.775   7.877  11.870  0.00  0.00    +0.000 C 
ENDBRANCH  34  36
ENDBRANCH   1  34
TORSDOF 8
ENDMDL
MODEL 3
REMARK VINA RESULT:    -7.128      1.469      2.178
REMARK INTER + INTRA:         -11.982
REMARK INTER:                 -10.474
REMARK INTRA:                  -1.508
REMARK UNBOUND:                -1.520
REMARK  Name = 
REMARK  9 active torsions:
REMARK  status: ('A' for Active; 'I' for Inactive)
REMARK    1  A    between atoms: C_1  and  C_2
REMARK    2  A    between atoms: C_2  and  O_3
REMARK    3  A    between atoms: O_3  and  C_4
REMARK    4  A    between atoms: C_4  and  N_5
REMARK    5  A    between atoms: C_4  and  C_18
REMARK    6  A    between atoms: C_6  and  C_8
REMARK    7  A    between atoms: C_21  and  C_22
REMARK    8  A    between atoms: C_22  and  N_23
REMARK    9  A    between atoms: C_24  and  C_26
REMARK                            x       y       z     vdW  Elec       q    Type
REMARK                         _______ _______ _______ _____ _____    ______ ____
ROOT
ATOM      1  C   UNL     1      47.532   4.531  15.382  0.00  0.00    +0.000 C 
ENDROOT
BRANCH   1   2
ATOM      2  C   UNL     1      46.829   4.505  14.033  0.00  0.00    +0.000 A 
ATOM      3  C   UNL     1      46.329   3.306  13.506  0.00  0.00    +0.000 A 
ATOM      4  C   UNL     1      45.610   3.303  12.304  0.00  0.00    +0.000 A 
ATOM      5  C   UNL     1      45.382   4.497  11.604  0.00  0.00    +0.000 A 
ATOM      6  C   UNL     1      45.898   5.691  12.118  0.00  0.00    +0.000 A 
ATOM      7  C   UNL     1      46.644   5.690  13.294  0.00  0.00    +0.000 A 
BRANCH   5   8
ATOM      8  C   UNL     1      44.621   4.511  10.307  0.00  0.00    +0.000 C 
BRANCH   8   9
ATOM      9  N   UNL     1      45.434   4.193   9.164  0.00  0.00    +0.000 N 
ATOM     10  C   UNL     1      45.427   2.917   8.646  0.00  0.00    +0.000 C 
ATOM     11  O   UNL     1      44.749   2.006   9.107  0.00  0.00    +0.000 OA
ATOM     12  H   UNL     1      46.042   4.877   8.727  0.00  0.00    +0.000 HD
BRANCH  10  13
ATOM     13  C   UNL     1      46.309   2.740   7.492  0.00  0.00    +0.000 A 
ATOM     14  C   UNL     1      46.365   3.555   6.376  0.00  0.00    +0.000 A 
ATOM     15  N   UNL     1      47.332   3.018   5.574  0.00  0.00    +0.000 N 
ATOM     16  C   UNL     1      47.823   1.912   6.208  0.00  0.00    +0.000 A 
ATOM     17  N   UNL     1      47.231   1.711   7.365  0.00  0.00    +0.000 NA
ATOM     18  H   UNL     1      47.634   3.372   4.679  0.00  0.00    +0.000 HD
ENDBRANCH  10  13
ENDBRANCH   8   9
ENDBRANCH   5   8
ENDBRANCH   1   2
BRANCH   1  19
ATOM     19  N   UNL     1      47.756   5.896  15.768  0.00  0.00    +0.000 N 
ATOM     20  C   UNL     1      48.945   6.347  16.266  0.00  0.00    +0.000 C 
ATOM     21  O   UNL     1      49.940   5.631  16.352  0.00  0.00    +0.000 OA
ATOM     22  H   UNL     1      46.911   6.430  15.931  0.00  0.00    +0.000 HD
BRANCH  20  23
ATOM     23  C   UNL     1      49.004   7.778  16.609  0.00  0.00    +0.000 A 
ATOM     24  C   UNL     1      49.080   8.163  17.942  0.00  0.00    +0.000 A 
ATOM     25  S   UNL     1      49.204   9.849  18.163  0.00  0.00    +0.000 S 
ATOM     26  C   UNL     1      49.103  10.132  16.489  0.00  0.00    +0.000 A 
ATOM     27  N   UNL     1      49.120  11.399  15.993  0.00  0.00    +0.000 NA
ATOM     28  C   UNL     1      48.990  11.470  14.710  0.00  0.00    +0.000 A 
ATOM     29  N   UNL     1      48.855  10.389  13.879  0.00  0.00    +0.000 N 
ATOM     30  C   UNL     1      48.896   9.090  14.329  0.00  0.00    +0.000 A 
ATOM     31  O   UNL     1      48.874   8.144  13.548  0.00  0.00    +0.000 OA
ATOM     32  C   UNL     1      49.002   8.954  15.772  0.00  0.00    +0.000 A 
ATOM     33  H   UNL     1      48.778  10.510  12.880  0.00  0.00    +0.000 HD
ENDBRANCH  20  23
ENDBRANCH   1  19
BRANCH   1  34
ATOM     34  O   UNL     1      46.718   3.957  16.407  0.00  0.00    +0.000 OA
BRANCH  34  36
ATOM     35  C   UNL     1      48.537   2.423  16.572  0.00  0.00    +0.000 C 
ATOM     36  C   UNL     1      47.455   3.159  17.336  0.00  0.00    +0.000 C 
ENDBRANCH  34  36
ENDBRANCH   1  34
TORSDOF 8
ENDMDL
MODEL 4
REMARK VINA RESULT:    -7.065      2.271      3.523
REMARK INTER + INTRA:         -11.890
REMARK INTER:                 -10.488
REMARK INTRA:                  -1.402
REMARK UNBOUND:                -1.520
REMARK  Name = 
REMARK  9 active torsions:
REMARK  status: ('A' for Active; 'I' for Inactive)
REMARK    1  A    between atoms: C_1  and  C_2
REMARK    2  A    between atoms: C_2  and  O_3
REMARK    3  A    between atoms: O_3  and  C_4
REMARK    4  A    between atoms: C_4  and  N_5
REMARK    5  A    between atoms: C_4  and  C_18
REMARK    6  A    between atoms: C_6  and  C_8
REMARK    7  A    between atoms: C_21  and  C_22
REMARK    8  A    between atoms: C_22  and  N_23
REMARK    9  A    between atoms: C_24  and  C_26
REMARK                            x       y       z     vdW  Elec       q    Type
REMARK                         _______ _______ _______ _____ _____    ______ ____
ROOT
ATOM      1  C   UNL     1      48.380   7.417  14.011  0.00  0.00    +0.000 C 
ENDROOT
BRANCH   1   2
ATOM      2  C   UNL     1      47.450   6.515  13.213  0.00  0.00    +0.000 A 
ATOM      3  C   UNL     1      47.000   5.298  13.744  0.00  0.00    +0.000 A 
ATOM      4  C   UNL     1      46.079   4.513  13.038  0.00  0.00    +0.000 A 
ATOM      5  C   UNL     1      45.594   4.928  11.790  0.00  0.00    +0.000 A 
ATOM      6  C   UNL     1      46.058   6.132  11.250  0.00  0.00    +0.000 A 
ATOM      7  C   UNL     1      47.002   6.895  11.933  0.00  0.00    +0.000 A 
BRANCH   5   8
ATOM      8  C   UNL     1      44.612   4.093  11.014  0.00  0.00    +0.000 C 
BRANCH   8   9
ATOM      9  N   UNL     1      45.239   3.136  10.142  0.00  0.00    +0.000 N 
ATOM     10  C   UNL     1      45.445   3.443   8.816  0.00  0.00    +0.000 C 
ATOM     11  O   UNL     1      45.123   4.514   8.314  0.00  0.00    +0.000 OA
ATOM     12  H   UNL     1      45.522   2.217  10.463  0.00  0.00    +0.000 HD
BRANCH  10  13
ATOM     13  C   UNL     1      46.083   2.372   8.050  0.00  0.00    +0.000 A 
ATOM     14  C   UNL     1      46.818   2.526   6.889  0.00  0.00    +0.000 A 
ATOM     15  N   UNL     1      47.227   1.270   6.540  0.00  0.00    +0.000 N 
ATOM     16  C   UNL     1      46.735   0.404   7.475  0.00  0.00    +0.000 A 
ATOM     17  N   UNL     1      46.040   1.030   8.400  0.00  0.00    +0.000 NA
ATOM     18  H   UNL     1      47.791   1.023   5.741  0.00  0.00    +0.000 HD
ENDBRANCH  10  13
ENDBRANCH   8   9
ENDBRANCH   5   8
ENDBRANCH   1   2
BRANCH   1  19
ATOM     19  N   UNL     1      48.226   7.129  15.410  0.00  0.00    +0.000 N 
ATOM     20  C   UNL     1      48.640   7.976  16.398  0.00  0.00    +0.000 C 
ATOM     21  O   UNL     1      49.112   9.087  16.163  0.00  0.00    +0.000 OA
ATOM     22  H   UNL     1      48.070   6.152  15.623  0.00  0.00    +0.000 HD
BRANCH  20  23
ATOM     23  C   UNL     1      48.402   7.527  17.780  0.00  0.00    +0.000 A 
ATOM     24  C   UNL     1      47.876   8.415  18.711  0.00  0.00    +0.000 A 
ATOM     25  S   UNL     1      47.605   7.719  20.245  0.00  0.00    +0.000 S 
ATOM     26  C   UNL     1      48.235   6.223  19.739  0.00  0.00    +0.000 A 
ATOM     27  N   UNL     1      48.320   5.173  20.601  0.00  0.00    +0.000 NA
ATOM     28  C   UNL     1      48.860   4.113  20.098  0.00  0.00    +0.000 A 
ATOM     29  N   UNL     1      49.311   4.005  18.809  0.00  0.00    +0.000 N 
ATOM     30  C   UNL     1      49.188   5.017  17.885  0.00  0.00    +0.000 A 
ATOM     31  O   UNL     1      49.510   4.852  16.714  0.00  0.00    +0.000 OA
ATOM     32  C   UNL     1      48.622   6.247  18.411  0.00  0.00    +0.000 A 
ATOM     33  H   UNL     1      49.706   3.140  18.469  0.00  0.00    +0.000 HD
ENDBRANCH  20  23
ENDBRANCH   1  19
BRANCH   1  34
ATOM     34  O   UNL     1      49.751   7.159  13.702  0.00  0.00    +0.000 OA
BRANCH  34  36
ATOM     35  C   UNL     1      50.510   7.825  11.541  0.00  0.00    +0.000 C 
ATOM     36  C   UNL     1      50.385   8.228  12.996  0.00  0.00    +0.000 C 
ENDBRANCH  34  36
ENDBRANCH   1  34
TORSDOF 8
ENDMDL
MODEL 5
REMARK VINA RESULT:    -6.485      2.334      4.025
REMARK INTER + INTRA:         -11.038
REMARK INTER:                  -9.774
REMARK INTRA:                  -1.264
REMARK UNBOUND:                -1.520
REMARK  Name = 
REMARK  9 active torsions:
REMARK  status: ('A' for Active; 'I' for Inactive)
REMARK    1  A    between atoms: C_1  and  C_2
REMARK    2  A    between atoms: C_2  and  O_3
REMARK    3  A    between atoms: O_3  and  C_4
REMARK    4  A    between atoms: C_4  and  N_5
REMARK    5  A    between atoms: C_4  and  C_18
REMARK    6  A    between atoms: C_6  and  C_8
REMARK    7  A    between atoms: C_21  and  C_22
REMARK    8  A    between atoms: C_22  and  N_23
REMARK    9  A    between atoms: C_24  and  C_26
REMARK                            x       y       z     vdW  Elec       q    Type
REMARK                         _______ _______ _______ _____ _____    ______ ____
ROOT
ATOM      1  C   UNL     1      47.858   8.913  14.102  0.00  0.00    +0.000 C 
ENDROOT
BRANCH   1   2
ATOM      2  C   UNL     1      46.987   8.078  13.175  0.00  0.00    +0.000 A 
ATOM      3  C   UNL     1      47.358   6.772  12.824  0.00  0.00    +0.000 A 
ATOM      4  C   UNL     1      46.511   5.980  12.039  0.00  0.00    +0.000 A 
ATOM      5  C   UNL     1      45.280   6.479  11.587  0.00  0.00    +0.000 A 
ATOM      6  C   UNL     1      44.919   7.789  11.920  0.00  0.00    +0.000 A 
ATOM      7  C   UNL     1      45.777   8.590  12.669  0.00  0.00    +0.000 A 
BRANCH   5   8
ATOM      8  C   UNL     1      44.363   5.646  10.734  0.00  0.00    +0.000 C 
BRANCH   8   9
ATOM      9  N   UNL     1      45.030   5.011   9.630  0.00  0.00    +0.000 N 
ATOM     10  C   UNL     1      44.950   3.645   9.469  0.00  0.00    +0.000 C 
ATOM     11  O   UNL     1      44.326   2.912  10.228  0.00  0.00    +0.000 OA
ATOM     12  H   UNL     1      45.586   5.532   8.962  0.00  0.00    +0.000 HD
BRANCH  10  13
ATOM     13  C   UNL     1      45.685   3.139   8.309  0.00  0.00    +0.000 A 
ATOM     14  C   UNL     1      46.174   1.856   8.149  0.00  0.00    +0.000 A 
ATOM     15  N   UNL     1      46.770   1.837   6.920  0.00  0.00    +0.000 N 
ATOM     16  C   UNL     1      46.634   3.084   6.380  0.00  0.00    +0.000 A 
ATOM     17  N   UNL     1      45.988   3.896   7.186  0.00  0.00    +0.000 NA
ATOM     18  H   UNL     1      47.224   1.048   6.487  0.00  0.00    +0.000 HD
ENDBRANCH  10  13
ENDBRANCH   8   9
ENDBRANCH   5   8
ENDBRANCH   1   2
BRANCH   1  19
ATOM     19  N   UNL     1      47.917   8.278  15.388  0.00  0.00    +0.000 N 
ATOM     20  C   UNL     1      48.328   8.920  16.522  0.00  0.00    +0.000 C 
ATOM     21  O   UNL     1      48.610  10.117  16.539  0.00  0.00    +0.000 OA
ATOM     22  H   UNL     1      47.925   7.266  15.358  0.00  0.00    +0.000 HD
BRANCH  20  23
ATOM     23  C   UNL     1      48.327   8.121  17.758  0.00  0.00    +0.000 A 
ATOM     24  C   UNL     1      47.882   8.691  18.946  0.00  0.00    +0.000 A 
ATOM     25  S   UNL     1      47.886   7.613  20.267  0.00  0.00    +0.000 S 
ATOM     26  C   UNL     1      48.537   6.362  19.317  0.00  0.00    +0.000 A 
ATOM     27  N   UNL     1      48.818   5.146  19.860  0.00  0.00    +0.000 NA
ATOM     28  C   UNL     1      49.351   4.305  19.036  0.00  0.00    +0.000 A 
ATOM     29  N   UNL     1      49.615   4.567  17.717  0.00  0.00    +0.000 N 
ATOM     30  C   UNL     1      49.289   5.758  17.111  0.00  0.00    +0.000 A 
ATOM     31  O   UNL     1      49.447   5.922  15.906  0.00  0.00    +0.000 OA
ATOM     32  C   UNL     1      48.723   6.754  18.004  0.00  0.00    +0.000 A 
ATOM     33  H   UNL     1      50.014   3.859  17.119  0.00  0.00    +0.000 HD
ENDBRANCH  20  23
ENDBRANCH   1  19
BRANCH   1  34
ATOM     34  O   UNL     1      49.205   8.983  13.631  0.00  0.00    +0.000 OA
BRANCH  34  36
ATOM     35  C   UNL     1      50.228  11.135  13.538  0.00  0.00    +0.000 C 
ATOM     36  C   UNL     1      49.447  10.093  12.764  0.00  0.00    +0.000 C 
ENDBRANCH  34  36
ENDBRANCH   1  34
TORSDOF 8
ENDMDL
MODEL 6
REMARK VINA RESULT:    -6.483      4.142      8.716
REMARK INTER + INTRA:         -11.035
REMARK INTER:                  -9.466
REMARK INTRA:                  -1.570
REMARK UNBOUND:                -1.520
REMARK  Name = 
REMARK  9 active torsions:
REMARK  status: ('A' for Active; 'I' for Inactive)
REMARK    1  A    between atoms: C_1  and  C_2
REMARK    2  A    between atoms: C_2  and  O_3
REMARK    3  A    between atoms: O_3  and  C_4
REMARK    4  A    between atoms: C_4  and  N_5
REMARK    5  A    between atoms: C_4  and  C_18
REMARK    6  A    between atoms: C_6  and  C_8
REMARK    7  A    between atoms: C_21  and  C_22
REMARK    8  A    between atoms: C_22  and  N_23
REMARK    9  A    between atoms: C_24  and  C_26
REMARK                            x       y       z     vdW  Elec       q    Type
REMARK                         _______ _______ _______ _____ _____    ______ ____
ROOT
ATOM      1  C   UNL     1      48.282   7.235  14.419  0.00  0.00    +0.000 C 
ENDROOT
BRANCH   1   2
ATOM      2  C   UNL     1      48.692   6.284  15.534  0.00  0.00    +0.000 A 
ATOM      3  C   UNL     1      47.897   5.176  15.861  0.00  0.00    +0.000 A 
ATOM      4  C   UNL     1      48.321   4.259  16.831  0.00  0.00    +0.000 A 
ATOM      5  C   UNL     1      49.544   4.434  17.495  0.00  0.00    +0.000 A 
ATOM      6  C   UNL     1      50.328   5.550  17.184  0.00  0.00    +0.000 A 
ATOM      7  C   UNL     1      49.890   6.482  16.246  0.00  0.00    +0.000 A 
BRANCH   5   8
ATOM      8  C   UNL     1      50.009   3.465  18.546  0.00  0.00    +0.000 C 
BRANCH   8   9
ATOM      9  N   UNL     1      51.377   3.054  18.379  0.00  0.00    +0.000 N 
ATOM     10  C   UNL     1      51.675   1.937  17.631  0.00  0.00    +0.000 C 
ATOM     11  O   UNL     1      50.824   1.250  17.077  0.00  0.00    +0.000 OA
ATOM     12  H   UNL     1      52.147   3.548  18.815  0.00  0.00    +0.000 HD
BRANCH  10  13
ATOM     13  C   UNL     1      53.105   1.635  17.556  0.00  0.00    +0.000 A 
ATOM     14  C   UNL     1      54.138   2.546  17.678  0.00  0.00    +0.000 A 
ATOM     15  N   UNL     1      55.289   1.820  17.557  0.00  0.00    +0.000 N 
ATOM     16  C   UNL     1      54.932   0.516  17.365  0.00  0.00    +0.000 A 
ATOM     17  N   UNL     1      53.626   0.365  17.357  0.00  0.00    +0.000 NA
ATOM     18  H   UNL     1      56.231   2.177  17.605  0.00  0.00    +0.000 HD
ENDBRANCH  10  13
ENDBRANCH   8   9
ENDBRANCH   5   8
ENDBRANCH   1   2
BRANCH   1  19
ATOM     19  N   UNL     1      47.054   6.773  13.836  0.00  0.00    +0.000 N 
ATOM     20  C   UNL     1      46.831   6.740  12.488  0.00  0.00    +0.000 C 
ATOM     21  O   UNL     1      47.697   7.036  11.667  0.00  0.00    +0.000 OA
ATOM     22  H   UNL     1      46.267   6.755  14.472  0.00  0.00    +0.000 HD
BRANCH  20  23
ATOM     23  C   UNL     1      45.517   6.234  12.060  0.00  0.00    +0.000 A 
ATOM     24  C   UNL     1      44.580   7.114  11.530  0.00  0.00    +0.000 A 
ATOM     25  S   UNL     1      43.136   6.358  11.027  0.00  0.00    +0.000 S 
ATOM     26  C   UNL     1      43.685   4.836  11.551  0.00  0.00    +0.000 A 
ATOM     27  N   UNL     1      42.898   3.732  11.435  0.00  0.00    +0.000 NA
ATOM     28  C   UNL     1      43.421   2.652  11.915  0.00  0.00    +0.000 A 
ATOM     29  N   UNL     1      44.663   2.576  12.488  0.00  0.00    +0.000 N 
ATOM     30  C   UNL     1      45.518   3.651  12.568  0.00  0.00    +0.000 A 
ATOM     31  O   UNL     1      46.660   3.525  12.995  0.00  0.00    +0.000 OA
ATOM     32  C   UNL     1      44.962   4.900  12.078  0.00  0.00    +0.000 A 
ATOM     33  H   UNL     1      45.024   1.697  12.825  0.00  0.00    +0.000 HD
ENDBRANCH  20  23
ENDBRANCH   1  19
BRANCH   1  34
ATOM     34  O   UNL     1      48.015   8.546  14.921  0.00  0.00    +0.000 OA
BRANCH  34  36
ATOM     35  C   UNL     1      49.878   9.091  13.536  0.00  0.00    +0.000 C 
ATOM     36  C   UNL     1      48.567   9.587  14.113  0.00  0.00    +0.000 C 
ENDBRANCH  34  36
ENDBRANCH   1  34
TORSDOF 8
ENDMDL
MODEL 7
REMARK VINA RESULT:    -6.360      1.556      2.170
REMARK INTER + INTRA:         -10.855
REMARK INTER:                  -9.977
REMARK INTRA:                  -0.879
REMARK UNBOUND:                -1.520
REMARK  Name = 
REMARK  9 active torsions:
REMARK  status: ('A' for Active; 'I' for Inactive)
REMARK    1  A    between atoms: C_1  and  C_2
REMARK    2  A    between atoms: C_2  and  O_3
REMARK    3  A    between atoms: O_3  and  C_4
REMARK    4  A    between atoms: C_4  and  N_5
REMARK    5  A    between atoms: C_4  and  C_18
REMARK    6  A    between atoms: C_6  and  C_8
REMARK    7  A    between atoms: C_21  and  C_22
REMARK    8  A    between atoms: C_22  and  N_23
REMARK    9  A    between atoms: C_24  and  C_26
REMARK                            x       y       z     vdW  Elec       q    Type
REMARK                         _______ _______ _______ _____ _____    ______ ____
ROOT
ATOM      1  C   UNL     1      48.199   4.830  15.545  0.00  0.00    +0.000 C 
ENDROOT
BRANCH   1   2
ATOM      2  C   UNL     1      47.287   5.049  14.347  0.00  0.00    +0.000 A 
ATOM      3  C   UNL     1      47.348   6.237  13.605  0.00  0.00    +0.000 A 
ATOM      4  C   UNL     1      46.564   6.397  12.455  0.00  0.00    +0.000 A 
ATOM      5  C   UNL     1      45.704   5.376  12.027  0.00  0.00    +0.000 A 
ATOM      6  C   UNL     1      45.627   4.198  12.778  0.00  0.00    +0.000 A 
ATOM      7  C   UNL     1      46.377   4.053  13.943  0.00  0.00    +0.000 A 
BRANCH   5   8
ATOM      8  C   UNL     1      44.848   5.535  10.801  0.00  0.00    +0.000 C 
BRANCH   8   9
ATOM      9  N   UNL     1      45.429   4.957   9.620  0.00  0.00    +0.000 N 
ATOM     10  C   UNL     1      45.165   3.645   9.293  0.00  0.00    +0.000 C 
ATOM     11  O   UNL     1      44.442   2.916   9.962  0.00  0.00    +0.000 OA
ATOM     12  H   UNL     1      46.055   5.476   9.015  0.00  0.00    +0.000 HD
BRANCH  10  13
ATOM     13  C   UNL     1      45.831   3.191   8.071  0.00  0.00    +0.000 A 
ATOM     14  C   UNL     1      46.139   1.883   7.749  0.00  0.00    +0.000 A 
ATOM     15  N   UNL     1      46.736   1.935   6.521  0.00  0.00    +0.000 N 
ATOM     16  C   UNL     1      46.778   3.247   6.141  0.00  0.00    +0.000 A 
ATOM     17  N   UNL     1      46.245   4.033   7.049  0.00  0.00    +0.000 NA
ATOM     18  H   UNL     1      47.080   1.151   5.988  0.00  0.00    +0.000 HD
ENDBRANCH  10  13
ENDBRANCH   8   9
ENDBRANCH   5   8
ENDBRANCH   1   2
BRANCH   1  19
ATOM     19  N   UNL     1      47.852   5.768  16.575  0.00  0.00    +0.000 N 
ATOM     20  C   UNL     1      48.775   6.525  17.239  0.00  0.00    +0.000 C 
ATOM     21  O   UNL     1      49.970   6.514  16.952  0.00  0.00    +0.000 OA
ATOM     22  H   UNL     1      46.938   5.623  16.985  0.00  0.00    +0.000 HD
BRANCH  20  23
ATOM     23  C   UNL     1      48.248   7.440  18.266  0.00  0.00    +0.000 A 
ATOM     24  C   UNL     1      47.937   6.950  19.529  0.00  0.00    +0.000 A 
ATOM     25  S   UNL     1      47.398   8.149  20.616  0.00  0.00    +0.000 S 
ATOM     26  C   UNL     1      47.504   9.357  19.423  0.00  0.00    +0.000 A 
ATOM     27  N   UNL     1      47.150  10.642  19.697  0.00  0.00    +0.000 NA
ATOM     28  C   UNL     1      47.236  11.444  18.688  0.00  0.00    +0.000 A 
ATOM     29  N   UNL     1      47.655  11.080  17.436  0.00  0.00    +0.000 N 
ATOM     30  C   UNL     1      48.083   9.809  17.130  0.00  0.00    +0.000 A 
ATOM     31  O   UNL     1      48.547   9.542  16.027  0.00  0.00    +0.000 OA
ATOM     32  C   UNL     1      47.970   8.856  18.221  0.00  0.00    +0.000 A 
ATOM     33  H   UNL     1      47.720  11.760  16.694  0.00  0.00    +0.000 HD
ENDBRANCH  20  23
ENDBRANCH   1  19
BRANCH   1  34
ATOM     34  O   UNL     1      48.015   3.531  16.112  0.00  0.00    +0.000 OA
BRANCH  34  36
ATOM     35  C   UNL     1      48.228   2.926  18.409  0.00  0.00    +0.000 C 
ATOM     36  C   UNL     1      47.326   3.551  17.364  0.00  0.00    +0.000 C 
ENDBRANCH  34  36
ENDBRANCH   1  34
TORSDOF 8
ENDMDL
MODEL 8
REMARK VINA RESULT:    -6.231      5.141      8.226
REMARK INTER + INTRA:         -10.665
REMARK INTER:                  -9.522
REMARK INTRA:                  -1.143
REMARK UNBOUND:                -1.520
REMARK  Name = 
REMARK  9 active torsions:
REMARK  status: ('A' for Active; 'I' for Inactive)
REMARK    1  A    between atoms: C_1  and  C_2
REMARK    2  A    between atoms: C_2  and  O_3
REMARK    3  A    between atoms: O_3  and  C_4
REMARK    4  A    between atoms: C_4  and  N_5
REMARK    5  A    between atoms: C_4  and  C_18
REMARK    6  A    between atoms: C_6  and  C_8
REMARK    7  A    between atoms: C_21  and  C_22
REMARK    8  A    between atoms: C_22  and  N_23
REMARK    9  A    between atoms: C_24  and  C_26
REMARK                            x       y       z     vdW  Elec       q    Type
REMARK                         _______ _______ _______ _____ _____    ______ ____
ROOT
ATOM      1  C   UNL     1      47.010   8.616  12.348  0.00  0.00    +0.000 C 
ENDROOT
BRANCH   1   2
ATOM      2  C   UNL     1      48.467   8.582  11.911  0.00  0.00    +0.000 A 
ATOM      3  C   UNL     1      49.100   7.366  11.616  0.00  0.00    +0.000 A 
ATOM      4  C   UNL     1      50.415   7.349  11.135  0.00  0.00    +0.000 A 
ATOM      5  C   UNL     1      51.123   8.544  10.944  0.00  0.00    +0.000 A 
ATOM      6  C   UNL     1      50.500   9.756  11.258  0.00  0.00    +0.000 A 
ATOM      7  C   UNL     1      49.205   9.773  11.772  0.00  0.00    +0.000 A 
BRANCH   5   8
ATOM      8  C   UNL     1      52.540   8.542  10.438  0.00  0.00    +0.000 C 
BRANCH   8   9
ATOM      9  N   UNL     1      52.916   7.313   9.794  0.00  0.00    +0.000 N 
ATOM     10  C   UNL     1      53.080   7.272   8.427  0.00  0.00    +0.000 C 
ATOM     11  O   UNL     1      52.927   8.247   7.700  0.00  0.00    +0.000 OA
ATOM     12  H   UNL     1      53.046   6.450  10.310  0.00  0.00    +0.000 HD
BRANCH  10  13
ATOM     13  C   UNL     1      53.454   5.954   7.913  0.00  0.00    +0.000 A 
ATOM     14  C   UNL     1      54.433   5.125   8.428  0.00  0.00    +0.000 A 
ATOM     15  N   UNL     1      54.421   4.006   7.644  0.00  0.00    +0.000 N 
ATOM     16  C   UNL     1      53.459   4.184   6.691  0.00  0.00    +0.000 A 
ATOM     17  N   UNL     1      52.856   5.345   6.819  0.00  0.00    +0.000 NA
ATOM     18  H   UNL     1      55.010   3.194   7.750  0.00  0.00    +0.000 HD
ENDBRANCH  10  13
ENDBRANCH   8   9
ENDBRANCH   5   8
ENDBRANCH   1   2
BRANCH   1  19
ATOM     19  N   UNL     1      46.447   7.303  12.206  0.00  0.00    +0.000 N 
ATOM     20  C   UNL     1      45.204   7.074  11.689  0.00  0.00    +0.000 C 
ATOM     21  O   UNL     1      44.499   7.974  11.236  0.00  0.00    +0.000 OA
ATOM     22  H   UNL     1      46.890   6.592  12.775  0.00  0.00    +0.000 HD
BRANCH  20  23
ATOM     23  C   UNL     1      44.782   5.665  11.611  0.00  0.00    +0.000 A 
ATOM     24  C   UNL     1      44.108   5.089  12.681  0.00  0.00    +0.000 A 
ATOM     25  S   UNL     1      43.637   3.473  12.406  0.00  0.00    +0.000 S 
ATOM     26  C   UNL     1      44.366   3.464  10.869  0.00  0.00    +0.000 A 
ATOM     27  N   UNL     1      44.351   2.345  10.095  0.00  0.00    +0.000 NA
ATOM     28  C   UNL     1      44.981   2.464   8.974  0.00  0.00    +0.000 A 
ATOM     29  N   UNL     1      45.614   3.604   8.553  0.00  0.00    +0.000 N 
ATOM     30  C   UNL     1      45.601   4.777   9.272  0.00  0.00    +0.000 A 
ATOM     31  O   UNL     1      46.090   5.806   8.820  0.00  0.00    +0.000 OA
ATOM     32  C   UNL     1      44.938   4.685  10.562  0.00  0.00    +0.000 A 
ATOM     33  H   UNL     1      46.072   3.640   7.655  0.00  0.00    +0.000 HD
ENDBRANCH  20  23
ENDBRANCH   1  19
BRANCH   1  34
ATOM     34  O   UNL     1      46.887   8.953  13.731  0.00  0.00    +0.000 OA
BRANCH  34  36
ATOM     35  C   UNL     1      48.324   9.159  15.623  0.00  0.00    +0.000 C 
ATOM     36  C   UNL     1      47.771   8.214  14.577  0.00  0.00    +0.000 C 
ENDBRANCH  34  36
ENDBRANCH   1  34
TORSDOF 8
ENDMDL
MODEL 9
REMARK VINA RESULT:    -5.972      4.000      8.882
REMARK INTER + INTRA:         -10.285
REMARK INTER:                 -10.110
REMARK INTRA:                  -0.176
REMARK UNBOUND:                -1.520
REMARK  Name = 
REMARK  9 active torsions:
REMARK  status: ('A' for Active; 'I' for Inactive)
REMARK    1  A    between atoms: C_1  and  C_2
REMARK    2  A    between atoms: C_2  and  O_3
REMARK    3  A    between atoms: O_3  and  C_4
REMARK    4  A    between atoms: C_4  and  N_5
REMARK    5  A    between atoms: C_4  and  C_18
REMARK    6  A    between atoms: C_6  and  C_8
REMARK    7  A    between atoms: C_21  and  C_22
REMARK    8  A    between atoms: C_22  and  N_23
REMARK    9  A    between atoms: C_24  and  C_26
REMARK                            x       y       z     vdW  Elec       q    Type
REMARK                         _______ _______ _______ _____ _____    ______ ____
ROOT
ATOM      1  C   UNL     1      48.404   7.919  12.112  0.00  0.00    +0.000 C 
ENDROOT
BRANCH   1   2
ATOM      2  C   UNL     1      48.968   7.450  13.445  0.00  0.00    +0.000 A 
ATOM      3  C   UNL     1      50.267   7.800  13.838  0.00  0.00    +0.000 A 
ATOM      4  C   UNL     1      50.749   7.435  15.101  0.00  0.00    +0.000 A 
ATOM      5  C   UNL     1      49.945   6.710  15.993  0.00  0.00    +0.000 A 
ATOM      6  C   UNL     1      48.655   6.343  15.593  0.00  0.00    +0.000 A 
ATOM      7  C   UNL     1      48.188   6.673  14.323  0.00  0.00    +0.000 A 
BRANCH   5   8
ATOM      8  C   UNL     1      50.450   6.301  17.349  0.00  0.00    +0.000 C 
BRANCH   8   9
ATOM      9  N   UNL     1      51.166   5.054  17.340  0.00  0.00    +0.000 N 
ATOM     10  C   UNL     1      50.528   3.889  17.704  0.00  0.00    +0.000 C 
ATOM     11  O   UNL     1      49.351   3.844  18.043  0.00  0.00    +0.000 OA
ATOM     12  H   UNL     1      52.148   4.996  17.092  0.00  0.00    +0.000 HD
BRANCH  10  13
ATOM     13  C   UNL     1      51.383   2.703  17.656  0.00  0.00    +0.000 A 
ATOM     14  C   UNL     1      50.988   1.428  17.297  0.00  0.00    +0.000 A 
ATOM     15  N   UNL     1      52.111   0.654  17.382  0.00  0.00    +0.000 N 
ATOM     16  C   UNL     1      53.135   1.463  17.787  0.00  0.00    +0.000 A 
ATOM     17  N   UNL     1      52.736   2.703  17.964  0.00  0.00    +0.000 NA
ATOM     18  H   UNL     1      52.177  -0.332  17.180  0.00  0.00    +0.000 HD
ENDBRANCH  10  13
ENDBRANCH   8   9
ENDBRANCH   5   8
ENDBRANCH   1   2
BRANCH   1  19
ATOM     19  N   UNL     1      47.631   6.857  11.531  0.00  0.00    +0.000 N 
ATOM     20  C   UNL     1      46.266   6.872  11.471  0.00  0.00    +0.000 C 
ATOM     21  O   UNL     1      45.597   7.832  11.847  0.00  0.00    +0.000 OA
ATOM     22  H   UNL     1      48.125   5.979  11.439  0.00  0.00    +0.000 HD
BRANCH  20  23
ATOM     23  C   UNL     1      45.631   5.703  10.838  0.00  0.00    +0.000 A 
ATOM     24  C   UNL     1      45.734   5.524   9.464  0.00  0.00    +0.000 A 
ATOM     25  S   UNL     1      44.997   4.092   8.902  0.00  0.00    +0.000 S 
ATOM     26  C   UNL     1      44.463   3.687  10.465  0.00  0.00    +0.000 A 
ATOM     27  N   UNL     1      43.728   2.563  10.683  0.00  0.00    +0.000 NA
ATOM     28  C   UNL     1      43.350   2.402  11.908  0.00  0.00    +0.000 A 
ATOM     29  N   UNL     1      43.653   3.257  12.935  0.00  0.00    +0.000 N 
ATOM     30  C   UNL     1      44.445   4.369  12.774  0.00  0.00    +0.000 A 
ATOM     31  O   UNL     1      44.779   5.057  13.733  0.00  0.00    +0.000 OA
ATOM     32  C   UNL     1      44.865   4.618  11.406  0.00  0.00    +0.000 A 
ATOM     33  H   UNL     1      43.345   3.064  13.876  0.00  0.00    +0.000 HD
ENDBRANCH  20  23
ENDBRANCH   1  19
BRANCH   1  34
ATOM     34  O   UNL     1      47.505   9.017  12.282  0.00  0.00    +0.000 OA
BRANCH  34  36
ATOM     35  C   UNL     1      48.201  11.038  11.223  0.00  0.00    +0.000 C 
ATOM     36  C   UNL     1      48.168  10.261  12.523  0.00  0.00    +0.000 C 
ENDBRANCH  34  36
ENDBRANCH   1  34
TORSDOF 8
ENDMDL
