MODEL 1
REMARK VINA RESULT:    -8.235      0.000      0.000
REMARK INTER + INTRA:         -12.519
REMARK INTER:                 -11.845
REMARK INTRA:                  -0.673
REMARK UNBOUND:                -0.673
REMARK  Name = 
REMARK  8 active torsions:
REMARK  status: ('A' for Active; 'I' for Inactive)
REMARK    1  A    between atoms: N_1  and  C_2
REMARK    2  A    between atoms: C_2  and  C_3
REMARK    3  A    between atoms: C_3  and  N_4
REMARK    4  A    between atoms: C_3  and  C_17
REMARK    5  A    between atoms: C_5  and  C_7
REMARK    6  A    between atoms: C_20  and  O_21
REMARK    7  A    between atoms: O_21  and  C_22
REMARK    8  A    between atoms: C_22  and  C_23
REMARK                            x       y       z     vdW  Elec       q    Type
REMARK                         _______ _______ _______ _____ _____    ______ ____
ROOT
ATOM      1  C   UNL     1      46.525   8.134  13.192  0.00  0.00    +0.000 C 
ENDROOT
BRANCH   1   2
ATOM      2  C   UNL     1      45.962   6.972  12.382  0.00  0.00    +0.000 A 
ATOM      3  C   UNL     1      46.444   6.674  11.095  0.00  0.00    +0.000 A 
ATOM      4  C   UNL     1      45.905   5.605  10.368  0.00  0.00    +0.000 A 
ATOM      5  C   UNL     1      44.885   4.824  10.913  0.00  0.00    +0.000 A 
ATOM      6  C   UNL     1      44.357   5.157  12.156  0.00  0.00    +0.000 A 
ATOM      7  C   UNL     1      44.892   6.215  12.879  0.00  0.00    +0.000 A 
BRANCH   5   8
ATOM      8  O   UNL     1      44.465   3.756  10.167  0.00  0.00    +0.000 OA
BRANCH   8   9
ATOM      9  C   UNL     1      44.504   3.978   8.751  0.00  0.00    +0.000 C 
BRANCH   9  10
ATOM     10  C   UNL     1      45.523   3.072   8.109  0.00  0.00    +0.000 A 
ATOM     11  C   UNL     1      46.415   3.597   7.179  0.00  0.00    +0.000 A 
ATOM     12  C   UNL     1      47.377   2.757   6.633  0.00  0.00    +0.000 A 
ATOM     13  C   UNL     1      47.429   1.428   7.029  0.00  0.00    +0.000 A 
ATOM     14  C   UNL     1      46.512   0.988   7.969  0.00  0.00    +0.000 A 
ATOM     15  N   UNL     1      45.566   1.780   8.521  0.00  0.00    +0.000 NA
ENDBRANCH   9  10
ENDBRANCH   8   9
ENDBRANCH   5   8
ENDBRANCH   1   2
BRANCH   1  16
ATOM     16  N   UNL     1      47.197   7.575  14.355  0.00  0.00    +0.000 N 
ATOM     17  C   UNL     1      48.375   6.885  14.300  0.00  0.00    +0.000 C 
ATOM     18  O   UNL     1      49.018   6.765  13.260  0.00  0.00    +0.000 OA
ATOM     19  H   UNL     1      46.645   7.549  15.206  0.00  0.00    +0.000 HD
BRANCH  17  20
ATOM     20  C   UNL     1      48.845   6.302  15.563  0.00  0.00    +0.000 A 
ATOM     21  C   UNL     1      49.935   6.856  16.219  0.00  0.00    +0.000 A 
ATOM     22  S   UNL     1      50.351   6.042  17.661  0.00  0.00    +0.000 S 
ATOM     23  C   UNL     1      49.123   4.889  17.430  0.00  0.00    +0.000 A 
ATOM     24  N   UNL     1      48.965   3.851  18.295  0.00  0.00    +0.000 NA
ATOM     25  C   UNL     1      48.012   3.033  17.979  0.00  0.00    +0.000 A 
ATOM     26  N   UNL     1      47.193   3.171  16.893  0.00  0.00    +0.000 N 
ATOM     27  C   UNL     1      47.286   4.225  16.022  0.00  0.00    +0.000 A 
ATOM     28  O   UNL     1      46.487   4.356  15.100  0.00  0.00    +0.000 OA
ATOM     29  C   UNL     1      48.371   5.150  16.297  0.00  0.00    +0.000 A 
ATOM     30  H   UNL     1      46.446   2.516  16.720  0.00  0.00    +0.000 HD
ENDBRANCH  17  20
ENDBRANCH   1  16
BRANCH   1  31
ATOM     31  C   UNL     1      47.482   9.057  12.366  0.00  0.00    +0.000 C 
BRANCH  31  32
ATOM     32  N   UNL     1      47.607  10.422  12.894  0.00  0.00    +0.000 NA
ATOM     33  H   UNL     1      46.804  10.627  13.487  0.00  0.00    +0.000 HD
ATOM     34  H   UNL     1      47.568  11.082  12.117  0.00  0.00    +0.000 HD
ENDBRANCH  31  32
ENDBRANCH   1  31
TORSDOF 8
ENDMDL
MODEL 2
REMARK VINA RESULT:    -7.984      2.685      3.706
REMARK INTER + INTRA:         -12.158
REMARK INTER:                 -10.717
REMARK INTRA:                  -1.441
REMARK UNBOUND:                -0.673
REMARK  Name = 
REMARK  8 active torsions:
REMARK  status: ('A' for Active; 'I' for Inactive)
REMARK    1  A    between atoms: N_1  and  C_2
REMARK    2  A    between atoms: C_2  and  C_3
REMARK    3  A    between atoms: C_3  and  N_4
REMARK    4  A    between atoms: C_3  and  C_17
REMARK    5  A    between atoms: C_5  and  C_7
REMARK    6  A    between atoms: C_20  and  O_21
REMARK    7  A    between atoms: O_21  and  C_22
REMARK    8  A    between atoms: C_22  and  C_23
REMARK                            x       y       z     vdW  Elec       q    Type
REMARK                         _______ _______ _______ _____ _____    ______ ____
ROOT
ATOM      1  C   UNL     1      47.870   4.567  15.087  0.00  0.00    +0.000 C 
ENDROOT
BRANCH   1   2
ATOM      2  C   UNL     1      46.987   4.728  13.854  0.00  0.00    +0.000 A 
ATOM      3  C   UNL     1      46.870   5.963  13.193  0.00  0.00    +0.000 A 
ATOM      4  C   UNL     1      46.047   6.087  12.067  0.00  0.00    +0.000 A 
ATOM      5  C   UNL     1      45.335   4.985  11.588  0.00  0.00    +0.000 A 
ATOM      6  C   UNL     1      45.393   3.780  12.280  0.00  0.00    +0.000 A 
ATOM      7  C   UNL     1      46.211   3.655  13.395  0.00  0.00    +0.000 A 
BRANCH   5   8
ATOM      8  O   UNL     1      44.611   5.173  10.443  0.00  0.00    +0.000 OA
BRANCH   8   9
ATOM      9  C   UNL     1      44.127   3.962   9.848  0.00  0.00    +0.000 C 
BRANCH   9  10
ATOM     10  C   UNL     1      45.152   3.402   8.896  0.00  0.00    +0.000 A 
ATOM     11  C   UNL     1      45.432   2.038   8.917  0.00  0.00    +0.000 A 
ATOM     12  C   UNL     1      46.346   1.534   8.001  0.00  0.00    +0.000 A 
ATOM     13  C   UNL     1      46.947   2.392   7.090  0.00  0.00    +0.000 A 
ATOM     14  C   UNL     1      46.603   3.732   7.128  0.00  0.00    +0.000 A 
ATOM     15  N   UNL     1      45.717   4.254   8.005  0.00  0.00    +0.000 NA
ENDBRANCH   9  10
ENDBRANCH   8   9
ENDBRANCH   5   8
ENDBRANCH   1   2
BRANCH   1  16
ATOM     16  N   UNL     1      47.763   5.790  15.867  0.00  0.00    +0.000 N 
ATOM     17  C   UNL     1      48.830   6.563  16.231  0.00  0.00    +0.000 C 
ATOM     18  O   UNL     1      49.971   6.332  15.840  0.00  0.00    +0.000 OA
ATOM     19  H   UNL     1      46.861   5.949  16.305  0.00  0.00    +0.000 HD
BRANCH  17  20
ATOM     20  C   UNL     1      48.536   7.701  17.110  0.00  0.00    +0.000 A 
ATOM     21  C   UNL     1      48.707   8.998  16.647  0.00  0.00    +0.000 A 
ATOM     22  S   UNL     1      48.334  10.194  17.806  0.00  0.00    +0.000 S 
ATOM     23  C   UNL     1      47.983   9.020  18.985  0.00  0.00    +0.000 A 
ATOM     24  N   UNL     1      47.646   9.381  20.253  0.00  0.00    +0.000 NA
ATOM     25  C   UNL     1      47.437   8.383  21.054  0.00  0.00    +0.000 A 
ATOM     26  N   UNL     1      47.513   7.067  20.696  0.00  0.00    +0.000 N 
ATOM     27  C   UNL     1      47.802   6.659  19.419  0.00  0.00    +0.000 A 
ATOM     28  O   UNL     1      47.789   5.470  19.117  0.00  0.00    +0.000 OA
ATOM     29  C   UNL     1      48.097   7.734  18.488  0.00  0.00    +0.000 A 
ATOM     30  H   UNL     1      47.305   6.336  21.359  0.00  0.00    +0.000 HD
ENDBRANCH  17  20
ENDBRANCH   1  16
BRANCH   1  31
ATOM     31  C   UNL     1      47.512   3.308  15.944  0.00  0.00    +0.000 C 
BRANCH  31  32
ATOM     32  N   UNL     1      46.713   3.601  17.141  0.00  0.00    +0.000 NA
ATOM     33  H   UNL     1      46.159   2.781  17.384  0.00  0.00    +0.000 HD
ATOM     34  H   UNL     1      46.049   4.343  16.921  0.00  0.00    +0.000 HD
ENDBRANCH  31  32
ENDBRANCH   1  31
TORSDOF 8
ENDMDL
MODEL 3
REMARK VINA RESULT:    -7.897      1.904      2.592
REMARK INTER + INTRA:         -12.033
REMARK INTER:                 -11.051
REMARK INTRA:                  -0.982
REMARK UNBOUND:                -0.673
REMARK  Name = 
REMARK  8 active torsions:
REMARK  status: ('A' for Active; 'I' for Inactive)
REMARK    1  A    between atoms: N_1  and  C_2
REMARK    2  A    between atoms: C_2  and  C_3
REMARK    3  A    between atoms: C_3  and  N_4
REMARK    4  A    between atoms: C_3  and  C_17
REMARK    5  A    between atoms: C_5  and  C_7
REMARK    6  A    between atoms: C_20  and  O_21
REMARK    7  A    between atoms: O_21  and  C_22
REMARK    8  A    between atoms: C_22  and  C_23
REMARK                            x       y       z     vdW  Elec       q    Type
REMARK                         _______ _______ _______ _____ _____    ______ ____
ROOT
ATOM      1  C   UNL     1      47.535   7.029  13.623  0.00  0.00    +0.000 C 
ENDROOT
BRANCH   1   2
ATOM      2  C   UNL     1      46.682   6.135  12.730  0.00  0.00    +0.000 A 
ATOM      3  C   UNL     1      46.285   6.545  11.446  0.00  0.00    +0.000 A 
ATOM      4  C   UNL     1      45.496   5.708  10.648  0.00  0.00    +0.000 A 
ATOM      5  C   UNL     1      45.096   4.457  11.119  0.00  0.00    +0.000 A 
ATOM      6  C   UNL     1      45.426   4.075  12.414  0.00  0.00    +0.000 A 
ATOM      7  C   UNL     1      46.211   4.903  13.206  0.00  0.00    +0.000 A 
BRANCH   5   8
ATOM      8  O   UNL     1      44.387   3.673  10.250  0.00  0.00    +0.000 OA
BRANCH   8   9
ATOM      9  C   UNL     1      44.545   4.033   8.871  0.00  0.00    +0.000 C 
BRANCH   9  10
ATOM     10  C   UNL     1      45.528   3.110   8.200  0.00  0.00    +0.000 A 
ATOM     11  C   UNL     1      46.429   3.626   7.273  0.00  0.00    +0.000 A 
ATOM     12  C   UNL     1      47.358   2.768   6.699  0.00  0.00    +0.000 A 
ATOM     13  C   UNL     1      47.370   1.429   7.066  0.00  0.00    +0.000 A 
ATOM     14  C   UNL     1      46.448   0.999   8.004  0.00  0.00    +0.000 A 
ATOM     15  N   UNL     1      45.533   1.808   8.582  0.00  0.00    +0.000 NA
ENDBRANCH   9  10
ENDBRANCH   8   9
ENDBRANCH   5   8
ENDBRANCH   1   2
BRANCH   1  16
ATOM     16  N   UNL     1      48.008   6.218  14.735  0.00  0.00    +0.000 N 
ATOM     17  C   UNL     1      48.573   6.729  15.869  0.00  0.00    +0.000 C 
ATOM     18  O   UNL     1      48.639   7.937  16.083  0.00  0.00    +0.000 OA
ATOM     19  H   UNL     1      48.080   5.223  14.548  0.00  0.00    +0.000 HD
BRANCH  17  20
ATOM     20  C   UNL     1      49.089   5.750  16.834  0.00  0.00    +0.000 A 
ATOM     21  C   UNL     1      48.209   4.953  17.552  0.00  0.00    +0.000 A 
ATOM     22  S   UNL     1      48.981   3.886  18.637  0.00  0.00    +0.000 S 
ATOM     23  C   UNL     1      50.517   4.489  18.224  0.00  0.00    +0.000 A 
ATOM     24  N   UNL     1      51.638   4.034  18.846  0.00  0.00    +0.000 NA
ATOM     25  C   UNL     1      52.734   4.604  18.455  0.00  0.00    +0.000 A 
ATOM     26  N   UNL     1      52.810   5.567  17.488  0.00  0.00    +0.000 N 
ATOM     27  C   UNL     1      51.712   6.021  16.803  0.00  0.00    +0.000 A 
ATOM     28  O   UNL     1      51.827   6.833  15.890  0.00  0.00    +0.000 OA
ATOM     29  C   UNL     1      50.447   5.454  17.234  0.00  0.00    +0.000 A 
ATOM     30  H   UNL     1      53.699   5.948  17.204  0.00  0.00    +0.000 HD
ENDBRANCH  17  20
ENDBRANCH   1  16
BRANCH   1  31
ATOM     31  C   UNL     1      48.723   7.708  12.864  0.00  0.00    +0.000 C 
BRANCH  31  32
ATOM     32  N   UNL     1      49.786   6.781  12.454  0.00  0.00    +0.000 NA
ATOM     33  H   UNL     1      49.365   5.913  12.127  0.00  0.00    +0.000 HD
ATOM     34  H   UNL     1      50.347   6.540  13.271  0.00  0.00    +0.000 HD
ENDBRANCH  31  32
ENDBRANCH   1  31
TORSDOF 8
ENDMDL
MODEL 4
REMARK VINA RESULT:    -7.700      2.117      2.589
REMARK INTER + INTRA:         -11.749
REMARK INTER:                 -10.567
REMARK INTRA:                  -1.182
REMARK UNBOUND:                -0.673
REMARK  Name = 
REMARK  8 active torsions:
REMARK  status: ('A' for Active; 'I' for Inactive)
REMARK    1  A    between atoms: N_1  and  C_2
REMARK    2  A    between atoms: C_2  and  C_3
REMARK    3  A    between atoms: C_3  and  N_4
REMARK    4  A    between atoms: C_3  and  C_17
REMARK    5  A    between atoms: C_5  and  C_7
REMARK    6  A    between atoms: C_20  and  O_21
REMARK    7  A    between atoms: O_21  and  C_22
REMARK    8  A    between atoms: C_22  and  C_23
REMARK                            x       y       z     vdW  Elec       q    Type
REMARK                         _______ _______ _______ _____ _____    ______ ____
ROOT
ATOM      1  C   UNL     1      48.002   7.892  13.680  0.00  0.00    +0.000 C 
ENDROOT
BRANCH   1   2
ATOM      2  C   UNL     1      47.060   6.895  13.015  0.00  0.00    +0.000 A 
ATOM      3  C   UNL     1      46.910   5.587  13.507  0.00  0.00    +0.000 A 
ATOM      4  C   UNL     1      46.044   4.687  12.874  0.00  0.00    +0.000 A 
ATOM      5  C   UNL     1      45.318   5.080  11.749  0.00  0.00    +0.000 A 
ATOM      6  C   UNL     1      45.515   6.350  11.216  0.00  0.00    +0.000 A 
ATOM      7  C   UNL     1      46.372   7.244  11.844  0.00  0.00    +0.000 A 
BRANCH   5   8
ATOM      8  O   UNL     1      44.441   4.165  11.234  0.00  0.00    +0.000 OA
BRANCH   8   9
ATOM      9  C   UNL     1      44.115   4.375   9.853  0.00  0.00    +0.000 C 
BRANCH   9  10
ATOM     10  C   UNL     1      45.079   3.628   8.970  0.00  0.00    +0.000 A 
ATOM     11  C   UNL     1      45.209   2.250   9.110  0.00  0.00    +0.000 A 
ATOM     12  C   UNL     1      46.069   1.573   8.255  0.00  0.00    +0.000 A 
ATOM     13  C   UNL     1      46.766   2.279   7.285  0.00  0.00    +0.000 A 
ATOM     14  C   UNL     1      46.570   3.647   7.204  0.00  0.00    +0.000 A 
ATOM     15  N   UNL     1      45.740   4.335   8.018  0.00  0.00    +0.000 NA
ENDBRANCH   9  10
ENDBRANCH   8   9
ENDBRANCH   5   8
ENDBRANCH   1   2
BRANCH   1  16
ATOM     16  N   UNL     1      47.914   7.688  15.118  0.00  0.00    +0.000 N 
ATOM     17  C   UNL     1      48.432   8.546  16.047  0.00  0.00    +0.000 C 
ATOM     18  O   UNL     1      48.936   9.623  15.736  0.00  0.00    +0.000 OA
ATOM     19  H   UNL     1      47.614   6.763  15.409  0.00  0.00    +0.000 HD
BRANCH  17  20
ATOM     20  C   UNL     1      48.340   8.118  17.448  0.00  0.00    +0.000 A 
ATOM     21  C   UNL     1      47.944   9.020  18.425  0.00  0.00    +0.000 A 
ATOM     22  S   UNL     1      47.910   8.356  19.996  0.00  0.00    +0.000 S 
ATOM     23  C   UNL     1      48.475   6.854  19.434  0.00  0.00    +0.000 A 
ATOM     24  N   UNL     1      48.726   5.832  20.297  0.00  0.00    +0.000 NA
ATOM     25  C   UNL     1      49.183   4.759  19.734  0.00  0.00    +0.000 A 
ATOM     26  N   UNL     1      49.389   4.609  18.392  0.00  0.00    +0.000 N 
ATOM     27  C   UNL     1      49.106   5.594  17.482  0.00  0.00    +0.000 A 
ATOM     28  O   UNL     1      49.234   5.399  16.277  0.00  0.00    +0.000 OA
ATOM     29  C   UNL     1      48.638   6.842  18.059  0.00  0.00    +0.000 A 
ATOM     30  H   UNL     1      49.715   3.733  18.011  0.00  0.00    +0.000 HD
ENDBRANCH  17  20
ENDBRANCH   1  16
BRANCH   1  31
ATOM     31  C   UNL     1      49.479   7.778  13.175  0.00  0.00    +0.000 C 
BRANCH  31  32
ATOM     32  N   UNL     1      50.395   7.141  14.130  0.00  0.00    +0.000 NA
ATOM     33  H   UNL     1      51.353   7.406  13.904  0.00  0.00    +0.000 HD
ATOM     34  H   UNL     1      50.341   6.129  14.015  0.00  0.00    +0.000 HD
ENDBRANCH  31  32
ENDBRANCH   1  31
TORSDOF 8
ENDMDL
MODEL 5
REMARK VINA RESULT:    -7.391      4.426      8.371
REMARK INTER + INTRA:         -11.305
REMARK INTER:                 -10.194
REMARK INTRA:                  -1.112
REMARK UNBOUND:                -0.673
REMARK  Name = 
REMARK  8 active torsions:
REMARK  status: ('A' for Active; 'I' for Inactive)
REMARK    1  A    between atoms: N_1  and  C_2
REMARK    2  A    between atoms: C_2  and  C_3
REMARK    3  A    between atoms: C_3  and  N_4
REMARK    4  A    between atoms: C_3  and  C_17
REMARK    5  A    between atoms: C_5  and  C_7
REMARK    6  A    between atoms: C_20  and  O_21
REMARK    7  A    between atoms: O_21  and  C_22
REMARK    8  A    between atoms: C_22  and  C_23
REMARK                            x       y       z     vdW  Elec       q    Type
REMARK                         _______ _______ _______ _____ _____    ______ ____
ROOT
ATOM      1  C   UNL     1      48.895   6.277  16.943  0.00  0.00    +0.000 C 
ENDROOT
BRANCH   1   2
ATOM      2  C   UNL     1      49.605   4.942  17.140  0.00  0.00    +0.000 A 
ATOM      3  C   UNL     1      50.992   4.875  17.356  0.00  0.00    +0.000 A 
ATOM      4  C   UNL     1      51.622   3.636  17.527  0.00  0.00    +0.000 A 
ATOM      5  C   UNL     1      50.878   2.455  17.487  0.00  0.00    +0.000 A 
ATOM      6  C   UNL     1      49.518   2.512  17.204  0.00  0.00    +0.000 A 
ATOM      7  C   UNL     1      48.892   3.740  17.036  0.00  0.00    +0.000 A 
BRANCH   5   8
ATOM      8  O   UNL     1      51.558   1.294  17.734  0.00  0.00    +0.000 OA
BRANCH   8   9
ATOM      9  C   UNL     1      52.967   1.469  17.935  0.00  0.00    +0.000 C 
BRANCH   9  10
ATOM     10  C   UNL     1      53.687   0.157  17.762  0.00  0.00    +0.000 A 
ATOM     11  C   UNL     1      54.384  -0.090  16.583  0.00  0.00    +0.000 A 
ATOM     12  C   UNL     1      55.079  -1.287  16.461  0.00  0.00    +0.000 A 
ATOM     13  C   UNL     1      55.068  -2.195  17.510  0.00  0.00    +0.000 A 
ATOM     14  C   UNL     1      54.360  -1.866  18.653  0.00  0.00    +0.000 A 
ATOM     15  N   UNL     1      53.675  -0.711  18.805  0.00  0.00    +0.000 NA
ENDBRANCH   9  10
ENDBRANCH   8   9
ENDBRANCH   5   8
ENDBRANCH   1   2
BRANCH   1  16
ATOM     16  N   UNL     1      47.967   6.122  15.834  0.00  0.00    +0.000 N 
ATOM     17  C   UNL     1      48.274   6.406  14.533  0.00  0.00    +0.000 C 
ATOM     18  O   UNL     1      49.406   6.728  14.181  0.00  0.00    +0.000 OA
ATOM     19  H   UNL     1      46.997   5.975  16.095  0.00  0.00    +0.000 HD
BRANCH  17  20
ATOM     20  C   UNL     1      47.174   6.291  13.567  0.00  0.00    +0.000 A 
ATOM     21  C   UNL     1      46.654   7.430  12.969  0.00  0.00    +0.000 A 
ATOM     22  S   UNL     1      45.373   7.111  11.888  0.00  0.00    +0.000 S 
ATOM     23  C   UNL     1      45.431   5.444  12.223  0.00  0.00    +0.000 A 
ATOM     24  N   UNL     1      44.541   4.585  11.657  0.00  0.00    +0.000 NA
ATOM     25  C   UNL     1      44.682   3.351  12.027  0.00  0.00    +0.000 A 
ATOM     26  N   UNL     1      45.642   2.900  12.889  0.00  0.00    +0.000 N 
ATOM     27  C   UNL     1      46.587   3.723  13.445  0.00  0.00    +0.000 A 
ATOM     28  O   UNL     1      47.479   3.271  14.157  0.00  0.00    +0.000 OA
ATOM     29  C   UNL     1      46.448   5.128  13.107  0.00  0.00    +0.000 A 
ATOM     30  H   UNL     1      45.720   1.920  13.111  0.00  0.00    +0.000 HD
ENDBRANCH  17  20
ENDBRANCH   1  16
BRANCH   1  31
ATOM     31  C   UNL     1      48.167   6.787  18.232  0.00  0.00    +0.000 C 
BRANCH  31  32
ATOM     32  N   UNL     1      49.061   7.385  19.232  0.00  0.00    +0.000 NA
ATOM     33  H   UNL     1      49.088   6.787  20.057  0.00  0.00    +0.000 HD
ATOM     34  H   UNL     1      48.668   8.277  19.535  0.00  0.00    +0.000 HD
ENDBRANCH  31  32
ENDBRANCH   1  31
TORSDOF 8
ENDMDL
MODEL 6
REMARK VINA RESULT:    -7.329      2.126      2.519
REMARK INTER + INTRA:         -11.215
REMARK INTER:                 -10.153
REMARK INTRA:                  -1.062
REMARK UNBOUND:                -0.673
REMARK  Name = 
REMARK  8 active torsions:
REMARK  status: ('A' for Active; 'I' for Inactive)
REMARK    1  A    between atoms: N_1  and  C_2
REMARK    2  A    between atoms: C_2  and  C_3
REMARK    3  A    between atoms: C_3  and  N_4
REMARK    4  A    between atoms: C_3  and  C_17
REMARK    5  A    between atoms: C_5  and  C_7
REMARK    6  A    between atoms: C_20  and  O_21
REMARK    7  A    between atoms: O_21  and  C_22
REMARK    8  A    between atoms: C_22  and  C_23
REMARK                            x       y       z     vdW  Elec       q    Type
REMARK                         _______ _______ _______ _____ _____    ______ ____
ROOT
ATOM      1  C   UNL     1      47.834   7.305  13.895  0.00  0.00    +0.000 C 
ENDROOT
BRANCH   1   2
ATOM      2  C   UNL     1      46.807   6.446  13.166  0.00  0.00    +0.000 A 
ATOM      3  C   UNL     1      45.828   7.020  12.335  0.00  0.00    +0.000 A 
ATOM      4  C   UNL     1      44.891   6.210  11.683  0.00  0.00    +0.000 A 
ATOM      5  C   UNL     1      44.919   4.824  11.848  0.00  0.00    +0.000 A 
ATOM      6  C   UNL     1      45.840   4.258  12.723  0.00  0.00    +0.000 A 
ATOM      7  C   UNL     1      46.771   5.060  13.370  0.00  0.00    +0.000 A 
BRANCH   5   8
ATOM      8  O   UNL     1      44.015   4.101  11.120  0.00  0.00    +0.000 OA
BRANCH   8   9
ATOM      9  C   UNL     1      43.950   4.467   9.734  0.00  0.00    +0.000 C 
BRANCH   9  10
ATOM     10  C   UNL     1      44.956   3.678   8.939  0.00  0.00    +0.000 A 
ATOM     11  C   UNL     1      45.065   2.305   9.142  0.00  0.00    +0.000 A 
ATOM     12  C   UNL     1      45.967   1.588   8.366  0.00  0.00    +0.000 A 
ATOM     13  C   UNL     1      46.725   2.249   7.410  0.00  0.00    +0.000 A 
ATOM     14  C   UNL     1      46.547   3.614   7.263  0.00  0.00    +0.000 A 
ATOM     15  N   UNL     1      45.678   4.340   8.000  0.00  0.00    +0.000 NA
ENDBRANCH   9  10
ENDBRANCH   8   9
ENDBRANCH   5   8
ENDBRANCH   1   2
BRANCH   1  16
ATOM     16  N   UNL     1      48.273   6.564  15.068  0.00  0.00    +0.000 N 
ATOM     17  C   UNL     1      48.744   7.148  16.210  0.00  0.00    +0.000 C 
ATOM     18  O   UNL     1      48.743   8.366  16.374  0.00  0.00    +0.000 OA
ATOM     19  H   UNL     1      48.400   5.567  14.931  0.00  0.00    +0.000 HD
BRANCH  17  20
ATOM     20  C   UNL     1      49.242   6.236  17.247  0.00  0.00    +0.000 A 
ATOM     21  C   UNL     1      50.282   5.362  16.961  0.00  0.00    +0.000 A 
ATOM     22  S   UNL     1      50.720   4.367  18.276  0.00  0.00    +0.000 S 
ATOM     23  C   UNL     1      49.499   5.030  19.257  0.00  0.00    +0.000 A 
ATOM     24  N   UNL     1      49.287   4.568  20.519  0.00  0.00    +0.000 NA
ATOM     25  C   UNL     1      48.304   5.142  21.139  0.00  0.00    +0.000 A 
ATOM     26  N   UNL     1      47.535   6.146  20.621  0.00  0.00    +0.000 N 
ATOM     27  C   UNL     1      47.744   6.674  19.373  0.00  0.00    +0.000 A 
ATOM     28  O   UNL     1      47.081   7.624  18.969  0.00  0.00    +0.000 OA
ATOM     29  C   UNL     1      48.801   6.034  18.609  0.00  0.00    +0.000 A 
ATOM     30  H   UNL     1      46.805   6.575  21.169  0.00  0.00    +0.000 HD
ENDBRANCH  17  20
ENDBRANCH   1  16
BRANCH   1  31
ATOM     31  C   UNL     1      49.045   7.719  12.994  0.00  0.00    +0.000 C 
BRANCH  31  32
ATOM     32  N   UNL     1      49.966   8.674  13.624  0.00  0.00    +0.000 NA
ATOM     33  H   UNL     1      50.751   8.845  12.997  0.00  0.00    +0.000 HD
ATOM     34  H   UNL     1      50.356   8.250  14.466  0.00  0.00    +0.000 HD
ENDBRANCH  31  32
ENDBRANCH   1  31
TORSDOF 8
ENDMDL
MODEL 7
REMARK VINA RESULT:    -7.200      2.984      4.203
REMARK INTER + INTRA:         -11.031
REMARK INTER:                  -9.890
REMARK INTRA:                  -1.141
REMARK UNBOUND:                -0.673
REMARK  Name = 
REMARK  8 active torsions:
REMARK  status: ('A' for Active; 'I' for Inactive)
REMARK    1  A    between atoms: N_1  and  C_2
REMARK    2  A    between atoms: C_2  and  C_3
REMARK    3  A    between atoms: C_3  and  N_4
REMARK    4  A    between atoms: C_3  and  C_17
REMARK    5  A    between atoms: C_5  and  C_7
REMARK    6  A    between atoms: C_20  and  O_21
REMARK    7  A    between atoms: O_21  and  C_22
REMARK    8  A    between atoms: C_22  and  C_23
REMARK                            x       y       z     vdW  Elec       q    Type
REMARK                         _______ _______ _______ _____ _____    ______ ____
ROOT
ATOM      1  C   UNL     1      49.644   6.838  16.182  0.00  0.00    +0.000 C 
ENDROOT
BRANCH   1   2
ATOM      2  C   UNL     1      48.580   6.092  15.385  0.00  0.00    +0.000 A 
ATOM      3  C   UNL     1      48.182   6.526  14.108  0.00  0.00    +0.000 A 
ATOM      4  C   UNL     1      47.197   5.828  13.399  0.00  0.00    +0.000 A 
ATOM      5  C   UNL     1      46.601   4.693  13.950  0.00  0.00    +0.000 A 
ATOM      6  C   UNL     1      46.941   4.300  15.240  0.00  0.00    +0.000 A 
ATOM      7  C   UNL     1      47.919   4.990  15.945  0.00  0.00    +0.000 A 
BRANCH   5   8
ATOM      8  O   UNL     1      45.700   4.029  13.163  0.00  0.00    +0.000 OA
BRANCH   8   9
ATOM      9  C   UNL     1      44.963   4.876  12.271  0.00  0.00    +0.000 C 
BRANCH   9  10
ATOM     10  C   UNL     1      44.926   4.274  10.891  0.00  0.00    +0.000 A 
ATOM     11  C   UNL     1      45.405   5.009   9.810  0.00  0.00    +0.000 A 
ATOM     12  C   UNL     1      45.405   4.419   8.553  0.00  0.00    +0.000 A 
ATOM     13  C   UNL     1      44.937   3.120   8.407  0.00  0.00    +0.000 A 
ATOM     14  C   UNL     1      44.489   2.455   9.535  0.00  0.00    +0.000 A 
ATOM     15  N   UNL     1      44.478   2.999  10.771  0.00  0.00    +0.000 NA
ENDBRANCH   9  10
ENDBRANCH   8   9
ENDBRANCH   5   8
ENDBRANCH   1   2
BRANCH   1  16
ATOM     16  N   UNL     1      50.553   5.846  16.736  0.00  0.00    +0.000 N 
ATOM     17  C   UNL     1      50.615   5.519  18.061  0.00  0.00    +0.000 C 
ATOM     18  O   UNL     1      49.829   5.976  18.887  0.00  0.00    +0.000 OA
ATOM     19  H   UNL     1      51.292   5.537  16.113  0.00  0.00    +0.000 HD
BRANCH  17  20
ATOM     20  C   UNL     1      51.671   4.575  18.448  0.00  0.00    +0.000 A 
ATOM     21  C   UNL     1      52.741   5.008  19.218  0.00  0.00    +0.000 A 
ATOM     22  S   UNL     1      53.879   3.783  19.559  0.00  0.00    +0.000 S 
ATOM     23  C   UNL     1      53.009   2.643  18.643  0.00  0.00    +0.000 A 
ATOM     24  N   UNL     1      53.477   1.377  18.474  0.00  0.00    +0.000 NA
ATOM     25  C   UNL     1      52.729   0.628  17.727  0.00  0.00    +0.000 A 
ATOM     26  N   UNL     1      51.551   1.022  17.158  0.00  0.00    +0.000 N 
ATOM     27  C   UNL     1      51.019   2.272  17.341  0.00  0.00    +0.000 A 
ATOM     28  O   UNL     1      49.923   2.567  16.875  0.00  0.00    +0.000 OA
ATOM     29  C   UNL     1      51.839   3.175  18.129  0.00  0.00    +0.000 A 
ATOM     30  H   UNL     1      50.997   0.378  16.614  0.00  0.00    +0.000 HD
ENDBRANCH  17  20
ENDBRANCH   1  16
BRANCH   1  31
ATOM     31  C   UNL     1      50.411   7.909  15.338  0.00  0.00    +0.000 C 
BRANCH  31  32
ATOM     32  N   UNL     1      51.698   7.447  14.803  0.00  0.00    +0.000 NA
ATOM     33  H   UNL     1      52.092   6.750  15.433  0.00  0.00    +0.000 HD
ATOM     34  H   UNL     1      52.353   8.230  14.793  0.00  0.00    +0.000 HD
ENDBRANCH  31  32
ENDBRANCH   1  31
TORSDOF 8
ENDMDL
MODEL 8
REMARK VINA RESULT:    -6.660      2.672      7.770
REMARK INTER + INTRA:         -10.254
REMARK INTER:                 -10.032
REMARK INTRA:                  -0.222
REMARK UNBOUND:                -0.673
REMARK  Name = 
REMARK  8 active torsions:
REMARK  status: ('A' for Active; 'I' for Inactive)
REMARK    1  A    between atoms: N_1  and  C_2
REMARK    2  A    between atoms: C_2  and  C_3
REMARK    3  A    between atoms: C_3  and  N_4
REMARK    4  A    between atoms: C_3  and  C_17
REMARK    5  A    between atoms: C_5  and  C_7
REMARK    6  A    between atoms: C_20  and  O_21
REMARK    7  A    between atoms: O_21  and  C_22
REMARK    8  A    between atoms: C_22  and  C_23
REMARK                            x       y       z     vdW  Elec       q    Type
REMARK                         _______ _______ _______ _____ _____    ______ ____
ROOT
ATOM      1  C   UNL     1      48.053   7.640  12.141  0.00  0.00    +0.000 C 
ENDROOT
BRANCH   1   2
ATOM      2  C   UNL     1      48.725   7.324  13.473  0.00  0.00    +0.000 A 
ATOM      3  C   UNL     1      50.034   7.755  13.753  0.00  0.00    +0.000 A 
ATOM      4  C   UNL     1      50.633   7.446  14.980  0.00  0.00    +0.000 A 
ATOM      5  C   UNL     1      49.936   6.710  15.940  0.00  0.00    +0.000 A 
ATOM      6  C   UNL     1      48.668   6.222  15.640  0.00  0.00    +0.000 A 
ATOM      7  C   UNL     1      48.072   6.529  14.424  0.00  0.00    +0.000 A 
BRANCH   5   8
ATOM      8  O   UNL     1      50.565   6.514  17.138  0.00  0.00    +0.000 OA
BRANCH   8   9
ATOM      9  C   UNL     1      49.951   5.518  17.969  0.00  0.00    +0.000 C 
BRANCH   9  10
ATOM     10  C   UNL     1      50.613   4.182  17.759  0.00  0.00    +0.000 A 
ATOM     11  C   UNL     1      51.925   3.994  18.184  0.00  0.00    +0.000 A 
ATOM     12  C   UNL     1      52.503   2.741  18.024  0.00  0.00    +0.000 A 
ATOM     13  C   UNL     1      51.763   1.714  17.454  0.00  0.00    +0.000 A 
ATOM     14  C   UNL     1      50.460   1.982  17.069  0.00  0.00    +0.000 A 
ATOM     15  N   UNL     1      49.869   3.188  17.213  0.00  0.00    +0.000 NA
ENDBRANCH   9  10
ENDBRANCH   8   9
ENDBRANCH   5   8
ENDBRANCH   1   2
BRANCH   1  16
ATOM     16  N   UNL     1      47.156   6.537  11.830  0.00  0.00    +0.000 N 
ATOM     17  C   UNL     1      45.815   6.542  12.093  0.00  0.00    +0.000 C 
ATOM     18  O   UNL     1      45.237   7.533  12.533  0.00  0.00    +0.000 OA
ATOM     19  H   UNL     1      47.610   5.664  11.579  0.00  0.00    +0.000 HD
BRANCH  17  20
ATOM     20  C   UNL     1      45.093   5.297  11.807  0.00  0.00    +0.000 A 
ATOM     21  C   UNL     1      44.373   4.666  12.812  0.00  0.00    +0.000 A 
ATOM     22  S   UNL     1      43.612   3.225  12.307  0.00  0.00    +0.000 S 
ATOM     23  C   UNL     1      44.262   3.364  10.741  0.00  0.00    +0.000 A 
ATOM     24  N   UNL     1      44.041   2.404   9.803  0.00  0.00    +0.000 NA
ATOM     25  C   UNL     1      44.623   2.625   8.667  0.00  0.00    +0.000 A 
ATOM     26  N   UNL     1      45.383   3.723   8.380  0.00  0.00    +0.000 N 
ATOM     27  C   UNL     1      45.593   4.737   9.279  0.00  0.00    +0.000 A 
ATOM     28  O   UNL     1      46.220   5.743   8.963  0.00  0.00    +0.000 OA
ATOM     29  C   UNL     1      45.006   4.521  10.590  0.00  0.00    +0.000 A 
ATOM     30  H   UNL     1      45.782   3.853   7.463  0.00  0.00    +0.000 HD
ENDBRANCH  17  20
ENDBRANCH   1  16
BRANCH   1  31
ATOM     31  C   UNL     1      47.297   9.010  12.139  0.00  0.00    +0.000 C 
BRANCH  31  32
ATOM     32  N   UNL     1      47.170   9.631  13.464  0.00  0.00    +0.000 NA
ATOM     33  H   UNL     1      46.558  10.442  13.396  0.00  0.00    +0.000 HD
ATOM     34  H   UNL     1      48.083   9.982  13.753  0.00  0.00    +0.000 HD
ENDBRANCH  31  32
ENDBRANCH   1  31
TORSDOF 8
ENDMDL
MODEL 9
REMARK VINA RESULT:    -6.300      3.891      6.362
REMARK INTER + INTRA:          -9.736
REMARK INTER:                  -9.094
REMARK INTRA:                  -0.642
REMARK UNBOUND:                -0.673
REMARK  Name = 
REMARK  8 active torsions:
REMARK  status: ('A' for Active; 'I' for Inactive)
REMARK    1  A    between atoms: N_1  and  C_2
REMARK    2  A    between atoms: C_2  and  C_3
REMARK    3  A    between atoms: C_3  and  N_4
REMARK    4  A    between atoms: C_3  and  C_17
REMARK    5  A    between atoms: C_5  and  C_7
REMARK    6  A    between atoms: C_20  and  O_21
REMARK    7  A    between atoms: O_21  and  C_22
REMARK    8  A    between atoms: C_22  and  C_23
REMARK                            x       y       z     vdW  Elec       q    Type
REMARK                         _______ _______ _______ _____ _____    ______ ____
ROOT
ATOM      1  C   UNL     1      49.547   5.176  19.548  0.00  0.00    +0.000 C 
ENDROOT
BRANCH   1   2
ATOM      2  C   UNL     1      48.819   4.760  18.274  0.00  0.00    +0.000 A 
ATOM      3  C   UNL     1      48.670   5.647  17.193  0.00  0.00    +0.000 A 
ATOM      4  C   UNL     1      47.991   5.244  16.036  0.00  0.00    +0.000 A 
ATOM      5  C   UNL     1      47.456   3.958  15.944  0.00  0.00    +0.000 A 
ATOM      6  C   UNL     1      47.539   3.102  17.037  0.00  0.00    +0.000 A 
ATOM      7  C   UNL     1      48.214   3.499  18.184  0.00  0.00    +0.000 A 
BRANCH   5   8
ATOM      8  O   UNL     1      46.871   3.621  14.754  0.00  0.00    +0.000 OA
BRANCH   8   9
ATOM      9  C   UNL     1      46.649   4.731  13.873  0.00  0.00    +0.000 C 
BRANCH   9  10
ATOM     10  C   UNL     1      45.367   4.541  13.107  0.00  0.00    +0.000 A 
ATOM     11  C   UNL     1      44.685   5.656  12.627  0.00  0.00    +0.000 A 
ATOM     12  C   UNL     1      43.529   5.458  11.883  0.00  0.00    +0.000 A 
ATOM     13  C   UNL     1      43.089   4.166  11.632  0.00  0.00    +0.000 A 
ATOM     14  C   UNL     1      43.832   3.112  12.136  0.00  0.00    +0.000 A 
ATOM     15  N   UNL     1      44.961   3.270  12.861  0.00  0.00    +0.000 NA
ENDBRANCH   9  10
ENDBRANCH   8   9
ENDBRANCH   5   8
ENDBRANCH   1   2
BRANCH   1  16
ATOM     16  N   UNL     1      50.760   4.378  19.641  0.00  0.00    +0.000 N 
ATOM     17  C   UNL     1      51.895   4.622  18.920  0.00  0.00    +0.000 C 
ATOM     18  O   UNL     1      52.013   5.608  18.197  0.00  0.00    +0.000 OA
ATOM     19  H   UNL     1      50.663   3.495  20.131  0.00  0.00    +0.000 HD
BRANCH  17  20
ATOM     20  C   UNL     1      52.980   3.645  19.067  0.00  0.00    +0.000 A 
ATOM     21  C   UNL     1      54.110   3.968  19.805  0.00  0.00    +0.000 A 
ATOM     22  S   UNL     1      55.273   2.721  19.857  0.00  0.00    +0.000 S 
ATOM     23  C   UNL     1      54.333   1.726  18.848  0.00  0.00    +0.000 A 
ATOM     24  N   UNL     1      54.787   0.508  18.444  0.00  0.00    +0.000 NA
ATOM     25  C   UNL     1      53.981  -0.126  17.653  0.00  0.00    +0.000 A 
ATOM     26  N   UNL     1      52.760   0.335  17.250  0.00  0.00    +0.000 N 
ATOM     27  C   UNL     1      52.242   1.533  17.670  0.00  0.00    +0.000 A 
ATOM     28  O   UNL     1      51.111   1.882  17.346  0.00  0.00    +0.000 OA
ATOM     29  C   UNL     1      53.124   2.314  18.519  0.00  0.00    +0.000 A 
ATOM     30  H   UNL     1      52.164  -0.224  16.659  0.00  0.00    +0.000 HD
ENDBRANCH  17  20
ENDBRANCH   1  16
BRANCH   1  31
ATOM     31  C   UNL     1      49.863   6.707  19.608  0.00  0.00    +0.000 C 
BRANCH  31  32
ATOM     32  N   UNL     1      48.882   7.496  20.365  0.00  0.00    +0.000 NA
ATOM     33  H   UNL     1      49.157   7.521  21.345  0.00  0.00    +0.000 HD
ATOM     34  H   UNL     1      47.980   7.022  20.330  0.00  0.00    +0.000 HD
ENDBRANCH  31  32
ENDBRANCH   1  31
TORSDOF 8
ENDMDL
