MODEL 1
REMARK VINA RESULT:    -8.052      0.000      0.000
REMARK INTER + INTRA:         -12.673
REMARK INTER:                 -12.053
REMARK INTRA:                  -0.620
REMARK UNBOUND:                -0.620
REMARK  Name = 
REMARK  11 active torsions:
REMARK  status: ('A' for Active; 'I' for Inactive)
REMARK    1  A    between atoms: C_1  and  C_2
REMARK    2  A    between atoms: C_2  and  C_3
REMARK    3  A    between atoms: C_2  and  C_4
REMARK    4  A    between atoms: C_2  and  N_6
REMARK    5  A    between atoms: C_4  and  O_5
REMARK    6  A    between atoms: N_6  and  C_7
REMARK    7  A    between atoms: C_7  and  C_8
REMARK    8  A    between atoms: C_11  and  C_12
REMARK    9  A    between atoms: C_12  and  O_13
REMARK   10  A    between atoms: O_13  and  C_14
REMARK   11  A    between atoms: C_18  and  C_19
REMARK                            x       y       z     vdW  Elec       q    Type
REMARK                         _______ _______ _______ _____ _____    ______ ____
ROOT
ATOM      1  C   UNL     1      46.516   4.551  13.934  0.00  0.00    +0.000 A 
ATOM      2  C   UNL     1      45.692   5.622  13.558  0.00  0.00    +0.000 A 
ATOM      3  C   UNL     1      44.687   5.443  12.609  0.00  0.00    +0.000 A 
ATOM      4  C   UNL     1      44.491   4.190  12.015  0.00  0.00    +0.000 A 
ATOM      5  C   UNL     1      45.348   3.134  12.347  0.00  0.00    +0.000 A 
ATOM      6  C   UNL     1      46.343   3.310  13.305  0.00  0.00    +0.000 A 
ENDROOT
BRANCH   1   7
ATOM      7  C   UNL     1      47.605   4.731  14.965  0.00  0.00    +0.000 C 
BRANCH   7   8
ATOM      8  N   UNL     1      48.037   3.451  15.529  0.00  0.00    +0.000 NA
ATOM      9  H   UNL     1      47.299   2.761  15.395  0.00  0.00    +0.000 HD
BRANCH   8  11
ATOM     10  C   UNL     1      47.262   2.853  17.745  0.00  0.00    +0.000 C 
ATOM     11  C   UNL     1      48.425   3.489  16.955  0.00  0.00    +0.000 C 
ATOM     12  C   UNL     1      48.583   4.942  17.446  0.00  0.00    +0.000 C 
BRANCH  11  13
ATOM     13  C   UNL     1      49.718   2.665  17.220  0.00  0.00    +0.000 C 
BRANCH  13  14
ATOM     14  O   UNL     1      49.989   1.723  16.184  0.00  0.00    +0.000 OA
ATOM     15  H   UNL     1      50.367   0.932  16.601  0.00  0.00    +0.000 HD
ENDBRANCH  13  14
ENDBRANCH  11  13
ENDBRANCH   8  11
ENDBRANCH   7   8
ENDBRANCH   1   7
BRANCH   4  16
ATOM     16  C   UNL     1      43.364   3.974  11.043  0.00  0.00    +0.000 C 
BRANCH  16  17
ATOM     17  O   UNL     1      43.685   2.890  10.175  0.00  0.00    +0.000 OA
BRANCH  17  18
ATOM     18  C   UNL     1      44.657   3.144   9.245  0.00  0.00    +0.000 A 
ATOM     19  C   UNL     1      45.026   4.407   8.777  0.00  0.00    +0.000 A 
ATOM     20  C   UNL     1      46.036   4.538   7.822  0.00  0.00    +0.000 A 
ATOM     21  C   UNL     1      46.695   3.409   7.343  0.00  0.00    +0.000 A 
ATOM     22  C   UNL     1      46.348   2.142   7.824  0.00  0.00    +0.000 A 
ATOM     23  C   UNL     1      45.309   2.009   8.753  0.00  0.00    +0.000 A 
BRANCH  22  24
ATOM     24  C   UNL     1      47.120   0.971   7.332  0.00  0.00    +0.000 C 
ATOM     25  N   UNL     1      46.727  -0.263   7.770  0.00  0.00    +0.000 N 
ATOM     26  O   UNL     1      48.102   1.100   6.615  0.00  0.00    +0.000 OA
ATOM     27  H   UNL     1      46.080  -0.389   8.535  0.00  0.00    +0.000 HD
ATOM     28  H   UNL     1      47.342  -1.035   7.544  0.00  0.00    +0.000 HD
ENDBRANCH  22  24
ENDBRANCH  17  18
ENDBRANCH  16  17
ENDBRANCH   4  16
TORSDOF 9
ENDMDL
MODEL 2
REMARK VINA RESULT:    -7.585      2.584      3.329
REMARK INTER + INTRA:         -11.974
REMARK INTER:                 -11.286
REMARK INTRA:                  -0.688
REMARK UNBOUND:                -0.620
REMARK  Name = 
REMARK  11 active torsions:
REMARK  status: ('A' for Active; 'I' for Inactive)
REMARK    1  A    between atoms: C_1  and  C_2
REMARK    2  A    between atoms: C_2  and  C_3
REMARK    3  A    between atoms: C_2  and  C_4
REMARK    4  A    between atoms: C_2  and  N_6
REMARK    5  A    between atoms: C_4  and  O_5
REMARK    6  A    between atoms: N_6  and  C_7
REMARK    7  A    between atoms: C_7  and  C_8
REMARK    8  A    between atoms: C_11  and  C_12
REMARK    9  A    between atoms: C_12  and  O_13
REMARK   10  A    between atoms: O_13  and  C_14
REMARK   11  A    between atoms: C_18  and  C_19
REMARK                            x       y       z     vdW  Elec       q    Type
REMARK                         _______ _______ _______ _____ _____    ______ ____
ROOT
ATOM      1  C   UNL     1      46.526   5.242  13.609  0.00  0.00    +0.000 A 
ATOM      2  C   UNL     1      45.457   6.031  13.161  0.00  0.00    +0.000 A 
ATOM      3  C   UNL     1      44.399   5.458  12.458  0.00  0.00    +0.000 A 
ATOM      4  C   UNL     1      44.394   4.084  12.185  0.00  0.00    +0.000 A 
ATOM      5  C   UNL     1      45.487   3.304  12.581  0.00  0.00    +0.000 A 
ATOM      6  C   UNL     1      46.537   3.875  13.295  0.00  0.00    +0.000 A 
ENDROOT
BRANCH   1   7
ATOM      7  C   UNL     1      47.676   5.851  14.376  0.00  0.00    +0.000 C 
BRANCH   7   8
ATOM      8  N   UNL     1      48.774   6.240  13.491  0.00  0.00    +0.000 NA
ATOM      9  H   UNL     1      49.652   5.890  13.873  0.00  0.00    +0.000 HD
BRANCH   8  11
ATOM     10  C   UNL     1      48.386   7.924  11.793  0.00  0.00    +0.000 C 
ATOM     11  C   UNL     1      48.892   7.691  13.231  0.00  0.00    +0.000 C 
ATOM     12  C   UNL     1      50.366   8.143  13.286  0.00  0.00    +0.000 C 
BRANCH  11  13
ATOM     13  C   UNL     1      48.015   8.522  14.211  0.00  0.00    +0.000 C 
BRANCH  13  14
ATOM     14  O   UNL     1      48.017   9.914  13.901  0.00  0.00    +0.000 OA
ATOM     15  H   UNL     1      47.098  10.176  13.729  0.00  0.00    +0.000 HD
ENDBRANCH  13  14
ENDBRANCH  11  13
ENDBRANCH   8  11
ENDBRANCH   7   8
ENDBRANCH   1   7
BRANCH   4  16
ATOM     16  C   UNL     1      43.223   3.448  11.489  0.00  0.00    +0.000 C 
BRANCH  16  17
ATOM     17  O   UNL     1      43.682   2.388  10.655  0.00  0.00    +0.000 OA
BRANCH  17  18
ATOM     18  C   UNL     1      44.462   2.764   9.593  0.00  0.00    +0.000 A 
ATOM     19  C   UNL     1      44.514   4.043   9.035  0.00  0.00    +0.000 A 
ATOM     20  C   UNL     1      45.351   4.304   7.948  0.00  0.00    +0.000 A 
ATOM     21  C   UNL     1      46.154   3.294   7.426  0.00  0.00    +0.000 A 
ATOM     22  C   UNL     1      46.125   2.016   7.995  0.00  0.00    +0.000 A 
ATOM     23  C   UNL     1      45.257   1.745   9.060  0.00  0.00    +0.000 A 
BRANCH  22  24
ATOM     24  C   UNL     1      47.045   0.985   7.447  0.00  0.00    +0.000 C 
ATOM     25  N   UNL     1      46.745  -0.322   7.712  0.00  0.00    +0.000 N 
ATOM     26  O   UNL     1      48.060   1.286   6.836  0.00  0.00    +0.000 OA
ATOM     27  H   UNL     1      46.058  -0.594   8.400  0.00  0.00    +0.000 HD
ATOM     28  H   UNL     1      47.449  -1.003   7.456  0.00  0.00    +0.000 HD
ENDBRANCH  22  24
ENDBRANCH  17  18
ENDBRANCH  16  17
ENDBRANCH   4  16
TORSDOF 9
ENDMDL
MODEL 3
REMARK VINA RESULT:    -7.417      1.803      2.367
REMARK INTER + INTRA:         -11.722
REMARK INTER:                 -10.755
REMARK INTRA:                  -0.967
REMARK UNBOUND:                -0.620
REMARK  Name = 
REMARK  11 active torsions:
REMARK  status: ('A' for Active; 'I' for Inactive)
REMARK    1  A    between atoms: C_1  and  C_2
REMARK    2  A    between atoms: C_2  and  C_3
REMARK    3  A    between atoms: C_2  and  C_4
REMARK    4  A    between atoms: C_2  and  N_6
REMARK    5  A    between atoms: C_4  and  O_5
REMARK    6  A    between atoms: N_6  and  C_7
REMARK    7  A    between atoms: C_7  and  C_8
REMARK    8  A    between atoms: C_11  and  C_12
REMARK    9  A    between atoms: C_12  and  O_13
REMARK   10  A    between atoms: O_13  and  C_14
REMARK   11  A    between atoms: C_18  and  C_19
REMARK                            x       y       z     vdW  Elec       q    Type
REMARK                         _______ _______ _______ _____ _____    ______ ____
ROOT
ATOM      1  C   UNL     1      47.278   5.838  13.770  0.00  0.00    +0.000 A 
ATOM      2  C   UNL     1      47.263   6.670  12.642  0.00  0.00    +0.000 A 
ATOM      3  C   UNL     1      46.296   6.503  11.652  0.00  0.00    +0.000 A 
ATOM      4  C   UNL     1      45.330   5.496  11.770  0.00  0.00    +0.000 A 
ATOM      5  C   UNL     1      45.378   4.628  12.867  0.00  0.00    +0.000 A 
ATOM      6  C   UNL     1      46.336   4.804  13.863  0.00  0.00    +0.000 A 
ENDROOT
BRANCH   1   7
ATOM      7  C   UNL     1      48.318   6.013  14.852  0.00  0.00    +0.000 C 
BRANCH   7   8
ATOM      8  N   UNL     1      48.266   4.930  15.835  0.00  0.00    +0.000 NA
ATOM      9  H   UNL     1      47.336   4.515  15.826  0.00  0.00    +0.000 HD
BRANCH   8  11
ATOM     10  C   UNL     1      48.824   6.845  17.210  0.00  0.00    +0.000 C 
ATOM     11  C   UNL     1      48.621   5.316  17.218  0.00  0.00    +0.000 C 
ATOM     12  C   UNL     1      49.955   4.671  17.645  0.00  0.00    +0.000 C 
BRANCH  11  13
ATOM     13  C   UNL     1      47.484   4.968  18.221  0.00  0.00    +0.000 C 
BRANCH  13  14
ATOM     14  O   UNL     1      46.683   3.872  17.782  0.00  0.00    +0.000 OA
ATOM     15  H   UNL     1      47.257   3.278  17.271  0.00  0.00    +0.000 HD
ENDBRANCH  13  14
ENDBRANCH  11  13
ENDBRANCH   8  11
ENDBRANCH   7   8
ENDBRANCH   1   7
BRANCH   4  16
ATOM     16  C   UNL     1      44.243   5.355  10.740  0.00  0.00    +0.000 C 
BRANCH  16  17
ATOM     17  O   UNL     1      44.826   5.220   9.447  0.00  0.00    +0.000 OA
BRANCH  17  18
ATOM     18  C   UNL     1      45.115   3.938   9.059  0.00  0.00    +0.000 A 
ATOM     19  C   UNL     1      44.500   2.783   9.544  0.00  0.00    +0.000 A 
ATOM     20  C   UNL     1      44.885   1.527   9.070  0.00  0.00    +0.000 A 
ATOM     21  C   UNL     1      45.872   1.422   8.094  0.00  0.00    +0.000 A 
ATOM     22  C   UNL     1      46.477   2.576   7.585  0.00  0.00    +0.000 A 
ATOM     23  C   UNL     1      46.117   3.832   8.090  0.00  0.00    +0.000 A 
BRANCH  22  24
ATOM     24  C   UNL     1      47.480   2.421   6.499  0.00  0.00    +0.000 C 
ATOM     25  N   UNL     1      47.353   3.240   5.412  0.00  0.00    +0.000 N 
ATOM     26  O   UNL     1      48.349   1.562   6.542  0.00  0.00    +0.000 OA
ATOM     27  H   UNL     1      46.524   3.790   5.238  0.00  0.00    +0.000 HD
ATOM     28  H   UNL     1      47.951   3.030   4.623  0.00  0.00    +0.000 HD
ENDBRANCH  22  24
ENDBRANCH  17  18
ENDBRANCH  16  17
ENDBRANCH   4  16
TORSDOF 9
ENDMDL
MODEL 4
REMARK VINA RESULT:    -7.350      2.818      3.578
REMARK INTER + INTRA:         -11.622
REMARK INTER:                 -10.572
REMARK INTRA:                  -1.051
REMARK UNBOUND:                -0.620
REMARK  Name = 
REMARK  11 active torsions:
REMARK  status: ('A' for Active; 'I' for Inactive)
REMARK    1  A    between atoms: C_1  and  C_2
REMARK    2  A    between atoms: C_2  and  C_3
REMARK    3  A    between atoms: C_2  and  C_4
REMARK    4  A    between atoms: C_2  and  N_6
REMARK    5  A    between atoms: C_4  and  O_5
REMARK    6  A    between atoms: N_6  and  C_7
REMARK    7  A    between atoms: C_7  and  C_8
REMARK    8  A    between atoms: C_11  and  C_12
REMARK    9  A    between atoms: C_12  and  O_13
REMARK   10  A    between atoms: O_13  and  C_14
REMARK   11  A    between atoms: C_18  and  C_19
REMARK                            x       y       z     vdW  Elec       q    Type
REMARK                         _______ _______ _______ _____ _____    ______ ____
ROOT
ATOM      1  C   UNL     1      46.837   6.053  13.032  0.00  0.00    +0.000 A 
ATOM      2  C   UNL     1      46.652   6.632  11.767  0.00  0.00    +0.000 A 
ATOM      3  C   UNL     1      45.652   6.166  10.916  0.00  0.00    +0.000 A 
ATOM      4  C   UNL     1      44.821   5.110  11.310  0.00  0.00    +0.000 A 
ATOM      5  C   UNL     1      45.040   4.494  12.549  0.00  0.00    +0.000 A 
ATOM      6  C   UNL     1      46.031   4.969  13.405  0.00  0.00    +0.000 A 
ENDROOT
BRANCH   1   7
ATOM      7  C   UNL     1      47.914   6.552  13.966  0.00  0.00    +0.000 C 
BRANCH   7   8
ATOM      8  N   UNL     1      49.221   6.600  13.311  0.00  0.00    +0.000 NA
ATOM      9  H   UNL     1      49.856   5.961  13.786  0.00  0.00    +0.000 HD
BRANCH   8  11
ATOM     10  C   UNL     1      48.763   8.949  13.686  0.00  0.00    +0.000 C 
ATOM     11  C   UNL     1      49.839   7.941  13.232  0.00  0.00    +0.000 C 
ATOM     12  C   UNL     1      50.219   8.289  11.778  0.00  0.00    +0.000 C 
BRANCH  11  13
ATOM     13  C   UNL     1      51.069   8.064  14.176  0.00  0.00    +0.000 C 
BRANCH  13  14
ATOM     14  O   UNL     1      51.182   6.961  15.074  0.00  0.00    +0.000 OA
ATOM     15  H   UNL     1      50.889   7.266  15.948  0.00  0.00    +0.000 HD
ENDBRANCH  13  14
ENDBRANCH  11  13
ENDBRANCH   8  11
ENDBRANCH   7   8
ENDBRANCH   1   7
BRANCH   4  16
ATOM     16  C   UNL     1      43.696   4.650  10.425  0.00  0.00    +0.000 C 
BRANCH  16  17
ATOM     17  O   UNL     1      44.140   4.613   9.071  0.00  0.00    +0.000 OA
BRANCH  17  18
ATOM     18  C   UNL     1      44.823   3.484   8.702  0.00  0.00    +0.000 A 
ATOM     19  C   UNL     1      44.645   2.211   9.246  0.00  0.00    +0.000 A 
ATOM     20  C   UNL     1      45.407   1.135   8.786  0.00  0.00    +0.000 A 
ATOM     21  C   UNL     1      46.336   1.322   7.767  0.00  0.00    +0.000 A 
ATOM     22  C   UNL     1      46.504   2.591   7.200  0.00  0.00    +0.000 A 
ATOM     23  C   UNL     1      45.767   3.676   7.689  0.00  0.00    +0.000 A 
BRANCH  22  24
ATOM     24  C   UNL     1      47.462   2.732   6.072  0.00  0.00    +0.000 C 
ATOM     25  N   UNL     1      48.780   2.493   6.341  0.00  0.00    +0.000 N 
ATOM     26  O   UNL     1      47.102   3.102   4.964  0.00  0.00    +0.000 OA
ATOM     27  H   UNL     1      49.139   2.417   7.282  0.00  0.00    +0.000 HD
ATOM     28  H   UNL     1      49.436   2.729   5.605  0.00  0.00    +0.000 HD
ENDBRANCH  22  24
ENDBRANCH  17  18
ENDBRANCH  16  17
ENDBRANCH   4  16
TORSDOF 9
ENDMDL
MODEL 5
REMARK VINA RESULT:    -6.691      2.183      2.828
REMARK INTER + INTRA:         -10.635
REMARK INTER:                  -9.620
REMARK INTRA:                  -1.015
REMARK UNBOUND:                -0.620
REMARK  Name = 
REMARK  11 active torsions:
REMARK  status: ('A' for Active; 'I' for Inactive)
REMARK    1  A    between atoms: C_1  and  C_2
REMARK    2  A    between atoms: C_2  and  C_3
REMARK    3  A    between atoms: C_2  and  C_4
REMARK    4  A    between atoms: C_2  and  N_6
REMARK    5  A    between atoms: C_4  and  O_5
REMARK    6  A    between atoms: N_6  and  C_7
REMARK    7  A    between atoms: C_7  and  C_8
REMARK    8  A    between atoms: C_11  and  C_12
REMARK    9  A    between atoms: C_12  and  O_13
REMARK   10  A    between atoms: O_13  and  C_14
REMARK   11  A    between atoms: C_18  and  C_19
REMARK                            x       y       z     vdW  Elec       q    Type
REMARK                         _______ _______ _______ _____ _____    ______ ____
ROOT
ATOM      1  C   UNL     1      47.463   6.883  13.562  0.00  0.00    +0.000 A 
ATOM      2  C   UNL     1      47.167   5.515  13.475  0.00  0.00    +0.000 A 
ATOM      3  C   UNL     1      46.178   5.059  12.607  0.00  0.00    +0.000 A 
ATOM      4  C   UNL     1      45.462   5.963  11.812  0.00  0.00    +0.000 A 
ATOM      5  C   UNL     1      45.717   7.334  11.937  0.00  0.00    +0.000 A 
ATOM      6  C   UNL     1      46.715   7.789  12.796  0.00  0.00    +0.000 A 
ENDROOT
BRANCH   1   7
ATOM      7  C   UNL     1      48.537   7.390  14.496  0.00  0.00    +0.000 C 
BRANCH   7   8
ATOM      8  N   UNL     1      49.214   6.294  15.190  0.00  0.00    +0.000 NA
ATOM      9  H   UNL     1      48.786   5.411  14.918  0.00  0.00    +0.000 HD
BRANCH   8  11
ATOM     10  C   UNL     1      48.350   5.253  17.200  0.00  0.00    +0.000 C 
ATOM     11  C   UNL     1      49.234   6.399  16.665  0.00  0.00    +0.000 C 
ATOM     12  C   UNL     1      48.609   7.728  17.133  0.00  0.00    +0.000 C 
BRANCH  11  13
ATOM     13  C   UNL     1      50.673   6.226  17.233  0.00  0.00    +0.000 C 
BRANCH  13  14
ATOM     14  O   UNL     1      51.678   6.384  16.234  0.00  0.00    +0.000 OA
ATOM     15  H   UNL     1      51.597   7.285  15.879  0.00  0.00    +0.000 HD
ENDBRANCH  13  14
ENDBRANCH  11  13
ENDBRANCH   8  11
ENDBRANCH   7   8
ENDBRANCH   1   7
BRANCH   4  16
ATOM     16  C   UNL     1      44.443   5.471  10.822  0.00  0.00    +0.000 C 
BRANCH  16  17
ATOM     17  O   UNL     1      45.053   5.325   9.542  0.00  0.00    +0.000 OA
BRANCH  17  18
ATOM     18  C   UNL     1      45.256   4.036   9.126  0.00  0.00    +0.000 A 
ATOM     19  C   UNL     1      44.571   2.912   9.594  0.00  0.00    +0.000 A 
ATOM     20  C   UNL     1      44.871   1.644   9.091  0.00  0.00    +0.000 A 
ATOM     21  C   UNL     1      45.842   1.496   8.104  0.00  0.00    +0.000 A 
ATOM     22  C   UNL     1      46.516   2.620   7.613  0.00  0.00    +0.000 A 
ATOM     23  C   UNL     1      46.242   3.885   8.146  0.00  0.00    +0.000 A 
BRANCH  22  24
ATOM     24  C   UNL     1      47.498   2.423   6.515  0.00  0.00    +0.000 C 
ATOM     25  N   UNL     1      47.292   3.126   5.361  0.00  0.00    +0.000 N 
ATOM     26  O   UNL     1      48.420   1.625   6.610  0.00  0.00    +0.000 OA
ATOM     27  H   UNL     1      46.426   3.606   5.163  0.00  0.00    +0.000 HD
ATOM     28  H   UNL     1      47.882   2.879   4.576  0.00  0.00    +0.000 HD
ENDBRANCH  22  24
ENDBRANCH  17  18
ENDBRANCH  16  17
ENDBRANCH   4  16
TORSDOF 9
ENDMDL
MODEL 6
REMARK VINA RESULT:    -6.443      2.473      3.068
REMARK INTER + INTRA:         -10.265
REMARK INTER:                  -9.982
REMARK INTRA:                  -0.283
REMARK UNBOUND:                -0.620
REMARK  Name = 
REMARK  11 active torsions:
REMARK  status: ('A' for Active; 'I' for Inactive)
REMARK    1  A    between atoms: C_1  and  C_2
REMARK    2  A    between atoms: C_2  and  C_3
REMARK    3  A    between atoms: C_2  and  C_4
REMARK    4  A    between atoms: C_2  and  N_6
REMARK    5  A    between atoms: C_4  and  O_5
REMARK    6  A    between atoms: N_6  and  C_7
REMARK    7  A    between atoms: C_7  and  C_8
REMARK    8  A    between atoms: C_11  and  C_12
REMARK    9  A    between atoms: C_12  and  O_13
REMARK   10  A    between atoms: O_13  and  C_14
REMARK   11  A    between atoms: C_18  and  C_19
REMARK                            x       y       z     vdW  Elec       q    Type
REMARK                         _______ _______ _______ _____ _____    ______ ____
ROOT
ATOM      1  C   UNL     1      46.942   5.996  13.207  0.00  0.00    +0.000 A 
ATOM      2  C   UNL     1      46.657   4.645  13.452  0.00  0.00    +0.000 A 
ATOM      3  C   UNL     1      45.519   4.052  12.909  0.00  0.00    +0.000 A 
ATOM      4  C   UNL     1      44.641   4.800  12.115  0.00  0.00    +0.000 A 
ATOM      5  C   UNL     1      44.894   6.163  11.915  0.00  0.00    +0.000 A 
ATOM      6  C   UNL     1      46.039   6.752  12.447  0.00  0.00    +0.000 A 
ENDROOT
BRANCH   1   7
ATOM      7  C   UNL     1      48.175   6.648  13.785  0.00  0.00    +0.000 C 
BRANCH   7   8
ATOM      8  N   UNL     1      47.934   7.168  15.132  0.00  0.00    +0.000 NA
ATOM      9  H   UNL     1      47.305   7.968  15.074  0.00  0.00    +0.000 HD
BRANCH   8  11
ATOM     10  C   UNL     1      50.036   8.354  14.920  0.00  0.00    +0.000 C 
ATOM     11  C   UNL     1      49.146   7.547  15.889  0.00  0.00    +0.000 C 
ATOM     12  C   UNL     1      49.941   6.298  16.320  0.00  0.00    +0.000 C 
BRANCH  11  13
ATOM     13  C   UNL     1      48.802   8.442  17.114  0.00  0.00    +0.000 C 
BRANCH  13  14
ATOM     14  O   UNL     1      49.751   9.488  17.312  0.00  0.00    +0.000 OA
ATOM     15  H   UNL     1      49.410  10.061  18.018  0.00  0.00    +0.000 HD
ENDBRANCH  13  14
ENDBRANCH  11  13
ENDBRANCH   8  11
ENDBRANCH   7   8
ENDBRANCH   1   7
BRANCH   4  16
ATOM     16  C   UNL     1      43.450   4.149  11.469  0.00  0.00    +0.000 C 
BRANCH  16  17
ATOM     17  O   UNL     1      43.870   2.991  10.752  0.00  0.00    +0.000 OA
BRANCH  17  18
ATOM     18  C   UNL     1      44.695   3.222   9.684  0.00  0.00    +0.000 A 
ATOM     19  C   UNL     1      44.970   4.471   9.123  0.00  0.00    +0.000 A 
ATOM     20  C   UNL     1      45.831   4.579   8.029  0.00  0.00    +0.000 A 
ATOM     21  C   UNL     1      46.436   3.441   7.502  0.00  0.00    +0.000 A 
ATOM     22  C   UNL     1      46.184   2.188   8.073  0.00  0.00    +0.000 A 
ATOM     23  C   UNL     1      45.291   2.078   9.145  0.00  0.00    +0.000 A 
BRANCH  22  24
ATOM     24  C   UNL     1      46.901   1.010   7.519  0.00  0.00    +0.000 C 
ATOM     25  N   UNL     1      47.733   1.230   6.457  0.00  0.00    +0.000 N 
ATOM     26  O   UNL     1      46.715  -0.119   7.950  0.00  0.00    +0.000 OA
ATOM     27  H   UNL     1      47.731   2.093   5.933  0.00  0.00    +0.000 HD
ATOM     28  H   UNL     1      48.103   0.404   6.002  0.00  0.00    +0.000 HD
ENDBRANCH  22  24
ENDBRANCH  17  18
ENDBRANCH  16  17
ENDBRANCH   4  16
TORSDOF 9
ENDMDL
MODEL 7
REMARK VINA RESULT:    -6.300      1.909      2.926
REMARK INTER + INTRA:         -10.050
REMARK INTER:                  -9.512
REMARK INTRA:                  -0.538
REMARK UNBOUND:                -0.620
REMARK  Name = 
REMARK  11 active torsions:
REMARK  status: ('A' for Active; 'I' for Inactive)
REMARK    1  A    between atoms: C_1  and  C_2
REMARK    2  A    between atoms: C_2  and  C_3
REMARK    3  A    between atoms: C_2  and  C_4
REMARK    4  A    between atoms: C_2  and  N_6
REMARK    5  A    between atoms: C_4  and  O_5
REMARK    6  A    between atoms: N_6  and  C_7
REMARK    7  A    between atoms: C_7  and  C_8
REMARK    8  A    between atoms: C_11  and  C_12
REMARK    9  A    between atoms: C_12  and  O_13
REMARK   10  A    between atoms: O_13  and  C_14
REMARK   11  A    between atoms: C_18  and  C_19
REMARK                            x       y       z     vdW  Elec       q    Type
REMARK                         _______ _______ _______ _____ _____    ______ ____
ROOT
ATOM      1  C   UNL     1      48.067   6.195  15.219  0.00  0.00    +0.000 A 
ATOM      2  C   UNL     1      48.231   7.461  14.640  0.00  0.00    +0.000 A 
ATOM      3  C   UNL     1      47.671   7.748  13.396  0.00  0.00    +0.000 A 
ATOM      4  C   UNL     1      46.941   6.772  12.707  0.00  0.00    +0.000 A 
ATOM      5  C   UNL     1      46.824   5.490  13.258  0.00  0.00    +0.000 A 
ATOM      6  C   UNL     1      47.372   5.208  14.507  0.00  0.00    +0.000 A 
ENDROOT
BRANCH   1   7
ATOM      7  C   UNL     1      48.665   5.873  16.569  0.00  0.00    +0.000 C 
BRANCH   7   8
ATOM      8  N   UNL     1      49.510   4.679  16.518  0.00  0.00    +0.000 NA
ATOM      9  H   UNL     1      49.473   4.284  15.580  0.00  0.00    +0.000 HD
BRANCH   8  11
ATOM     10  C   UNL     1      47.706   3.246  17.268  0.00  0.00    +0.000 C 
ATOM     11  C   UNL     1      49.181   3.631  17.508  0.00  0.00    +0.000 C 
ATOM     12  C   UNL     1      49.292   4.177  18.947  0.00  0.00    +0.000 C 
BRANCH  11  13
ATOM     13  C   UNL     1      50.065   2.366  17.319  0.00  0.00    +0.000 C 
BRANCH  13  14
ATOM     14  O   UNL     1      49.768   1.665  16.113  0.00  0.00    +0.000 OA
ATOM     15  H   UNL     1      49.031   1.061  16.300  0.00  0.00    +0.000 HD
ENDBRANCH  13  14
ENDBRANCH  11  13
ENDBRANCH   8  11
ENDBRANCH   7   8
ENDBRANCH   1   7
BRANCH   4  16
ATOM     16  C   UNL     1      46.275   7.097  11.398  0.00  0.00    +0.000 C 
BRANCH  16  17
ATOM     17  O   UNL     1      44.902   6.721  11.456  0.00  0.00    +0.000 OA
BRANCH  17  18
ATOM     18  C   UNL     1      44.618   5.449  11.033  0.00  0.00    +0.000 A 
ATOM     19  C   UNL     1      43.695   4.583  11.621  0.00  0.00    +0.000 A 
ATOM     20  C   UNL     1      43.494   3.304  11.097  0.00  0.00    +0.000 A 
ATOM     21  C   UNL     1      44.201   2.893   9.970  0.00  0.00    +0.000 A 
ATOM     22  C   UNL     1      45.111   3.764   9.360  0.00  0.00    +0.000 A 
ATOM     23  C   UNL     1      45.339   5.031   9.910  0.00  0.00    +0.000 A 
BRANCH  22  24
ATOM     24  C   UNL     1      45.796   3.306   8.123  0.00  0.00    +0.000 C 
ATOM     25  N   UNL     1      46.166   1.992   8.066  0.00  0.00    +0.000 N 
ATOM     26  O   UNL     1      46.072   4.078   7.216  0.00  0.00    +0.000 OA
ATOM     27  H   UNL     1      46.166   1.390   8.877  0.00  0.00    +0.000 HD
ATOM     28  H   UNL     1      46.754   1.726   7.285  0.00  0.00    +0.000 HD
ENDBRANCH  22  24
ENDBRANCH  17  18
ENDBRANCH  16  17
ENDBRANCH   4  16
TORSDOF 9
ENDMDL
MODEL 8
REMARK VINA RESULT:    -6.298      3.031      8.372
REMARK INTER + INTRA:         -10.048
REMARK INTER:                  -8.853
REMARK INTRA:                  -1.195
REMARK UNBOUND:                -0.620
REMARK  Name = 
REMARK  11 active torsions:
REMARK  status: ('A' for Active; 'I' for Inactive)
REMARK    1  A    between atoms: C_1  and  C_2
REMARK    2  A    between atoms: C_2  and  C_3
REMARK    3  A    between atoms: C_2  and  C_4
REMARK    4  A    between atoms: C_2  and  N_6
REMARK    5  A    between atoms: C_4  and  O_5
REMARK    6  A    between atoms: N_6  and  C_7
REMARK    7  A    between atoms: C_7  and  C_8
REMARK    8  A    between atoms: C_11  and  C_12
REMARK    9  A    between atoms: C_12  and  O_13
REMARK   10  A    between atoms: O_13  and  C_14
REMARK   11  A    between atoms: C_18  and  C_19
REMARK                            x       y       z     vdW  Elec       q    Type
REMARK                         _______ _______ _______ _____ _____    ______ ____
ROOT
ATOM      1  C   UNL     1      46.161   7.167  12.429  0.00  0.00    +0.000 A 
ATOM      2  C   UNL     1      47.303   6.355  12.381  0.00  0.00    +0.000 A 
ATOM      3  C   UNL     1      48.451   6.705  13.089  0.00  0.00    +0.000 A 
ATOM      4  C   UNL     1      48.480   7.877  13.855  0.00  0.00    +0.000 A 
ATOM      5  C   UNL     1      47.361   8.718  13.860  0.00  0.00    +0.000 A 
ATOM      6  C   UNL     1      46.209   8.360  13.163  0.00  0.00    +0.000 A 
ENDROOT
BRANCH   1   7
ATOM      7  C   UNL     1      44.909   6.795  11.670  0.00  0.00    +0.000 C 
BRANCH   7   8
ATOM      8  N   UNL     1      45.174   5.782  10.648  0.00  0.00    +0.000 NA
ATOM      9  H   UNL     1      45.019   6.188   9.727  0.00  0.00    +0.000 HD
BRANCH   8  11
ATOM     10  C   UNL     1      44.262   3.946   9.357  0.00  0.00    +0.000 C 
ATOM     11  C   UNL     1      44.388   4.536  10.777  0.00  0.00    +0.000 C 
ATOM     12  C   UNL     1      42.962   4.832  11.287  0.00  0.00    +0.000 C 
BRANCH  11  13
ATOM     13  C   UNL     1      45.103   3.497  11.687  0.00  0.00    +0.000 C 
BRANCH  13  14
ATOM     14  O   UNL     1      44.190   2.749  12.487  0.00  0.00    +0.000 OA
ATOM     15  H   UNL     1      43.601   2.268  11.883  0.00  0.00    +0.000 HD
ENDBRANCH  13  14
ENDBRANCH  11  13
ENDBRANCH   8  11
ENDBRANCH   7   8
ENDBRANCH   1   7
BRANCH   4  16
ATOM     16  C   UNL     1      49.691   8.223  14.677  0.00  0.00    +0.000 C 
BRANCH  16  17
ATOM     17  O   UNL     1      50.063   7.102  15.474  0.00  0.00    +0.000 OA
BRANCH  17  18
ATOM     18  C   UNL     1      49.268   6.859  16.563  0.00  0.00    +0.000 A 
ATOM     19  C   UNL     1      48.825   7.817  17.477  0.00  0.00    +0.000 A 
ATOM     20  C   UNL     1      48.016   7.445  18.552  0.00  0.00    +0.000 A 
ATOM     21  C   UNL     1      47.630   6.116  18.708  0.00  0.00    +0.000 A 
ATOM     22  C   UNL     1      48.050   5.154  17.783  0.00  0.00    +0.000 A 
ATOM     23  C   UNL     1      48.893   5.523  16.728  0.00  0.00    +0.000 A 
BRANCH  22  24
ATOM     24  C   UNL     1      47.562   3.760  17.953  0.00  0.00    +0.000 C 
ATOM     25  N   UNL     1      48.204   2.984  18.877  0.00  0.00    +0.000 N 
ATOM     26  O   UNL     1      46.666   3.302  17.259  0.00  0.00    +0.000 OA
ATOM     27  H   UNL     1      49.085   3.249  19.294  0.00  0.00    +0.000 HD
ATOM     28  H   UNL     1      47.958   2.001  18.884  0.00  0.00    +0.000 HD
ENDBRANCH  22  24
ENDBRANCH  17  18
ENDBRANCH  16  17
ENDBRANCH   4  16
TORSDOF 9
ENDMDL
MODEL 9
REMARK VINA RESULT:    -6.077      2.489      3.865
REMARK INTER + INTRA:          -9.717
REMARK INTER:                  -8.549
REMARK INTRA:                  -1.168
REMARK UNBOUND:                -0.620
REMARK  Name = 
REMARK  11 active torsions:
REMARK  status: ('A' for Active; 'I' for Inactive)
REMARK    1  A    between atoms: C_1  and  C_2
REMARK    2  A    between atoms: C_2  and  C_3
REMARK    3  A    between atoms: C_2  and  C_4
REMARK    4  A    between atoms: C_2  and  N_6
REMARK    5  A    between atoms: C_4  and  O_5
REMARK    6  A    between atoms: N_6  and  C_7
REMARK    7  A    between atoms: C_7  and  C_8
REMARK    8  A    between atoms: C_11  and  C_12
REMARK    9  A    between atoms: C_12  and  O_13
REMARK   10  A    between atoms: O_13  and  C_14
REMARK   11  A    between atoms: C_18  and  C_19
REMARK                            x       y       z     vdW  Elec       q    Type
REMARK                         _______ _______ _______ _____ _____    ______ ____
ROOT
ATOM      1  C   UNL     1      48.335   7.635  14.147  0.00  0.00    +0.000 A 
ATOM      2  C   UNL     1      48.301   6.568  13.237  0.00  0.00    +0.000 A 
ATOM      3  C   UNL     1      47.288   6.483  12.284  0.00  0.00    +0.000 A 
ATOM      4  C   UNL     1      46.287   7.461  12.225  0.00  0.00    +0.000 A 
ATOM      5  C   UNL     1      46.287   8.496  13.168  0.00  0.00    +0.000 A 
ATOM      6  C   UNL     1      47.308   8.588  14.112  0.00  0.00    +0.000 A 
ENDROOT
BRANCH   1   7
ATOM      7  C   UNL     1      49.430   7.742  15.181  0.00  0.00    +0.000 C 
BRANCH   7   8
ATOM      8  N   UNL     1      49.975   6.430  15.532  0.00  0.00    +0.000 NA
ATOM      9  H   UNL     1      49.697   5.752  14.824  0.00  0.00    +0.000 HD
BRANCH   8  11
ATOM     10  C   UNL     1      48.307   5.103  16.684  0.00  0.00    +0.000 C 
ATOM     11  C   UNL     1      49.597   5.927  16.871  0.00  0.00    +0.000 C 
ATOM     12  C   UNL     1      49.271   7.093  17.827  0.00  0.00    +0.000 C 
BRANCH  11  13
ATOM     13  C   UNL     1      50.697   5.004  17.469  0.00  0.00    +0.000 C 
BRANCH  13  14
ATOM     14  O   UNL     1      50.537   3.640  17.083  0.00  0.00    +0.000 OA
ATOM     15  H   UNL     1      50.635   3.597  16.117  0.00  0.00    +0.000 HD
ENDBRANCH  13  14
ENDBRANCH  11  13
ENDBRANCH   8  11
ENDBRANCH   7   8
ENDBRANCH   1   7
BRANCH   4  16
ATOM     16  C   UNL     1      45.233   7.413  11.155  0.00  0.00    +0.000 C 
BRANCH  16  17
ATOM     17  O   UNL     1      44.027   6.879  11.697  0.00  0.00    +0.000 OA
BRANCH  17  18
ATOM     18  C   UNL     1      43.942   5.512  11.720  0.00  0.00    +0.000 A 
ATOM     19  C   UNL     1      43.565   4.739  12.820  0.00  0.00    +0.000 A 
ATOM     20  C   UNL     1      43.518   3.347  12.720  0.00  0.00    +0.000 A 
ATOM     21  C   UNL     1      43.828   2.722  11.515  0.00  0.00    +0.000 A 
ATOM     22  C   UNL     1      44.184   3.491  10.401  0.00  0.00    +0.000 A 
ATOM     23  C   UNL     1      44.268   4.885  10.514  0.00  0.00    +0.000 A 
BRANCH  22  24
ATOM     24  C   UNL     1      44.445   2.787   9.118  0.00  0.00    +0.000 C 
ATOM     25  N   UNL     1      44.490   3.552   7.986  0.00  0.00    +0.000 N 
ATOM     26  O   UNL     1      44.557   1.571   9.061  0.00  0.00    +0.000 OA
ATOM     27  H   UNL     1      44.173   4.511   7.963  0.00  0.00    +0.000 HD
ATOM     28  H   UNL     1      44.527   3.049   7.108  0.00  0.00    +0.000 HD
ENDBRANCH  22  24
ENDBRANCH  17  18
ENDBRANCH  16  17
ENDBRANCH   4  16
TORSDOF 9
ENDMDL
