MODEL 1
REMARK VINA RESULT:    -8.905      0.000      0.000
REMARK INTER + INTRA:         -11.511
REMARK INTER:                 -10.988
REMARK INTRA:                  -0.523
REMARK UNBOUND:                -0.523
REMARK  Name = 
REMARK  4 active torsions:
REMARK  status: ('A' for Active; 'I' for Inactive)
REMARK    1  A    between atoms: C_2  and  C_4
REMARK    2  A    between atoms: N_8  and  C_9
REMARK    3  A    between atoms: C_9  and  C_10
REMARK    4  A    between atoms: C_14  and  C_15
REMARK                            x       y       z     vdW  Elec       q    Type
REMARK                         _______ _______ _______ _____ _____    ______ ____
ROOT
ATOM      1  C   UNL     1      43.493   3.669  11.225  0.00  0.00    +0.000 C 
ENDROOT
BRANCH   1   6
ATOM      2  C   UNL     1      46.600   2.504   7.259  0.00  0.00    +0.000 A 
ATOM      3  C   UNL     1      46.068   3.726   7.653  0.00  0.00    +0.000 A 
ATOM      4  C   UNL     1      45.242   3.778   8.776  0.00  0.00    +0.000 A 
ATOM      5  C   UNL     1      44.961   2.614   9.482  0.00  0.00    +0.000 A 
ATOM      6  N   UNL     1      44.196   2.572  10.611  0.00  0.00    +0.000 N 
ATOM      7  N   UNL     1      45.447   1.420   9.089  0.00  0.00    +0.000 NA
ATOM      8  C   UNL     1      46.247   1.383   7.990  0.00  0.00    +0.000 A 
ATOM      9  H   UNL     1      44.032   1.634  10.952  0.00  0.00    +0.000 HD
BRANCH   2  11
ATOM     10  N   UNL     1      47.356   3.258   5.080  0.00  0.00    +0.000 N 
ATOM     11  C   UNL     1      47.500   2.356   6.099  0.00  0.00    +0.000 C 
ATOM     12  O   UNL     1      48.364   1.490   6.062  0.00  0.00    +0.000 OA
ATOM     13  H   UNL     1      48.046   3.214   4.341  0.00  0.00    +0.000 HD
ATOM     14  H   UNL     1      46.842   4.122   5.186  0.00  0.00    +0.000 HD
ENDBRANCH   2  11
ENDBRANCH   1   6
BRANCH   1  15
ATOM     15  C   UNL     1      44.387   4.783  11.725  0.00  0.00    +0.000 A 
ATOM     16  C   UNL     1      44.342   6.094  11.241  0.00  0.00    +0.000 A 
ATOM     17  C   UNL     1      45.171   7.076  11.782  0.00  0.00    +0.000 A 
ATOM     18  C   UNL     1      46.048   6.763  12.823  0.00  0.00    +0.000 A 
ATOM     19  C   UNL     1      46.119   5.463  13.350  0.00  0.00    +0.000 A 
ATOM     20  C   UNL     1      45.284   4.487  12.772  0.00  0.00    +0.000 A 
BRANCH  19  21
ATOM     21  C   UNL     1      46.998   5.135  14.491  0.00  0.00    +0.000 A 
ATOM     22  C   UNL     1      48.041   5.982  14.891  0.00  0.00    +0.000 A 
ATOM     23  N   UNL     1      48.869   5.765  15.945  0.00  0.00    +0.000 NA
ATOM     24  C   UNL     1      48.649   4.640  16.658  0.00  0.00    +0.000 A 
ATOM     25  C   UNL     1      47.649   3.736  16.357  0.00  0.00    +0.000 A 
ATOM     26  F   UNL     1      47.470   2.641  17.105  0.00  0.00    +0.000 F 
ATOM     27  C   UNL     1      46.822   3.978  15.265  0.00  0.00    +0.000 A 
ENDBRANCH  19  21
ENDBRANCH   1  15
TORSDOF 4
ENDMDL
MODEL 2
REMARK VINA RESULT:    -7.839      3.687      7.296
REMARK INTER + INTRA:         -10.196
REMARK INTER:                  -9.475
REMARK INTRA:                  -0.721
REMARK UNBOUND:                -0.523
REMARK  Name = 
REMARK  4 active torsions:
REMARK  status: ('A' for Active; 'I' for Inactive)
REMARK    1  A    between atoms: C_2  and  C_4
REMARK    2  A    between atoms: N_8  and  C_9
REMARK    3  A    between atoms: C_9  and  C_10
REMARK    4  A    between atoms: C_14  and  C_15
REMARK                            x       y       z     vdW  Elec       q    Type
REMARK                         _______ _______ _______ _____ _____    ______ ____
ROOT
ATOM      1  C   UNL     1      44.632   6.515  12.289  0.00  0.00    +0.000 C 
ENDROOT
BRANCH   1   6
ATOM      2  C   UNL     1      49.595   7.912  12.692  0.00  0.00    +0.000 A 
ATOM      3  C   UNL     1      48.737   7.954  11.599  0.00  0.00    +0.000 A 
ATOM      4  C   UNL     1      47.422   7.510  11.749  0.00  0.00    +0.000 A 
ATOM      5  C   UNL     1      46.989   7.034  12.981  0.00  0.00    +0.000 A 
ATOM      6  N   UNL     1      45.715   6.615  13.232  0.00  0.00    +0.000 N 
ATOM      7  N   UNL     1      47.823   6.961  14.037  0.00  0.00    +0.000 NA
ATOM      8  C   UNL     1      49.102   7.392  13.876  0.00  0.00    +0.000 A 
ATOM      9  H   UNL     1      45.594   6.230  14.160  0.00  0.00    +0.000 HD
BRANCH   2  11
ATOM     10  N   UNL     1      51.842   7.930  13.608  0.00  0.00    +0.000 N 
ATOM     11  C   UNL     1      50.993   8.380  12.634  0.00  0.00    +0.000 C 
ATOM     12  O   UNL     1      51.389   9.107  11.733  0.00  0.00    +0.000 OA
ATOM     13  H   UNL     1      52.819   8.170  13.497  0.00  0.00    +0.000 HD
ATOM     14  H   UNL     1      51.620   7.144  14.203  0.00  0.00    +0.000 HD
ENDBRANCH   2  11
ENDBRANCH   1   6
BRANCH   1  15
ATOM     15  C   UNL     1      44.380   5.116  11.772  0.00  0.00    +0.000 A 
ATOM     16  C   UNL     1      43.463   4.227  12.344  0.00  0.00    +0.000 A 
ATOM     17  C   UNL     1      43.257   2.967  11.784  0.00  0.00    +0.000 A 
ATOM     18  C   UNL     1      43.956   2.582  10.638  0.00  0.00    +0.000 A 
ATOM     19  C   UNL     1      44.878   3.445  10.022  0.00  0.00    +0.000 A 
ATOM     20  C   UNL     1      45.080   4.704  10.619  0.00  0.00    +0.000 A 
BRANCH  19  21
ATOM     21  C   UNL     1      45.577   3.071   8.776  0.00  0.00    +0.000 A 
ATOM     22  C   UNL     1      45.947   4.027   7.819  0.00  0.00    +0.000 A 
ATOM     23  N   UNL     1      46.617   3.766   6.667  0.00  0.00    +0.000 NA
ATOM     24  C   UNL     1      46.953   2.476   6.448  0.00  0.00    +0.000 A 
ATOM     25  C   UNL     1      46.642   1.454   7.323  0.00  0.00    +0.000 A 
ATOM     26  F   UNL     1      47.008   0.194   7.059  0.00  0.00    +0.000 F 
ATOM     27  C   UNL     1      45.946   1.748   8.490  0.00  0.00    +0.000 A 
ENDBRANCH  19  21
ENDBRANCH   1  15
TORSDOF 4
ENDMDL
MODEL 3
REMARK VINA RESULT:    -7.738      3.867      8.208
REMARK INTER + INTRA:         -10.071
REMARK INTER:                  -9.633
REMARK INTRA:                  -0.438
REMARK UNBOUND:                -0.523
REMARK  Name = 
REMARK  4 active torsions:
REMARK  status: ('A' for Active; 'I' for Inactive)
REMARK    1  A    between atoms: C_2  and  C_4
REMARK    2  A    between atoms: N_8  and  C_9
REMARK    3  A    between atoms: C_9  and  C_10
REMARK    4  A    between atoms: C_14  and  C_15
REMARK                            x       y       z     vdW  Elec       q    Type
REMARK                         _______ _______ _______ _____ _____    ______ ____
ROOT
ATOM      1  C   UNL     1      46.005   5.523  13.837  0.00  0.00    +0.000 C 
ENDROOT
BRANCH   1   6
ATOM      2  C   UNL     1      49.319   4.257  17.600  0.00  0.00    +0.000 A 
ATOM      3  C   UNL     1      49.172   5.447  16.897  0.00  0.00    +0.000 A 
ATOM      4  C   UNL     1      48.188   5.538  15.911  0.00  0.00    +0.000 A 
ATOM      5  C   UNL     1      47.373   4.443  15.645  0.00  0.00    +0.000 A 
ATOM      6  N   UNL     1      46.363   4.450  14.728  0.00  0.00    +0.000 N 
ATOM      7  N   UNL     1      47.530   3.276  16.300  0.00  0.00    +0.000 NA
ATOM      8  C   UNL     1      48.495   3.200  17.254  0.00  0.00    +0.000 A 
ATOM      9  H   UNL     1      45.921   3.547  14.609  0.00  0.00    +0.000 HD
BRANCH   2  11
ATOM     10  N   UNL     1      51.323   3.179  18.443  0.00  0.00    +0.000 N 
ATOM     11  C   UNL     1      50.316   4.076  18.672  0.00  0.00    +0.000 C 
ATOM     12  O   UNL     1      50.270   4.727  19.708  0.00  0.00    +0.000 OA
ATOM     13  H   UNL     1      52.058   3.141  19.137  0.00  0.00    +0.000 HD
ATOM     14  H   UNL     1      51.535   2.823  17.521  0.00  0.00    +0.000 HD
ENDBRANCH   2  11
ENDBRANCH   1   6
BRANCH   1  15
ATOM     15  C   UNL     1      45.032   5.132  12.746  0.00  0.00    +0.000 A 
ATOM     16  C   UNL     1      43.660   5.401  12.794  0.00  0.00    +0.000 A 
ATOM     17  C   UNL     1      42.833   5.045  11.729  0.00  0.00    +0.000 A 
ATOM     18  C   UNL     1      43.368   4.425  10.597  0.00  0.00    +0.000 A 
ATOM     19  C   UNL     1      44.741   4.146  10.500  0.00  0.00    +0.000 A 
ATOM     20  C   UNL     1      45.549   4.500  11.597  0.00  0.00    +0.000 A 
BRANCH  19  21
ATOM     21  C   UNL     1      45.327   3.547   9.283  0.00  0.00    +0.000 A 
ATOM     22  C   UNL     1      45.753   4.332   8.202  0.00  0.00    +0.000 A 
ATOM     23  N   UNL     1      46.327   3.858   7.067  0.00  0.00    +0.000 NA
ATOM     24  C   UNL     1      46.501   2.521   6.996  0.00  0.00    +0.000 A 
ATOM     25  C   UNL     1      46.122   1.654   8.002  0.00  0.00    +0.000 A 
ATOM     26  F   UNL     1      46.328   0.337   7.882  0.00  0.00    +0.000 F 
ATOM     27  C   UNL     1      45.526   2.165   9.149  0.00  0.00    +0.000 A 
ENDBRANCH  19  21
ENDBRANCH   1  15
TORSDOF 4
ENDMDL
MODEL 4
REMARK VINA RESULT:    -7.311      3.705      7.844
REMARK INTER + INTRA:          -9.544
REMARK INTER:                  -9.387
REMARK INTRA:                  -0.157
REMARK UNBOUND:                -0.523
REMARK  Name = 
REMARK  4 active torsions:
REMARK  status: ('A' for Active; 'I' for Inactive)
REMARK    1  A    between atoms: C_2  and  C_4
REMARK    2  A    between atoms: N_8  and  C_9
REMARK    3  A    between atoms: C_9  and  C_10
REMARK    4  A    between atoms: C_14  and  C_15
REMARK                            x       y       z     vdW  Elec       q    Type
REMARK                         _______ _______ _______ _____ _____    ______ ____
ROOT
ATOM      1  C   UNL     1      48.660   7.762  12.546  0.00  0.00    +0.000 C 
ENDROOT
BRANCH   1   6
ATOM      2  C   UNL     1      47.740   4.625  16.554  0.00  0.00    +0.000 A 
ATOM      3  C   UNL     1      47.343   4.523  15.225  0.00  0.00    +0.000 A 
ATOM      4  C   UNL     1      47.725   5.518  14.324  0.00  0.00    +0.000 A 
ATOM      5  C   UNL     1      48.491   6.592  14.762  0.00  0.00    +0.000 A 
ATOM      6  N   UNL     1      48.942   7.590  13.948  0.00  0.00    +0.000 N 
ATOM      7  N   UNL     1      48.853   6.714  16.054  0.00  0.00    +0.000 NA
ATOM      8  C   UNL     1      48.471   5.741  16.923  0.00  0.00    +0.000 A 
ATOM      9  H   UNL     1      49.420   8.330  14.446  0.00  0.00    +0.000 HD
BRANCH   2  11
ATOM     10  N   UNL     1      48.236   3.513  18.653  0.00  0.00    +0.000 N 
ATOM     11  C   UNL     1      47.403   3.612  17.572  0.00  0.00    +0.000 C 
ATOM     12  O   UNL     1      46.401   2.915  17.477  0.00  0.00    +0.000 OA
ATOM     13  H   UNL     1      47.937   2.892  19.394  0.00  0.00    +0.000 HD
ATOM     14  H   UNL     1      48.910   4.229  18.888  0.00  0.00    +0.000 HD
ENDBRANCH   2  11
ENDBRANCH   1   6
BRANCH   1  15
ATOM     15  C   UNL     1      47.202   7.595  12.176  0.00  0.00    +0.000 A 
ATOM     16  C   UNL     1      46.213   8.543  12.460  0.00  0.00    +0.000 A 
ATOM     17  C   UNL     1      44.898   8.335  12.050  0.00  0.00    +0.000 A 
ATOM     18  C   UNL     1      44.554   7.182  11.339  0.00  0.00    +0.000 A 
ATOM     19  C   UNL     1      45.515   6.209  11.021  0.00  0.00    +0.000 A 
ATOM     20  C   UNL     1      46.832   6.436  11.464  0.00  0.00    +0.000 A 
BRANCH  19  21
ATOM     21  C   UNL     1      45.175   5.016  10.218  0.00  0.00    +0.000 A 
ATOM     22  C   UNL     1      44.332   4.009  10.708  0.00  0.00    +0.000 A 
ATOM     23  N   UNL     1      43.951   2.902  10.021  0.00  0.00    +0.000 NA
ATOM     24  C   UNL     1      44.426   2.784   8.762  0.00  0.00    +0.000 A 
ATOM     25  C   UNL     1      45.260   3.716   8.178  0.00  0.00    +0.000 A 
ATOM     26  F   UNL     1      45.694   3.553   6.923  0.00  0.00    +0.000 F 
ATOM     27  C   UNL     1      45.644   4.836   8.908  0.00  0.00    +0.000 A 
ENDBRANCH  19  21
ENDBRANCH   1  15
TORSDOF 4
ENDMDL
MODEL 5
REMARK VINA RESULT:    -7.070      4.378      8.467
REMARK INTER + INTRA:          -9.247
REMARK INTER:                  -8.568
REMARK INTRA:                  -0.679
REMARK UNBOUND:                -0.523
REMARK  Name = 
REMARK  4 active torsions:
REMARK  status: ('A' for Active; 'I' for Inactive)
REMARK    1  A    between atoms: C_2  and  C_4
REMARK    2  A    between atoms: N_8  and  C_9
REMARK    3  A    between atoms: C_9  and  C_10
REMARK    4  A    between atoms: C_14  and  C_15
REMARK                            x       y       z     vdW  Elec       q    Type
REMARK                         _______ _______ _______ _____ _____    ______ ____
ROOT
ATOM      1  C   UNL     1      47.542   3.883  16.957  0.00  0.00    +0.000 C 
ENDROOT
BRANCH   1   6
ATOM      2  C   UNL     1      52.385   2.357  17.937  0.00  0.00    +0.000 A 
ATOM      3  C   UNL     1      51.762   3.576  18.179  0.00  0.00    +0.000 A 
ATOM      4  C   UNL     1      50.425   3.741  17.814  0.00  0.00    +0.000 A 
ATOM      5  C   UNL     1      49.738   2.692  17.215  0.00  0.00    +0.000 A 
ATOM      6  N   UNL     1      48.422   2.748  16.858  0.00  0.00    +0.000 N 
ATOM      7  N   UNL     1      50.343   1.518  16.948  0.00  0.00    +0.000 NA
ATOM      8  C   UNL     1      51.646   1.372  17.305  0.00  0.00    +0.000 A 
ATOM      9  H   UNL     1      48.103   1.923  16.366  0.00  0.00    +0.000 HD
BRANCH   2  11
ATOM     10  N   UNL     1      54.732   2.245  17.333  0.00  0.00    +0.000 N 
ATOM     11  C   UNL     1      53.787   2.084  18.308  0.00  0.00    +0.000 C 
ATOM     12  O   UNL     1      54.098   1.764  19.448  0.00  0.00    +0.000 OA
ATOM     13  H   UNL     1      55.698   2.160  17.625  0.00  0.00    +0.000 HD
ATOM     14  H   UNL     1      54.549   2.745  16.474  0.00  0.00    +0.000 HD
ENDBRANCH   2  11
ENDBRANCH   1   6
BRANCH   1  15
ATOM     15  C   UNL     1      47.516   4.763  15.726  0.00  0.00    +0.000 A 
ATOM     16  C   UNL     1      48.362   5.861  15.535  0.00  0.00    +0.000 A 
ATOM     17  C   UNL     1      48.306   6.600  14.355  0.00  0.00    +0.000 A 
ATOM     18  C   UNL     1      47.411   6.244  13.342  0.00  0.00    +0.000 A 
ATOM     19  C   UNL     1      46.552   5.142  13.483  0.00  0.00    +0.000 A 
ATOM     20  C   UNL     1      46.617   4.426  14.694  0.00  0.00    +0.000 A 
BRANCH  19  21
ATOM     21  C   UNL     1      45.646   4.720  12.396  0.00  0.00    +0.000 A 
ATOM     22  C   UNL     1      45.648   5.349  11.143  0.00  0.00    +0.000 A 
ATOM     23  N   UNL     1      44.869   5.000  10.087  0.00  0.00    +0.000 NA
ATOM     24  C   UNL     1      44.038   3.952  10.277  0.00  0.00    +0.000 A 
ATOM     25  C   UNL     1      43.955   3.257  11.467  0.00  0.00    +0.000 A 
ATOM     26  F   UNL     1      43.119   2.220  11.595  0.00  0.00    +0.000 F 
ATOM     27  C   UNL     1      44.757   3.644  12.535  0.00  0.00    +0.000 A 
ENDBRANCH  19  21
ENDBRANCH   1  15
TORSDOF 4
ENDMDL
MODEL 6
REMARK VINA RESULT:    -6.915      4.297      8.810
REMARK INTER + INTRA:          -9.055
REMARK INTER:                  -8.574
REMARK INTRA:                  -0.480
REMARK UNBOUND:                -0.523
REMARK  Name = 
REMARK  4 active torsions:
REMARK  status: ('A' for Active; 'I' for Inactive)
REMARK    1  A    between atoms: C_2  and  C_4
REMARK    2  A    between atoms: N_8  and  C_9
REMARK    3  A    between atoms: C_9  and  C_10
REMARK    4  A    between atoms: C_14  and  C_15
REMARK                            x       y       z     vdW  Elec       q    Type
REMARK                         _______ _______ _______ _____ _____    ______ ____
ROOT
ATOM      1  C   UNL     1      47.983   6.834  13.966  0.00  0.00    +0.000 C 
ENDROOT
BRANCH   1   6
ATOM      2  C   UNL     1      48.850   5.340  18.841  0.00  0.00    +0.000 A 
ATOM      3  C   UNL     1      49.066   6.569  18.227  0.00  0.00    +0.000 A 
ATOM      4  C   UNL     1      48.746   6.720  16.877  0.00  0.00    +0.000 A 
ATOM      5  C   UNL     1      48.221   5.647  16.166  0.00  0.00    +0.000 A 
ATOM      6  N   UNL     1      47.844   5.711  14.857  0.00  0.00    +0.000 N 
ATOM      7  N   UNL     1      48.037   4.444  16.746  0.00  0.00    +0.000 NA
ATOM      8  C   UNL     1      48.358   4.309  18.060  0.00  0.00    +0.000 A 
ATOM      9  H   UNL     1      47.553   4.819  14.477  0.00  0.00    +0.000 HD
BRANCH   2  11
ATOM     10  N   UNL     1      48.722   3.899  20.789  0.00  0.00    +0.000 N 
ATOM     11  C   UNL     1      49.138   5.093  20.267  0.00  0.00    +0.000 C 
ATOM     12  O   UNL     1      49.754   5.903  20.946  0.00  0.00    +0.000 OA
ATOM     13  H   UNL     1      49.018   3.696  21.736  0.00  0.00    +0.000 HD
ATOM     14  H   UNL     1      48.447   3.118  20.210  0.00  0.00    +0.000 HD
ENDBRANCH   2  11
ENDBRANCH   1   6
BRANCH   1  15
ATOM     15  C   UNL     1      46.833   7.011  12.998  0.00  0.00    +0.000 A 
ATOM     16  C   UNL     1      46.142   8.214  12.821  0.00  0.00    +0.000 A 
ATOM     17  C   UNL     1      45.119   8.308  11.878  0.00  0.00    +0.000 A 
ATOM     18  C   UNL     1      44.782   7.205  11.090  0.00  0.00    +0.000 A 
ATOM     19  C   UNL     1      45.457   5.981  11.224  0.00  0.00    +0.000 A 
ATOM     20  C   UNL     1      46.472   5.908  12.197  0.00  0.00    +0.000 A 
BRANCH  19  21
ATOM     21  C   UNL     1      45.150   4.826  10.355  0.00  0.00    +0.000 A 
ATOM     22  C   UNL     1      44.344   3.765  10.790  0.00  0.00    +0.000 A 
ATOM     23  N   UNL     1      43.993   2.687  10.042  0.00  0.00    +0.000 NA
ATOM     24  C   UNL     1      44.461   2.659   8.776  0.00  0.00    +0.000 A 
ATOM     25  C   UNL     1      45.260   3.651   8.242  0.00  0.00    +0.000 A 
ATOM     26  F   UNL     1      45.689   3.575   6.976  0.00  0.00    +0.000 F 
ATOM     27  C   UNL     1      45.614   4.738   9.034  0.00  0.00    +0.000 A 
ENDBRANCH  19  21
ENDBRANCH   1  15
TORSDOF 4
ENDMDL
MODEL 7
REMARK VINA RESULT:    -6.813      4.005      7.642
REMARK INTER + INTRA:          -8.929
REMARK INTER:                  -8.382
REMARK INTRA:                  -0.548
REMARK UNBOUND:                -0.523
REMARK  Name = 
REMARK  4 active torsions:
REMARK  status: ('A' for Active; 'I' for Inactive)
REMARK    1  A    between atoms: C_2  and  C_4
REMARK    2  A    between atoms: N_8  and  C_9
REMARK    3  A    between atoms: C_9  and  C_10
REMARK    4  A    between atoms: C_14  and  C_15
REMARK                            x       y       z     vdW  Elec       q    Type
REMARK                         _______ _______ _______ _____ _____    ______ ____
ROOT
ATOM      1  C   UNL     1      45.656   3.925  13.262  0.00  0.00    +0.000 C 
ENDROOT
BRANCH   1   6
ATOM      2  C   UNL     1      48.054   8.506  13.167  0.00  0.00    +0.000 A 
ATOM      3  C   UNL     1      46.701   8.199  13.071  0.00  0.00    +0.000 A 
ATOM      4  C   UNL     1      46.302   6.863  13.123  0.00  0.00    +0.000 A 
ATOM      5  C   UNL     1      47.255   5.861  13.266  0.00  0.00    +0.000 A 
ATOM      6  N   UNL     1      46.957   4.533  13.363  0.00  0.00    +0.000 N 
ATOM      7  N   UNL     1      48.570   6.147  13.328  0.00  0.00    +0.000 NA
ATOM      8  C   UNL     1      48.946   7.453  13.272  0.00  0.00    +0.000 A 
ATOM      9  H   UNL     1      47.775   3.938  13.386  0.00  0.00    +0.000 HD
BRANCH   2  11
ATOM     10  N   UNL     1      47.658  10.886  12.918  0.00  0.00    +0.000 N 
ATOM     11  C   UNL     1      48.567   9.889  13.144  0.00  0.00    +0.000 C 
ATOM     12  O   UNL     1      49.746  10.140  13.356  0.00  0.00    +0.000 OA
ATOM     13  H   UNL     1      48.000  11.834  13.010  0.00  0.00    +0.000 HD
ATOM     14  H   UNL     1      46.661  10.742  12.994  0.00  0.00    +0.000 HD
ENDBRANCH   2  11
ENDBRANCH   1   6
BRANCH   1  15
ATOM     15  C   UNL     1      45.006   4.060  11.902  0.00  0.00    +0.000 A 
ATOM     16  C   UNL     1      43.876   4.846  11.654  0.00  0.00    +0.000 A 
ATOM     17  C   UNL     1      43.359   4.952  10.364  0.00  0.00    +0.000 A 
ATOM     18  C   UNL     1      43.972   4.284   9.301  0.00  0.00    +0.000 A 
ATOM     19  C   UNL     1      45.116   3.494   9.500  0.00  0.00    +0.000 A 
ATOM     20  C   UNL     1      45.605   3.389  10.817  0.00  0.00    +0.000 A 
BRANCH  19  21
ATOM     21  C   UNL     1      45.808   2.832   8.375  0.00  0.00    +0.000 A 
ATOM     22  C   UNL     1      46.169   1.479   8.420  0.00  0.00    +0.000 A 
ATOM     23  N   UNL     1      46.778   0.795   7.417  0.00  0.00    +0.000 NA
ATOM     24  C   UNL     1      47.040   1.491   6.290  0.00  0.00    +0.000 A 
ATOM     25  C   UNL     1      46.726   2.826   6.135  0.00  0.00    +0.000 A 
ATOM     26  F   UNL     1      47.001   3.464   4.991  0.00  0.00    +0.000 F 
ATOM     27  C   UNL     1      46.113   3.505   7.182  0.00  0.00    +0.000 A 
ENDBRANCH  19  21
ENDBRANCH   1  15
TORSDOF 4
ENDMDL
MODEL 8
REMARK VINA RESULT:    -6.793      4.045      8.504
REMARK INTER + INTRA:          -8.905
REMARK INTER:                  -8.460
REMARK INTRA:                  -0.445
REMARK UNBOUND:                -0.523
REMARK  Name = 
REMARK  4 active torsions:
REMARK  status: ('A' for Active; 'I' for Inactive)
REMARK    1  A    between atoms: C_2  and  C_4
REMARK    2  A    between atoms: N_8  and  C_9
REMARK    3  A    between atoms: C_9  and  C_10
REMARK    4  A    between atoms: C_14  and  C_15
REMARK                            x       y       z     vdW  Elec       q    Type
REMARK                         _______ _______ _______ _____ _____    ______ ____
ROOT
ATOM      1  C   UNL     1      45.621   3.902  13.270  0.00  0.00    +0.000 C 
ENDROOT
BRANCH   1   6
ATOM      2  C   UNL     1      48.833   5.416  17.030  0.00  0.00    +0.000 A 
ATOM      3  C   UNL     1      47.912   4.374  17.002  0.00  0.00    +0.000 A 
ATOM      4  C   UNL     1      47.151   4.171  15.849  0.00  0.00    +0.000 A 
ATOM      5  C   UNL     1      47.320   5.007  14.752  0.00  0.00    +0.000 A 
ATOM      6  N   UNL     1      46.650   4.862  13.572  0.00  0.00    +0.000 N 
ATOM      7  N   UNL     1      48.188   6.037  14.782  0.00  0.00    +0.000 NA
ATOM      8  C   UNL     1      48.920   6.227  15.912  0.00  0.00    +0.000 A 
ATOM      9  H   UNL     1      46.839   5.602  12.908  0.00  0.00    +0.000 HD
BRANCH   2  11
ATOM     10  N   UNL     1      49.500   4.927  19.311  0.00  0.00    +0.000 N 
ATOM     11  C   UNL     1      49.695   5.693  18.194  0.00  0.00    +0.000 C 
ATOM     12  O   UNL     1      50.573   6.545  18.155  0.00  0.00    +0.000 OA
ATOM     13  H   UNL     1      50.165   5.052  20.063  0.00  0.00    +0.000 HD
ATOM     14  H   UNL     1      48.974   4.064  19.294  0.00  0.00    +0.000 HD
ENDBRANCH   2  11
ENDBRANCH   1   6
BRANCH   1  15
ATOM     15  C   UNL     1      44.989   4.071  11.905  0.00  0.00    +0.000 A 
ATOM     16  C   UNL     1      43.879   4.884  11.656  0.00  0.00    +0.000 A 
ATOM     17  C   UNL     1      43.379   5.020  10.362  0.00  0.00    +0.000 A 
ATOM     18  C   UNL     1      43.990   4.354   9.296  0.00  0.00    +0.000 A 
ATOM     19  C   UNL     1      45.115   3.537   9.496  0.00  0.00    +0.000 A 
ATOM     20  C   UNL     1      45.587   3.403  10.816  0.00  0.00    +0.000 A 
BRANCH  19  21
ATOM     21  C   UNL     1      45.806   2.878   8.369  0.00  0.00    +0.000 A 
ATOM     22  C   UNL     1      46.164   1.524   8.410  0.00  0.00    +0.000 A 
ATOM     23  N   UNL     1      46.771   0.841   7.405  0.00  0.00    +0.000 NA
ATOM     24  C   UNL     1      47.035   1.540   6.280  0.00  0.00    +0.000 A 
ATOM     25  C   UNL     1      46.724   2.877   6.129  0.00  0.00    +0.000 A 
ATOM     26  F   UNL     1      47.001   3.518   4.988  0.00  0.00    +0.000 F 
ATOM     27  C   UNL     1      46.112   3.554   7.179  0.00  0.00    +0.000 A 
ENDBRANCH  19  21
ENDBRANCH   1  15
TORSDOF 4
ENDMDL
MODEL 9
REMARK VINA RESULT:    -6.788      2.887      4.968
REMARK INTER + INTRA:          -8.899
REMARK INTER:                  -8.171
REMARK INTRA:                  -0.728
REMARK UNBOUND:                -0.523
REMARK  Name = 
REMARK  4 active torsions:
REMARK  status: ('A' for Active; 'I' for Inactive)
REMARK    1  A    between atoms: C_2  and  C_4
REMARK    2  A    between atoms: N_8  and  C_9
REMARK    3  A    between atoms: C_9  and  C_10
REMARK    4  A    between atoms: C_14  and  C_15
REMARK                            x       y       z     vdW  Elec       q    Type
REMARK                         _______ _______ _______ _____ _____    ______ ____
ROOT
ATOM      1  C   UNL     1      47.529   8.559  13.435  0.00  0.00    +0.000 C 
ENDROOT
BRANCH   1   6
ATOM      2  C   UNL     1      44.741   5.036  10.873  0.00  0.00    +0.000 A 
ATOM      3  C   UNL     1      45.951   5.637  10.542  0.00  0.00    +0.000 A 
ATOM      4  C   UNL     1      46.505   6.575  11.415  0.00  0.00    +0.000 A 
ATOM      5  C   UNL     1      45.846   6.895  12.596  0.00  0.00    +0.000 A 
ATOM      6  N   UNL     1      46.329   7.769  13.526  0.00  0.00    +0.000 N 
ATOM      7  N   UNL     1      44.659   6.340  12.910  0.00  0.00    +0.000 NA
ATOM      8  C   UNL     1      44.127   5.432  12.048  0.00  0.00    +0.000 A 
ATOM      9  H   UNL     1      45.685   7.942  14.288  0.00  0.00    +0.000 HD
BRANCH   2  11
ATOM     10  N   UNL     1      44.123   4.226   8.672  0.00  0.00    +0.000 N 
ATOM     11  C   UNL     1      44.091   4.020  10.024  0.00  0.00    +0.000 C 
ATOM     12  O   UNL     1      43.578   3.017  10.502  0.00  0.00    +0.000 OA
ATOM     13  H   UNL     1      43.769   3.473   8.095  0.00  0.00    +0.000 HD
ATOM     14  H   UNL     1      44.745   4.893   8.237  0.00  0.00    +0.000 HD
ENDBRANCH   2  11
ENDBRANCH   1   6
BRANCH   1  15
ATOM     15  C   UNL     1      48.701   8.008  14.218  0.00  0.00    +0.000 A 
ATOM     16  C   UNL     1      50.017   8.460  14.072  0.00  0.00    +0.000 A 
ATOM     17  C   UNL     1      51.037   7.930  14.859  0.00  0.00    +0.000 A 
ATOM     18  C   UNL     1      50.755   6.949  15.814  0.00  0.00    +0.000 A 
ATOM     19  C   UNL     1      49.447   6.474  16.005  0.00  0.00    +0.000 A 
ATOM     20  C   UNL     1      48.439   7.013  15.182  0.00  0.00    +0.000 A 
BRANCH  19  21
ATOM     21  C   UNL     1      49.127   5.482  17.052  0.00  0.00    +0.000 A 
ATOM     22  C   UNL     1      49.653   5.577  18.347  0.00  0.00    +0.000 A 
ATOM     23  N   UNL     1      49.381   4.724  19.369  0.00  0.00    +0.000 NA
ATOM     24  C   UNL     1      48.527   3.715  19.096  0.00  0.00    +0.000 A 
ATOM     25  C   UNL     1      47.948   3.527  17.857  0.00  0.00    +0.000 A 
ATOM     26  F   UNL     1      47.100   2.513  17.645  0.00  0.00    +0.000 F 
ATOM     27  C   UNL     1      48.252   4.409  16.826  0.00  0.00    +0.000 A 
ENDBRANCH  19  21
ENDBRANCH   1  15
TORSDOF 4
ENDMDL
