MODEL 1
REMARK VINA RESULT:    -8.976      0.000      0.000
REMARK INTER + INTRA:         -12.915
REMARK INTER:                 -12.124
REMARK INTRA:                  -0.791
REMARK UNBOUND:                -0.791
REMARK  Name = 
REMARK  6 active torsions:
REMARK  status: ('A' for Active; 'I' for Inactive)
REMARK    1  A    between atoms: C_2  and  C_4
REMARK    2  A    between atoms: N_8  and  C_9
REMARK    3  A    between atoms: C_9  and  C_10
REMARK    4  A    between atoms: C_10  and  C_13
REMARK    5  A    between atoms: C_18  and  C_19
REMARK    6  A    between atoms: C_19  and  C_20
REMARK                            x       y       z     vdW  Elec       q    Type
REMARK                         _______ _______ _______ _____ _____    ______ ____
ROOT
ATOM      1  C   UNL     1      43.264   5.453  12.194  0.00  0.00    +0.000 C 
ATOM      2  F   UNL     1      42.653   6.614  11.801  0.00  0.00    +0.000 F 
ATOM      3  F   UNL     1      42.489   4.969  13.209  0.00  0.00    +0.000 F 
ENDROOT
BRANCH   1   4
ATOM      4  C   UNL     1      44.700   5.680  12.623  0.00  0.00    +0.000 A 
ATOM      5  C   UNL     1      45.359   6.871  12.286  0.00  0.00    +0.000 A 
ATOM      6  C   UNL     1      46.644   7.102  12.760  0.00  0.00    +0.000 A 
ATOM      7  F   UNL     1      47.266   8.246  12.444  0.00  0.00    +0.000 F 
ATOM      8  C   UNL     1      47.291   6.174  13.569  0.00  0.00    +0.000 A 
ATOM      9  C   UNL     1      46.656   4.970  13.905  0.00  0.00    +0.000 A 
ATOM     10  C   UNL     1      45.364   4.729  13.416  0.00  0.00    +0.000 A 
BRANCH   9  11
ATOM     11  C   UNL     1      47.341   3.964  14.795  0.00  0.00    +0.000 C 
BRANCH  11  12
ATOM     12  C   UNL     1      47.114   4.297  16.264  0.00  0.00    +0.000 C 
ATOM     13  C   UNL     1      48.328   4.948  16.954  0.00  0.00    +0.000 C 
ATOM     14  N   UNL     1      48.184   4.021  18.084  0.00  0.00    +0.000 NA
ATOM     15  C   UNL     1      47.271   3.171  17.306  0.00  0.00    +0.000 C 
ATOM     16  H   UNL     1      47.753   4.443  18.907  0.00  0.00    +0.000 HD
ENDBRANCH  11  12
ENDBRANCH   9  11
ENDBRANCH   1   4
BRANCH   1  17
ATOM     17  C   UNL     1      43.223   4.466  11.000  0.00  0.00    +0.000 C 
BRANCH  17  22
ATOM     18  C   UNL     1      46.283   2.053   7.904  0.00  0.00    +0.000 A 
ATOM     19  C   UNL     1      46.333   3.376   7.474  0.00  0.00    +0.000 A 
ATOM     20  C   UNL     1      45.565   4.336   8.135  0.00  0.00    +0.000 A 
ATOM     21  C   UNL     1      44.772   3.963   9.218  0.00  0.00    +0.000 A 
ATOM     22  N   UNL     1      43.984   4.947   9.830  0.00  0.00    +0.000 N 
ATOM     23  N   UNL     1      44.703   2.681   9.630  0.00  0.00    +0.000 NA
ATOM     24  C   UNL     1      45.445   1.755   8.969  0.00  0.00    +0.000 A 
ATOM     25  H   UNL     1      44.542   5.769  10.050  0.00  0.00    +0.000 HD
BRANCH  18  27
ATOM     26  N   UNL     1      46.754  -0.315   7.647  0.00  0.00    +0.000 N 
ATOM     27  C   UNL     1      47.053   0.965   7.269  0.00  0.00    +0.000 C 
ATOM     28  O   UNL     1      47.895   1.194   6.412  0.00  0.00    +0.000 OA
ATOM     29  H   UNL     1      47.217  -1.054   7.133  0.00  0.00    +0.000 HD
ATOM     30  H   UNL     1      45.915  -0.555   8.155  0.00  0.00    +0.000 HD
ENDBRANCH  18  27
ENDBRANCH  17  22
ENDBRANCH   1  17
TORSDOF 6
ENDMDL
MODEL 2
REMARK VINA RESULT:    -8.972      2.263      3.279
REMARK INTER + INTRA:         -12.910
REMARK INTER:                 -11.933
REMARK INTRA:                  -0.976
REMARK UNBOUND:                -0.791
REMARK  Name = 
REMARK  6 active torsions:
REMARK  status: ('A' for Active; 'I' for Inactive)
REMARK    1  A    between atoms: C_2  and  C_4
REMARK    2  A    between atoms: N_8  and  C_9
REMARK    3  A    between atoms: C_9  and  C_10
REMARK    4  A    between atoms: C_10  and  C_13
REMARK    5  A    between atoms: C_18  and  C_19
REMARK    6  A    between atoms: C_19  and  C_20
REMARK                            x       y       z     vdW  Elec       q    Type
REMARK                         _______ _______ _______ _____ _____    ______ ____
ROOT
ATOM      1  C   UNL     1      43.229   5.513  12.096  0.00  0.00    +0.000 C 
ATOM      2  F   UNL     1      42.826   6.746  11.653  0.00  0.00    +0.000 F 
ATOM      3  F   UNL     1      42.294   5.144  13.020  0.00  0.00    +0.000 F 
ENDROOT
BRANCH   1   4
ATOM      4  C   UNL     1      44.631   5.544  12.674  0.00  0.00    +0.000 A 
ATOM      5  C   UNL     1      45.246   4.359  13.101  0.00  0.00    +0.000 A 
ATOM      6  C   UNL     1      46.561   4.390  13.547  0.00  0.00    +0.000 A 
ATOM      7  F   UNL     1      47.148   3.253  13.944  0.00  0.00    +0.000 F 
ATOM      8  C   UNL     1      47.284   5.578  13.574  0.00  0.00    +0.000 A 
ATOM      9  C   UNL     1      46.683   6.777  13.166  0.00  0.00    +0.000 A 
ATOM     10  C   UNL     1      45.350   6.750  12.729  0.00  0.00    +0.000 A 
BRANCH   9  11
ATOM     11  C   UNL     1      47.462   8.068  13.176  0.00  0.00    +0.000 C 
BRANCH  11  12
ATOM     12  C   UNL     1      48.526   8.066  12.086  0.00  0.00    +0.000 C 
ATOM     13  C   UNL     1      49.963   7.888  12.614  0.00  0.00    +0.000 C 
ATOM     14  N   UNL     1      50.410   9.010  11.778  0.00  0.00    +0.000 NA
ATOM     15  C   UNL     1      49.019   9.420  11.536  0.00  0.00    +0.000 C 
ATOM     16  H   UNL     1      50.906   8.721  10.935  0.00  0.00    +0.000 HD
ENDBRANCH  11  12
ENDBRANCH   9  11
ENDBRANCH   1   4
BRANCH   1  17
ATOM     17  C   UNL     1      43.179   4.536  10.895  0.00  0.00    +0.000 C 
BRANCH  17  22
ATOM     18  C   UNL     1      46.319   2.113   7.888  0.00  0.00    +0.000 A 
ATOM     19  C   UNL     1      46.369   3.431   7.444  0.00  0.00    +0.000 A 
ATOM     20  C   UNL     1      45.581   4.392   8.080  0.00  0.00    +0.000 A 
ATOM     21  C   UNL     1      44.768   4.026   9.150  0.00  0.00    +0.000 A 
ATOM     22  N   UNL     1      43.961   5.010   9.735  0.00  0.00    +0.000 N 
ATOM     23  N   UNL     1      44.699   2.747   9.574  0.00  0.00    +0.000 NA
ATOM     24  C   UNL     1      45.462   1.820   8.938  0.00  0.00    +0.000 A 
ATOM     25  H   UNL     1      44.508   5.839   9.957  0.00  0.00    +0.000 HD
BRANCH  18  27
ATOM     26  N   UNL     1      46.798  -0.255   7.651  0.00  0.00    +0.000 N 
ATOM     27  C   UNL     1      47.109   1.024   7.281  0.00  0.00    +0.000 C 
ATOM     28  O   UNL     1      47.980   1.251   6.452  0.00  0.00    +0.000 OA
ATOM     29  H   UNL     1      47.278  -0.995   7.154  0.00  0.00    +0.000 HD
ATOM     30  H   UNL     1      45.944  -0.494   8.132  0.00  0.00    +0.000 HD
ENDBRANCH  18  27
ENDBRANCH  17  22
ENDBRANCH   1  17
TORSDOF 6
ENDMDL
MODEL 3
REMARK VINA RESULT:    -8.362      3.057      7.747
REMARK INTER + INTRA:         -12.086
REMARK INTER:                 -11.347
REMARK INTRA:                  -0.739
REMARK UNBOUND:                -0.791
REMARK  Name = 
REMARK  6 active torsions:
REMARK  status: ('A' for Active; 'I' for Inactive)
REMARK    1  A    between atoms: C_2  and  C_4
REMARK    2  A    between atoms: N_8  and  C_9
REMARK    3  A    between atoms: C_9  and  C_10
REMARK    4  A    between atoms: C_10  and  C_13
REMARK    5  A    between atoms: C_18  and  C_19
REMARK    6  A    between atoms: C_19  and  C_20
REMARK                            x       y       z     vdW  Elec       q    Type
REMARK                         _______ _______ _______ _____ _____    ______ ____
ROOT
ATOM      1  C   UNL     1      45.750   6.204  11.337  0.00  0.00    +0.000 C 
ATOM      2  F   UNL     1      44.971   7.274  10.983  0.00  0.00    +0.000 F 
ATOM      3  F   UNL     1      47.024   6.564  11.002  0.00  0.00    +0.000 F 
ENDROOT
BRANCH   1   4
ATOM      4  C   UNL     1      45.312   4.926  10.649  0.00  0.00    +0.000 A 
ATOM      5  C   UNL     1      44.490   4.008  11.318  0.00  0.00    +0.000 A 
ATOM      6  C   UNL     1      44.026   2.886  10.646  0.00  0.00    +0.000 A 
ATOM      7  F   UNL     1      43.232   2.016  11.287  0.00  0.00    +0.000 F 
ATOM      8  C   UNL     1      44.357   2.654   9.315  0.00  0.00    +0.000 A 
ATOM      9  C   UNL     1      45.190   3.552   8.631  0.00  0.00    +0.000 A 
ATOM     10  C   UNL     1      45.671   4.679   9.313  0.00  0.00    +0.000 A 
BRANCH   9  11
ATOM     11  C   UNL     1      45.542   3.321   7.184  0.00  0.00    +0.000 C 
BRANCH  11  12
ATOM     12  C   UNL     1      47.026   3.011   7.030  0.00  0.00    +0.000 C 
ATOM     13  C   UNL     1      47.501   2.931   5.566  0.00  0.00    +0.000 C 
ATOM     14  N   UNL     1      48.202   1.675   5.862  0.00  0.00    +0.000 NA
ATOM     15  C   UNL     1      47.486   1.543   7.139  0.00  0.00    +0.000 C 
ATOM     16  H   UNL     1      49.211   1.783   5.966  0.00  0.00    +0.000 HD
ENDBRANCH  11  12
ENDBRANCH   9  11
ENDBRANCH   1   4
BRANCH   1  17
ATOM     17  C   UNL     1      45.652   6.033  12.874  0.00  0.00    +0.000 C 
BRANCH  17  22
ATOM     18  C   UNL     1      48.282   4.119  16.641  0.00  0.00    +0.000 A 
ATOM     19  C   UNL     1      48.866   5.360  16.412  0.00  0.00    +0.000 A 
ATOM     20  C   UNL     1      48.364   6.170  15.392  0.00  0.00    +0.000 A 
ATOM     21  C   UNL     1      47.283   5.734  14.628  0.00  0.00    +0.000 A 
ATOM     22  N   UNL     1      46.834   6.557  13.588  0.00  0.00    +0.000 N 
ATOM     23  N   UNL     1      46.723   4.524  14.831  0.00  0.00    +0.000 NA
ATOM     24  C   UNL     1      47.230   3.741  15.819  0.00  0.00    +0.000 A 
ATOM     25  H   UNL     1      46.689   7.508  13.918  0.00  0.00    +0.000 HD
BRANCH  18  27
ATOM     26  N   UNL     1      48.026   3.156  18.855  0.00  0.00    +0.000 N 
ATOM     27  C   UNL     1      48.743   3.189  17.691  0.00  0.00    +0.000 C 
ATOM     28  O   UNL     1      49.701   2.450  17.515  0.00  0.00    +0.000 OA
ATOM     29  H   UNL     1      48.291   2.446  19.526  0.00  0.00    +0.000 HD
ATOM     30  H   UNL     1      47.105   3.561  18.944  0.00  0.00    +0.000 HD
ENDBRANCH  18  27
ENDBRANCH  17  22
ENDBRANCH   1  17
TORSDOF 6
ENDMDL
MODEL 4
REMARK VINA RESULT:    -8.338      2.438      2.968
REMARK INTER + INTRA:         -12.053
REMARK INTER:                 -11.537
REMARK INTRA:                  -0.516
REMARK UNBOUND:                -0.791
REMARK  Name = 
REMARK  6 active torsions:
REMARK  status: ('A' for Active; 'I' for Inactive)
REMARK    1  A    between atoms: C_2  and  C_4
REMARK    2  A    between atoms: N_8  and  C_9
REMARK    3  A    between atoms: C_9  and  C_10
REMARK    4  A    between atoms: C_10  and  C_13
REMARK    5  A    between atoms: C_18  and  C_19
REMARK    6  A    between atoms: C_19  and  C_20
REMARK                            x       y       z     vdW  Elec       q    Type
REMARK                         _______ _______ _______ _____ _____    ______ ____
ROOT
ATOM      1  C   UNL     1      43.822   4.787  12.362  0.00  0.00    +0.000 C 
ATOM      2  F   UNL     1      42.806   5.070  13.236  0.00  0.00    +0.000 F 
ATOM      3  F   UNL     1      44.397   3.644  12.841  0.00  0.00    +0.000 F 
ENDROOT
BRANCH   1   4
ATOM      4  C   UNL     1      44.815   5.928  12.252  0.00  0.00    +0.000 A 
ATOM      5  C   UNL     1      44.395   7.190  11.806  0.00  0.00    +0.000 A 
ATOM      6  C   UNL     1      45.294   8.247  11.793  0.00  0.00    +0.000 A 
ATOM      7  F   UNL     1      44.885   9.454  11.376  0.00  0.00    +0.000 F 
ATOM      8  C   UNL     1      46.608   8.081  12.219  0.00  0.00    +0.000 A 
ATOM      9  C   UNL     1      47.053   6.824  12.654  0.00  0.00    +0.000 A 
ATOM     10  C   UNL     1      46.149   5.752  12.655  0.00  0.00    +0.000 A 
BRANCH   9  11
ATOM     11  C   UNL     1      48.469   6.636  13.134  0.00  0.00    +0.000 C 
BRANCH  11  12
ATOM     12  C   UNL     1      49.332   7.835  12.760  0.00  0.00    +0.000 C 
ATOM     13  C   UNL     1      50.259   7.588  11.554  0.00  0.00    +0.000 C 
ATOM     14  N   UNL     1      51.384   8.165  12.300  0.00  0.00    +0.000 NA
ATOM     15  C   UNL     1      50.627   8.086  13.558  0.00  0.00    +0.000 C 
ATOM     16  H   UNL     1      51.616   9.118  12.019  0.00  0.00    +0.000 HD
ENDBRANCH  11  12
ENDBRANCH   9  11
ENDBRANCH   1   4
BRANCH   1  17
ATOM     17  C   UNL     1      43.192   4.503  10.975  0.00  0.00    +0.000 C 
BRANCH  17  22
ATOM     18  C   UNL     1      46.301   2.091   7.928  0.00  0.00    +0.000 A 
ATOM     19  C   UNL     1      46.415   3.425   7.547  0.00  0.00    +0.000 A 
ATOM     20  C   UNL     1      45.651   4.388   8.209  0.00  0.00    +0.000 A 
ATOM     21  C   UNL     1      44.800   4.007   9.244  0.00  0.00    +0.000 A 
ATOM     22  N   UNL     1      44.020   4.996   9.856  0.00  0.00    +0.000 N 
ATOM     23  N   UNL     1      44.669   2.715   9.606  0.00  0.00    +0.000 NA
ATOM     24  C   UNL     1      45.409   1.787   8.945  0.00  0.00    +0.000 A 
ATOM     25  H   UNL     1      44.594   5.791  10.128  0.00  0.00    +0.000 HD
BRANCH  18  27
ATOM     26  N   UNL     1      46.755  -0.280   7.665  0.00  0.00    +0.000 N 
ATOM     27  C   UNL     1      47.061   0.999   7.288  0.00  0.00    +0.000 C 
ATOM     28  O   UNL     1      47.901   1.223   6.428  0.00  0.00    +0.000 OA
ATOM     29  H   UNL     1      47.210  -1.021   7.148  0.00  0.00    +0.000 HD
ATOM     30  H   UNL     1      45.917  -0.515   8.177  0.00  0.00    +0.000 HD
ENDBRANCH  18  27
ENDBRANCH  17  22
ENDBRANCH   1  17
TORSDOF 6
ENDMDL
MODEL 5
REMARK VINA RESULT:    -8.322      2.672      4.526
REMARK INTER + INTRA:         -12.031
REMARK INTER:                 -11.430
REMARK INTRA:                  -0.602
REMARK UNBOUND:                -0.791
REMARK  Name = 
REMARK  6 active torsions:
REMARK  status: ('A' for Active; 'I' for Inactive)
REMARK    1  A    between atoms: C_2  and  C_4
REMARK    2  A    between atoms: N_8  and  C_9
REMARK    3  A    between atoms: C_9  and  C_10
REMARK    4  A    between atoms: C_10  and  C_13
REMARK    5  A    between atoms: C_18  and  C_19
REMARK    6  A    between atoms: C_19  and  C_20
REMARK                            x       y       z     vdW  Elec       q    Type
REMARK                         _______ _______ _______ _____ _____    ______ ____
ROOT
ATOM      1  C   UNL     1      43.438   4.819  12.482  0.00  0.00    +0.000 C 
ATOM      2  F   UNL     1      42.246   5.416  12.799  0.00  0.00    +0.000 F 
ATOM      3  F   UNL     1      43.619   3.856  13.433  0.00  0.00    +0.000 F 
ENDROOT
BRANCH   1   4
ATOM      4  C   UNL     1      44.582   5.814  12.444  0.00  0.00    +0.000 A 
ATOM      5  C   UNL     1      45.889   5.400  12.734  0.00  0.00    +0.000 A 
ATOM      6  C   UNL     1      46.938   6.301  12.610  0.00  0.00    +0.000 A 
ATOM      7  F   UNL     1      48.188   5.897  12.879  0.00  0.00    +0.000 F 
ATOM      8  C   UNL     1      46.718   7.610  12.197  0.00  0.00    +0.000 A 
ATOM      9  C   UNL     1      45.416   8.050  11.916  0.00  0.00    +0.000 A 
ATOM     10  C   UNL     1      44.354   7.145  12.055  0.00  0.00    +0.000 A 
BRANCH   9  11
ATOM     11  C   UNL     1      45.167   9.462  11.451  0.00  0.00    +0.000 C 
BRANCH  11  12
ATOM     12  C   UNL     1      43.724   9.634  10.992  0.00  0.00    +0.000 C 
ATOM     13  C   UNL     1      43.582  10.304   9.611  0.00  0.00    +0.000 C 
ATOM     14  N   UNL     1      42.558  11.206  10.153  0.00  0.00    +0.000 NA
ATOM     15  C   UNL     1      42.920  10.836  11.529  0.00  0.00    +0.000 C 
ATOM     16  H   UNL     1      41.606  10.947   9.894  0.00  0.00    +0.000 HD
ENDBRANCH  11  12
ENDBRANCH   9  11
ENDBRANCH   1   4
BRANCH   1  17
ATOM     17  C   UNL     1      43.279   4.148  11.094  0.00  0.00    +0.000 C 
BRANCH  17  22
ATOM     18  C   UNL     1      46.470   2.378   7.711  0.00  0.00    +0.000 A 
ATOM     19  C   UNL     1      46.476   3.753   7.499  0.00  0.00    +0.000 A 
ATOM     20  C   UNL     1      45.663   4.566   8.292  0.00  0.00    +0.000 A 
ATOM     21  C   UNL     1      44.870   3.996   9.285  0.00  0.00    +0.000 A 
ATOM     22  N   UNL     1      44.038   4.838  10.032  0.00  0.00    +0.000 N 
ATOM     23  N   UNL     1      44.844   2.662   9.483  0.00  0.00    +0.000 NA
ATOM     24  C   UNL     1      45.631   1.882   8.696  0.00  0.00    +0.000 A 
ATOM     25  H   UNL     1      44.560   5.634  10.392  0.00  0.00    +0.000 HD
BRANCH  18  27
ATOM     26  N   UNL     1      48.405   1.936   6.311  0.00  0.00    +0.000 N 
ATOM     27  C   UNL     1      47.289   1.434   6.923  0.00  0.00    +0.000 C 
ATOM     28  O   UNL     1      47.007   0.247   6.851  0.00  0.00    +0.000 OA
ATOM     29  H   UNL     1      49.010   1.262   5.859  0.00  0.00    +0.000 HD
ATOM     30  H   UNL     1      48.800   2.836   6.543  0.00  0.00    +0.000 HD
ENDBRANCH  18  27
ENDBRANCH  17  22
ENDBRANCH   1  17
TORSDOF 6
ENDMDL
MODEL 6
REMARK VINA RESULT:    -7.345      3.713      8.058
REMARK INTER + INTRA:         -10.712
REMARK INTER:                  -9.966
REMARK INTRA:                  -0.746
REMARK UNBOUND:                -0.791
REMARK  Name = 
REMARK  6 active torsions:
REMARK  status: ('A' for Active; 'I' for Inactive)
REMARK    1  A    between atoms: C_2  and  C_4
REMARK    2  A    between atoms: N_8  and  C_9
REMARK    3  A    between atoms: C_9  and  C_10
REMARK    4  A    between atoms: C_10  and  C_13
REMARK    5  A    between atoms: C_18  and  C_19
REMARK    6  A    between atoms: C_19  and  C_20
REMARK                            x       y       z     vdW  Elec       q    Type
REMARK                         _______ _______ _______ _____ _____    ______ ____
ROOT
ATOM      1  C   UNL     1      45.832   6.222  11.083  0.00  0.00    +0.000 C 
ATOM      2  F   UNL     1      44.916   7.228  10.920  0.00  0.00    +0.000 F 
ATOM      3  F   UNL     1      46.975   6.681  10.493  0.00  0.00    +0.000 F 
ENDROOT
BRANCH   1   4
ATOM      4  C   UNL     1      45.357   4.914  10.482  0.00  0.00    +0.000 A 
ATOM      5  C   UNL     1      44.536   4.052  11.222  0.00  0.00    +0.000 A 
ATOM      6  C   UNL     1      44.038   2.900  10.629  0.00  0.00    +0.000 A 
ATOM      7  F   UNL     1      43.245   2.084  11.337  0.00  0.00    +0.000 F 
ATOM      8  C   UNL     1      44.334   2.585   9.307  0.00  0.00    +0.000 A 
ATOM      9  C   UNL     1      45.165   3.426   8.552  0.00  0.00    +0.000 A 
ATOM     10  C   UNL     1      45.681   4.582   9.156  0.00  0.00    +0.000 A 
BRANCH   9  11
ATOM     11  C   UNL     1      45.480   3.104   7.113  0.00  0.00    +0.000 C 
BRANCH  11  12
ATOM     12  C   UNL     1      46.985   3.035   6.890  0.00  0.00    +0.000 C 
ATOM     13  C   UNL     1      47.394   2.896   5.411  0.00  0.00    +0.000 C 
ATOM     14  N   UNL     1      48.316   1.810   5.767  0.00  0.00    +0.000 NA
ATOM     15  C   UNL     1      47.698   1.683   7.095  0.00  0.00    +0.000 C 
ATOM     16  H   UNL     1      49.295   2.096   5.795  0.00  0.00    +0.000 HD
ENDBRANCH  11  12
ENDBRANCH   9  11
ENDBRANCH   1   4
BRANCH   1  17
ATOM     17  C   UNL     1      46.075   6.043  12.603  0.00  0.00    +0.000 C 
BRANCH  17  22
ATOM     18  C   UNL     1      50.065   8.484  14.303  0.00  0.00    +0.000 A 
ATOM     19  C   UNL     1      48.987   9.258  14.721  0.00  0.00    +0.000 A 
ATOM     20  C   UNL     1      47.692   8.852  14.394  0.00  0.00    +0.000 A 
ATOM     21  C   UNL     1      47.495   7.680  13.668  0.00  0.00    +0.000 A 
ATOM     22  N   UNL     1      46.184   7.328  13.324  0.00  0.00    +0.000 N 
ATOM     23  N   UNL     1      48.535   6.934  13.242  0.00  0.00    +0.000 NA
ATOM     24  C   UNL     1      49.791   7.347  13.557  0.00  0.00    +0.000 A 
ATOM     25  H   UNL     1      45.576   7.360  14.139  0.00  0.00    +0.000 HD
BRANCH  18  27
ATOM     26  N   UNL     1      51.768   9.214  15.873  0.00  0.00    +0.000 N 
ATOM     27  C   UNL     1      51.471   8.830  14.594  0.00  0.00    +0.000 C 
ATOM     28  O   UNL     1      52.342   8.740  13.740  0.00  0.00    +0.000 OA
ATOM     29  H   UNL     1      52.749   9.351  16.084  0.00  0.00    +0.000 HD
ATOM     30  H   UNL     1      51.140   9.067  16.649  0.00  0.00    +0.000 HD
ENDBRANCH  18  27
ENDBRANCH  17  22
ENDBRANCH   1  17
TORSDOF 6
ENDMDL
MODEL 7
REMARK VINA RESULT:    -7.344      3.341      8.121
REMARK INTER + INTRA:         -10.710
REMARK INTER:                  -9.991
REMARK INTRA:                  -0.720
REMARK UNBOUND:                -0.791
REMARK  Name = 
REMARK  6 active torsions:
REMARK  status: ('A' for Active; 'I' for Inactive)
REMARK    1  A    between atoms: C_2  and  C_4
REMARK    2  A    between atoms: N_8  and  C_9
REMARK    3  A    between atoms: C_9  and  C_10
REMARK    4  A    between atoms: C_10  and  C_13
REMARK    5  A    between atoms: C_18  and  C_19
REMARK    6  A    between atoms: C_19  and  C_20
REMARK                            x       y       z     vdW  Elec       q    Type
REMARK                         _______ _______ _______ _____ _____    ______ ____
ROOT
ATOM      1  C   UNL     1      45.938   6.148  12.118  0.00  0.00    +0.000 C 
ATOM      2  F   UNL     1      45.209   6.432  13.243  0.00  0.00    +0.000 F 
ATOM      3  F   UNL     1      45.960   7.312  11.404  0.00  0.00    +0.000 F 
ENDROOT
BRANCH   1   4
ATOM      4  C   UNL     1      45.344   4.998  11.328  0.00  0.00    +0.000 A 
ATOM      5  C   UNL     1      44.470   4.092  11.946  0.00  0.00    +0.000 A 
ATOM      6  C   UNL     1      43.866   3.097  11.189  0.00  0.00    +0.000 A 
ATOM      7  F   UNL     1      43.023   2.240  11.782  0.00  0.00    +0.000 F 
ATOM      8  C   UNL     1      44.109   2.982   9.825  0.00  0.00    +0.000 A 
ATOM      9  C   UNL     1      44.992   3.868   9.190  0.00  0.00    +0.000 A 
ATOM     10  C   UNL     1      45.613   4.865   9.956  0.00  0.00    +0.000 A 
BRANCH   9  11
ATOM     11  C   UNL     1      45.249   3.764   7.708  0.00  0.00    +0.000 C 
BRANCH  11  12
ATOM     12  C   UNL     1      46.619   3.154   7.439  0.00  0.00    +0.000 C 
ATOM     13  C   UNL     1      46.900   2.878   5.949  0.00  0.00    +0.000 C 
ATOM     14  N   UNL     1      47.378   1.531   6.288  0.00  0.00    +0.000 NA
ATOM     15  C   UNL     1      46.800   1.635   7.636  0.00  0.00    +0.000 C 
ATOM     16  H   UNL     1      48.394   1.443   6.281  0.00  0.00    +0.000 HD
ENDBRANCH  11  12
ENDBRANCH   9  11
ENDBRANCH   1   4
BRANCH   1  17
ATOM     17  C   UNL     1      47.378   5.791  12.563  0.00  0.00    +0.000 C 
BRANCH  17  22
ATOM     18  C   UNL     1      48.577   5.519  17.386  0.00  0.00    +0.000 A 
ATOM     19  C   UNL     1      48.857   6.836  17.037  0.00  0.00    +0.000 A 
ATOM     20  C   UNL     1      48.639   7.253  15.723  0.00  0.00    +0.000 A 
ATOM     21  C   UNL     1      48.135   6.355  14.785  0.00  0.00    +0.000 A 
ATOM     22  N   UNL     1      47.968   6.798  13.467  0.00  0.00    +0.000 N 
ATOM     23  N   UNL     1      47.879   5.071  15.110  0.00  0.00    +0.000 NA
ATOM     24  C   UNL     1      48.108   4.676  16.389  0.00  0.00    +0.000 A 
ATOM     25  H   UNL     1      47.454   7.677  13.445  0.00  0.00    +0.000 HD
BRANCH  18  27
ATOM     26  N   UNL     1      47.731   5.082  19.619  0.00  0.00    +0.000 N 
ATOM     27  C   UNL     1      48.778   4.981  18.746  0.00  0.00    +0.000 C 
ATOM     28  O   UNL     1      49.823   4.433  19.069  0.00  0.00    +0.000 OA
ATOM     29  H   UNL     1      47.846   4.622  20.514  0.00  0.00    +0.000 HD
ATOM     30  H   UNL     1      46.790   5.300  19.324  0.00  0.00    +0.000 HD
ENDBRANCH  18  27
ENDBRANCH  17  22
ENDBRANCH   1  17
TORSDOF 6
ENDMDL
MODEL 8
REMARK VINA RESULT:    -7.130      3.268      8.107
REMARK INTER + INTRA:         -10.421
REMARK INTER:                  -9.944
REMARK INTRA:                  -0.477
REMARK UNBOUND:                -0.791
REMARK  Name = 
REMARK  6 active torsions:
REMARK  status: ('A' for Active; 'I' for Inactive)
REMARK    1  A    between atoms: C_2  and  C_4
REMARK    2  A    between atoms: N_8  and  C_9
REMARK    3  A    between atoms: C_9  and  C_10
REMARK    4  A    between atoms: C_10  and  C_13
REMARK    5  A    between atoms: C_18  and  C_19
REMARK    6  A    between atoms: C_19  and  C_20
REMARK                            x       y       z     vdW  Elec       q    Type
REMARK                         _______ _______ _______ _____ _____    ______ ____
ROOT
ATOM      1  C   UNL     1      46.615   6.477  12.621  0.00  0.00    +0.000 C 
ATOM      2  F   UNL     1      46.184   7.478  13.451  0.00  0.00    +0.000 F 
ATOM      3  F   UNL     1      47.350   7.105  11.656  0.00  0.00    +0.000 F 
ENDROOT
BRANCH   1   4
ATOM      4  C   UNL     1      45.462   5.681  12.041  0.00  0.00    +0.000 A 
ATOM      5  C   UNL     1      44.139   6.089  12.260  0.00  0.00    +0.000 A 
ATOM      6  C   UNL     1      43.098   5.401  11.651  0.00  0.00    +0.000 A 
ATOM      7  F   UNL     1      41.835   5.801  11.856  0.00  0.00    +0.000 F 
ATOM      8  C   UNL     1      43.343   4.313  10.820  0.00  0.00    +0.000 A 
ATOM      9  C   UNL     1      44.658   3.878  10.599  0.00  0.00    +0.000 A 
ATOM     10  C   UNL     1      45.709   4.564  11.225  0.00  0.00    +0.000 A 
BRANCH   9  11
ATOM     11  C   UNL     1      44.937   2.711   9.686  0.00  0.00    +0.000 C 
BRANCH  11  12
ATOM     12  C   UNL     1      45.150   3.182   8.254  0.00  0.00    +0.000 C 
ATOM     13  C   UNL     1      46.406   2.595   7.581  0.00  0.00    +0.000 C 
ATOM     14  N   UNL     1      46.783   3.934   7.113  0.00  0.00    +0.000 NA
ATOM     15  C   UNL     1      45.810   4.557   8.023  0.00  0.00    +0.000 C 
ATOM     16  H   UNL     1      46.583   4.094   6.125  0.00  0.00    +0.000 HD
ENDBRANCH  11  12
ENDBRANCH   9  11
ENDBRANCH   1   4
BRANCH   1  17
ATOM     17  C   UNL     1      47.537   5.542  13.443  0.00  0.00    +0.000 C 
BRANCH  17  22
ATOM     18  C   UNL     1      48.859   4.797  18.182  0.00  0.00    +0.000 A 
ATOM     19  C   UNL     1      47.640   4.137  18.060  0.00  0.00    +0.000 A 
ATOM     20  C   UNL     1      46.977   4.158  16.831  0.00  0.00    +0.000 A 
ATOM     21  C   UNL     1      47.544   4.825  15.748  0.00  0.00    +0.000 A 
ATOM     22  N   UNL     1      46.829   4.859  14.544  0.00  0.00    +0.000 N 
ATOM     23  N   UNL     1      48.715   5.484  15.864  0.00  0.00    +0.000 NA
ATOM     24  C   UNL     1      49.343   5.466  17.068  0.00  0.00    +0.000 A 
ATOM     25  H   UNL     1      46.524   3.924  14.280  0.00  0.00    +0.000 HD
BRANCH  18  27
ATOM     26  N   UNL     1      49.166   4.093  20.486  0.00  0.00    +0.000 N 
ATOM     27  C   UNL     1      49.635   4.837  19.438  0.00  0.00    +0.000 C 
ATOM     28  O   UNL     1      50.673   5.476  19.529  0.00  0.00    +0.000 OA
ATOM     29  H   UNL     1      49.758   4.049  21.306  0.00  0.00    +0.000 HD
ATOM     30  H   UNL     1      48.466   3.374  20.378  0.00  0.00    +0.000 HD
ENDBRANCH  18  27
ENDBRANCH  17  22
ENDBRANCH   1  17
TORSDOF 6
ENDMDL
MODEL 9
REMARK VINA RESULT:    -6.934      3.748      7.348
REMARK INTER + INTRA:         -10.157
REMARK INTER:                  -9.148
REMARK INTRA:                  -1.009
REMARK UNBOUND:                -0.791
REMARK  Name = 
REMARK  6 active torsions:
REMARK  status: ('A' for Active; 'I' for Inactive)
REMARK    1  A    between atoms: C_2  and  C_4
REMARK    2  A    between atoms: N_8  and  C_9
REMARK    3  A    between atoms: C_9  and  C_10
REMARK    4  A    between atoms: C_10  and  C_13
REMARK    5  A    between atoms: C_18  and  C_19
REMARK    6  A    between atoms: C_19  and  C_20
REMARK                            x       y       z     vdW  Elec       q    Type
REMARK                         _______ _______ _______ _____ _____    ______ ____
ROOT
ATOM      1  C   UNL     1      48.996   8.637  12.184  0.00  0.00    +0.000 C 
ATOM      2  F   UNL     1      49.249   9.628  13.095  0.00  0.00    +0.000 F 
ATOM      3  F   UNL     1      49.530   9.088  11.010  0.00  0.00    +0.000 F 
ENDROOT
BRANCH   1   4
ATOM      4  C   UNL     1      47.514   8.336  12.065  0.00  0.00    +0.000 A 
ATOM      5  C   UNL     1      46.566   9.340  12.308  0.00  0.00    +0.000 A 
ATOM      6  C   UNL     1      45.218   9.073  12.111  0.00  0.00    +0.000 A 
ATOM      7  F   UNL     1      44.317  10.039  12.334  0.00  0.00    +0.000 F 
ATOM      8  C   UNL     1      44.788   7.825  11.672  0.00  0.00    +0.000 A 
ATOM      9  C   UNL     1      45.718   6.802  11.438  0.00  0.00    +0.000 A 
ATOM     10  C   UNL     1      47.079   7.066  11.650  0.00  0.00    +0.000 A 
BRANCH   9  11
ATOM     11  C   UNL     1      45.264   5.451  10.945  0.00  0.00    +0.000 C 
BRANCH  11  12
ATOM     12  C   UNL     1      44.606   4.659  12.068  0.00  0.00    +0.000 C 
ATOM     13  C   UNL     1      45.327   3.340  12.410  0.00  0.00    +0.000 C 
ATOM     14  N   UNL     1      44.042   2.631  12.388  0.00  0.00    +0.000 NA
ATOM     15  C   UNL     1      43.391   3.772  11.727  0.00  0.00    +0.000 C 
ATOM     16  H   UNL     1      43.670   2.427  13.316  0.00  0.00    +0.000 HD
ENDBRANCH  11  12
ENDBRANCH   9  11
ENDBRANCH   1   4
BRANCH   1  17
ATOM     17  C   UNL     1      49.755   7.366  12.639  0.00  0.00    +0.000 C 
BRANCH  17  22
ATOM     18  C   UNL     1      48.037   5.255  16.806  0.00  0.00    +0.000 A 
ATOM     19  C   UNL     1      49.091   6.054  17.237  0.00  0.00    +0.000 A 
ATOM     20  C   UNL     1      49.813   6.792  16.297  0.00  0.00    +0.000 A 
ATOM     21  C   UNL     1      49.464   6.730  14.950  0.00  0.00    +0.000 A 
ATOM     22  N   UNL     1      50.237   7.452  14.033  0.00  0.00    +0.000 N 
ATOM     23  N   UNL     1      48.455   5.944  14.521  0.00  0.00    +0.000 NA
ATOM     24  C   UNL     1      47.770   5.221  15.445  0.00  0.00    +0.000 A 
ATOM     25  H   UNL     1      50.351   8.417  14.337  0.00  0.00    +0.000 HD
BRANCH  18  27
ATOM     26  N   UNL     1      47.070   4.886  19.002  0.00  0.00    +0.000 N 
ATOM     27  C   UNL     1      47.217   4.435  17.720  0.00  0.00    +0.000 C 
ATOM     28  O   UNL     1      46.660   3.415  17.338  0.00  0.00    +0.000 OA
ATOM     29  H   UNL     1      46.427   4.369  19.589  0.00  0.00    +0.000 HD
ATOM     30  H   UNL     1      47.304   5.827  19.283  0.00  0.00    +0.000 HD
ENDBRANCH  18  27
ENDBRANCH  17  22
ENDBRANCH   1  17
TORSDOF 6
ENDMDL
