MODEL 1
REMARK VINA RESULT:    -6.934      0.000      0.000
REMARK INTER + INTRA:          -9.752
REMARK INTER:                  -8.960
REMARK INTRA:                  -0.791
REMARK UNBOUND:                -0.791
REMARK  Name = 
REMARK  6 active torsions:
REMARK  status: ('A' for Active; 'I' for Inactive)
REMARK    1  A    between atoms: N_1  and  C_2
REMARK    2  A    between atoms: C_2  and  C_3
REMARK    3  A    between atoms: C_6  and  C_7
REMARK    4  A    between atoms: C_7  and  N_8
REMARK    5  A    between atoms: C_14  and  C_15
REMARK    6  A    between atoms: C_15  and  O_17
REMARK                            x       y       z     vdW  Elec       q    Type
REMARK                         _______ _______ _______ _____ _____    ______ ____
ROOT
ATOM      1  N   UNL     1      44.146   5.361  11.342  0.00  0.00    +0.000 N 
ATOM      2  C   UNL     1      43.255   4.747  12.188  0.00  0.00    +0.000 A 
ATOM      3  C   UNL     1      43.156   3.425  11.821  0.00  0.00    +0.000 A 
ATOM      4  C   UNL     1      43.953   3.240  10.660  0.00  0.00    +0.000 A 
ATOM      5  C   UNL     1      44.229   2.126   9.843  0.00  0.00    +0.000 A 
ATOM      6  C   UNL     1      45.050   2.274   8.720  0.00  0.00    +0.000 A 
ATOM      7  C   UNL     1      45.583   3.525   8.396  0.00  0.00    +0.000 A 
ATOM      8  C   UNL     1      45.353   4.639   9.220  0.00  0.00    +0.000 A 
ATOM      9  C   UNL     1      44.535   4.476  10.352  0.00  0.00    +0.000 A 
ENDROOT
BRANCH   7  10
ATOM     10  C   UNL     1      46.441   3.722   7.201  0.00  0.00    +0.000 C 
ATOM     11  O   UNL     1      46.429   2.966   6.242  0.00  0.00    +0.000 OA
BRANCH  10  12
ATOM     12  O   UNL     1      47.274   4.781   7.288  0.00  0.00    +0.000 OA
ATOM     13  H   UNL     1      47.687   5.049   6.446  0.00  0.00    +0.000 HD
ENDBRANCH  10  12
ENDBRANCH   7  10
BRANCH   1  14
ATOM     14  C   UNL     1      44.584   6.745  11.485  0.00  0.00    +0.000 C 
BRANCH  14  18
ATOM     15  C   UNL     1      48.211   7.690  12.402  0.00  0.00    +0.000 C 
ATOM     16  C   UNL     1      47.667   6.251  12.348  0.00  0.00    +0.000 C 
ATOM     17  C   UNL     1      46.402   6.060  13.184  0.00  0.00    +0.000 C 
ATOM     18  C   UNL     1      45.283   7.055  12.830  0.00  0.00    +0.000 C 
ATOM     19  C   UNL     1      45.822   8.497  12.854  0.00  0.00    +0.000 C 
ATOM     20  C   UNL     1      47.097   8.684  12.030  0.00  0.00    +0.000 C 
BRANCH  15  21
ATOM     21  C   UNL     1      48.849   8.059  13.759  0.00  0.00    +0.000 C 
BRANCH  21  22
ATOM     22  N   UNL     1      49.774   7.035  14.232  0.00  0.00    +0.000 NA
ATOM     23  H   UNL     1      50.707   7.433  14.313  0.00  0.00    +0.000 HD
ATOM     24  H   UNL     1      49.843   6.287  13.542  0.00  0.00    +0.000 HD
ENDBRANCH  21  22
ENDBRANCH  15  21
ENDBRANCH  14  18
ENDBRANCH   1  14
TORSDOF 6
ENDMDL
MODEL 2
REMARK VINA RESULT:    -6.531      2.738      6.050
REMARK INTER + INTRA:          -9.232
REMARK INTER:                  -8.402
REMARK INTRA:                  -0.830
REMARK UNBOUND:                -0.791
REMARK  Name = 
REMARK  6 active torsions:
REMARK  status: ('A' for Active; 'I' for Inactive)
REMARK    1  A    between atoms: N_1  and  C_2
REMARK    2  A    between atoms: C_2  and  C_3
REMARK    3  A    between atoms: C_6  and  C_7
REMARK    4  A    between atoms: C_7  and  N_8
REMARK    5  A    between atoms: C_14  and  C_15
REMARK    6  A    between atoms: C_15  and  O_17
REMARK                            x       y       z     vdW  Elec       q    Type
REMARK                         _______ _______ _______ _____ _____    ______ ____
ROOT
ATOM      1  N   UNL     1      44.255   4.334  11.145  0.00  0.00    +0.000 N 
ATOM      2  C   UNL     1      42.925   4.606  11.356  0.00  0.00    +0.000 A 
ATOM      3  C   UNL     1      42.817   5.905  11.794  0.00  0.00    +0.000 A 
ATOM      4  C   UNL     1      44.132   6.423  11.934  0.00  0.00    +0.000 A 
ATOM      5  C   UNL     1      44.643   7.669  12.348  0.00  0.00    +0.000 A 
ATOM      6  C   UNL     1      46.027   7.867  12.412  0.00  0.00    +0.000 A 
ATOM      7  C   UNL     1      46.902   6.828  12.084  0.00  0.00    +0.000 A 
ATOM      8  C   UNL     1      46.414   5.592  11.630  0.00  0.00    +0.000 A 
ATOM      9  C   UNL     1      45.022   5.408  11.560  0.00  0.00    +0.000 A 
ENDROOT
BRANCH   7  10
ATOM     10  C   UNL     1      48.375   6.997  12.161  0.00  0.00    +0.000 C 
ATOM     11  O   UNL     1      48.988   7.809  11.487  0.00  0.00    +0.000 OA
BRANCH  10  12
ATOM     12  O   UNL     1      48.986   6.135  13.003  0.00  0.00    +0.000 OA
ATOM     13  H   UNL     1      48.585   6.073  13.889  0.00  0.00    +0.000 HD
ENDBRANCH  10  12
ENDBRANCH   7  10
BRANCH   1  14
ATOM     14  C   UNL     1      44.751   3.084  10.582  0.00  0.00    +0.000 C 
BRANCH  14  18
ATOM     15  C   UNL     1      46.880   2.699   7.386  0.00  0.00    +0.000 C 
ATOM     16  C   UNL     1      46.346   4.037   7.927  0.00  0.00    +0.000 C 
ATOM     17  C   UNL     1      44.838   4.019   8.178  0.00  0.00    +0.000 C 
ATOM     18  C   UNL     1      44.387   2.868   9.094  0.00  0.00    +0.000 C 
ATOM     19  C   UNL     1      44.938   1.526   8.578  0.00  0.00    +0.000 C 
ATOM     20  C   UNL     1      46.445   1.550   8.312  0.00  0.00    +0.000 C 
BRANCH  15  21
ATOM     21  C   UNL     1      46.470   2.415   5.924  0.00  0.00    +0.000 C 
BRANCH  21  22
ATOM     22  N   UNL     1      47.252   3.194   4.970  0.00  0.00    +0.000 NA
ATOM     23  H   UNL     1      47.938   3.754   5.472  0.00  0.00    +0.000 HD
ATOM     24  H   UNL     1      46.645   3.855   4.486  0.00  0.00    +0.000 HD
ENDBRANCH  21  22
ENDBRANCH  15  21
ENDBRANCH  14  18
ENDBRANCH   1  14
TORSDOF 6
ENDMDL
MODEL 3
REMARK VINA RESULT:    -6.002      4.313      7.610
REMARK INTER + INTRA:          -8.547
REMARK INTER:                  -7.939
REMARK INTRA:                  -0.609
REMARK UNBOUND:                -0.791
REMARK  Name = 
REMARK  6 active torsions:
REMARK  status: ('A' for Active; 'I' for Inactive)
REMARK    1  A    between atoms: N_1  and  C_2
REMARK    2  A    between atoms: C_2  and  C_3
REMARK    3  A    between atoms: C_6  and  C_7
REMARK    4  A    between atoms: C_7  and  N_8
REMARK    5  A    between atoms: C_14  and  C_15
REMARK    6  A    between atoms: C_15  and  O_17
REMARK                            x       y       z     vdW  Elec       q    Type
REMARK                         _______ _______ _______ _____ _____    ______ ____
ROOT
ATOM      1  N   UNL     1      48.189   6.665  14.083  0.00  0.00    +0.000 N 
ATOM      2  C   UNL     1      48.741   7.922  14.031  0.00  0.00    +0.000 A 
ATOM      3  C   UNL     1      49.312   8.189  15.253  0.00  0.00    +0.000 A 
ATOM      4  C   UNL     1      49.031   7.091  16.110  0.00  0.00    +0.000 A 
ATOM      5  C   UNL     1      49.342   6.809  17.455  0.00  0.00    +0.000 A 
ATOM      6  C   UNL     1      48.882   5.624  18.040  0.00  0.00    +0.000 A 
ATOM      7  C   UNL     1      48.102   4.730  17.302  0.00  0.00    +0.000 A 
ATOM      8  C   UNL     1      47.815   4.974  15.949  0.00  0.00    +0.000 A 
ATOM      9  C   UNL     1      48.291   6.163  15.368  0.00  0.00    +0.000 A 
ENDROOT
BRANCH   7  10
ATOM     10  C   UNL     1      47.579   3.475  17.898  0.00  0.00    +0.000 C 
ATOM     11  O   UNL     1      46.583   2.905  17.480  0.00  0.00    +0.000 OA
BRANCH  10  12
ATOM     12  O   UNL     1      48.271   3.045  18.975  0.00  0.00    +0.000 OA
ATOM     13  H   UNL     1      48.081   3.525  19.802  0.00  0.00    +0.000 HD
ENDBRANCH  10  12
ENDBRANCH   7  10
BRANCH   1  14
ATOM     14  C   UNL     1      47.580   5.996  12.939  0.00  0.00    +0.000 C 
BRANCH  14  18
ATOM     15  C   UNL     1      44.919   4.025  10.956  0.00  0.00    +0.000 C 
ATOM     16  C   UNL     1      45.533   5.363  10.508  0.00  0.00    +0.000 C 
ATOM     17  C   UNL     1      45.435   6.452  11.577  0.00  0.00    +0.000 C 
ATOM     18  C   UNL     1      46.033   6.030  12.931  0.00  0.00    +0.000 C 
ATOM     19  C   UNL     1      45.447   4.678  13.377  0.00  0.00    +0.000 C 
ATOM     20  C   UNL     1      45.531   3.594  12.301  0.00  0.00    +0.000 C 
BRANCH  15  21
ATOM     21  C   UNL     1      43.377   4.046  11.034  0.00  0.00    +0.000 C 
BRANCH  21  22
ATOM     22  N   UNL     1      42.833   2.799  11.561  0.00  0.00    +0.000 NA
ATOM     23  H   UNL     1      42.375   2.980  12.452  0.00  0.00    +0.000 HD
ATOM     24  H   UNL     1      43.593   2.149  11.759  0.00  0.00    +0.000 HD
ENDBRANCH  21  22
ENDBRANCH  15  21
ENDBRANCH  14  18
ENDBRANCH   1  14
TORSDOF 6
ENDMDL
MODEL 4
REMARK VINA RESULT:    -5.997      4.066      5.277
REMARK INTER + INTRA:          -8.541
REMARK INTER:                  -8.463
REMARK INTRA:                  -0.078
REMARK UNBOUND:                -0.791
REMARK  Name = 
REMARK  6 active torsions:
REMARK  status: ('A' for Active; 'I' for Inactive)
REMARK    1  A    between atoms: N_1  and  C_2
REMARK    2  A    between atoms: C_2  and  C_3
REMARK    3  A    between atoms: C_6  and  C_7
REMARK    4  A    between atoms: C_7  and  N_8
REMARK    5  A    between atoms: C_14  and  C_15
REMARK    6  A    between atoms: C_15  and  O_17
REMARK                            x       y       z     vdW  Elec       q    Type
REMARK                         _______ _______ _______ _____ _____    ______ ____
ROOT
ATOM      1  N   UNL     1      47.213   5.046  13.937  0.00  0.00    +0.000 N 
ATOM      2  C   UNL     1      47.815   6.276  13.834  0.00  0.00    +0.000 A 
ATOM      3  C   UNL     1      47.235   6.951  12.786  0.00  0.00    +0.000 A 
ATOM      4  C   UNL     1      46.300   6.074  12.174  0.00  0.00    +0.000 A 
ATOM      5  C   UNL     1      45.431   6.202  11.072  0.00  0.00    +0.000 A 
ATOM      6  C   UNL     1      44.635   5.118  10.685  0.00  0.00    +0.000 A 
ATOM      7  C   UNL     1      44.712   3.906  11.375  0.00  0.00    +0.000 A 
ATOM      8  C   UNL     1      45.542   3.770  12.500  0.00  0.00    +0.000 A 
ATOM      9  C   UNL     1      46.330   4.869  12.886  0.00  0.00    +0.000 A 
ENDROOT
BRANCH   7  10
ATOM     10  C   UNL     1      43.899   2.729  10.978  0.00  0.00    +0.000 C 
ATOM     11  O   UNL     1      42.950   2.325  11.632  0.00  0.00    +0.000 OA
BRANCH  10  12
ATOM     12  O   UNL     1      44.332   2.111   9.858  0.00  0.00    +0.000 OA
ATOM     13  H   UNL     1      45.287   2.197   9.685  0.00  0.00    +0.000 HD
ENDBRANCH  10  12
ENDBRANCH   7  10
BRANCH   1  14
ATOM     14  C   UNL     1      47.497   4.086  14.998  0.00  0.00    +0.000 C 
BRANCH  14  18
ATOM     15  C   UNL     1      49.446   3.917  18.325  0.00  0.00    +0.000 C 
ATOM     16  C   UNL     1      48.419   2.871  17.856  0.00  0.00    +0.000 C 
ATOM     17  C   UNL     1      47.073   3.486  17.472  0.00  0.00    +0.000 C 
ATOM     18  C   UNL     1      47.193   4.605  16.423  0.00  0.00    +0.000 C 
ATOM     19  C   UNL     1      48.238   5.645  16.867  0.00  0.00    +0.000 C 
ATOM     20  C   UNL     1      49.580   5.027  17.267  0.00  0.00    +0.000 C 
BRANCH  15  21
ATOM     21  C   UNL     1      49.131   4.515  19.714  0.00  0.00    +0.000 C 
BRANCH  21  22
ATOM     22  N   UNL     1      48.439   3.566  20.579  0.00  0.00    +0.000 NA
ATOM     23  H   UNL     1      48.824   2.634  20.436  0.00  0.00    +0.000 HD
ATOM     24  H   UNL     1      47.456   3.511  20.314  0.00  0.00    +0.000 HD
ENDBRANCH  21  22
ENDBRANCH  15  21
ENDBRANCH  14  18
ENDBRANCH   1  14
TORSDOF 6
ENDMDL
MODEL 5
REMARK VINA RESULT:    -5.741      4.468      7.708
REMARK INTER + INTRA:          -8.210
REMARK INTER:                  -7.626
REMARK INTRA:                  -0.584
REMARK UNBOUND:                -0.791
REMARK  Name = 
REMARK  6 active torsions:
REMARK  status: ('A' for Active; 'I' for Inactive)
REMARK    1  A    between atoms: N_1  and  C_2
REMARK    2  A    between atoms: C_2  and  C_3
REMARK    3  A    between atoms: C_6  and  C_7
REMARK    4  A    between atoms: C_7  and  N_8
REMARK    5  A    between atoms: C_14  and  C_15
REMARK    6  A    between atoms: C_15  and  O_17
REMARK                            x       y       z     vdW  Elec       q    Type
REMARK                         _______ _______ _______ _____ _____    ______ ____
ROOT
ATOM      1  N   UNL     1      48.866   7.161  14.839  0.00  0.00    +0.000 N 
ATOM      2  C   UNL     1      49.975   7.966  14.744  0.00  0.00    +0.000 A 
ATOM      3  C   UNL     1      50.929   7.485  15.609  0.00  0.00    +0.000 A 
ATOM      4  C   UNL     1      50.357   6.396  16.318  0.00  0.00    +0.000 A 
ATOM      5  C   UNL     1      50.842   5.534  17.322  0.00  0.00    +0.000 A 
ATOM      6  C   UNL     1      50.002   4.551  17.859  0.00  0.00    +0.000 A 
ATOM      7  C   UNL     1      48.682   4.434  17.416  0.00  0.00    +0.000 A 
ATOM      8  C   UNL     1      48.193   5.257  16.388  0.00  0.00    +0.000 A 
ATOM      9  C   UNL     1      49.048   6.234  15.849  0.00  0.00    +0.000 A 
ENDROOT
BRANCH   7  10
ATOM     10  C   UNL     1      47.758   3.417  17.978  0.00  0.00    +0.000 C 
ATOM     11  O   UNL     1      46.723   3.081  17.425  0.00  0.00    +0.000 OA
BRANCH  10  12
ATOM     12  O   UNL     1      48.134   2.935  19.182  0.00  0.00    +0.000 OA
ATOM     13  H   UNL     1      48.720   2.157  19.148  0.00  0.00    +0.000 HD
ENDBRANCH  10  12
ENDBRANCH   7  10
BRANCH   1  14
ATOM     14  C   UNL     1      47.683   7.302  13.997  0.00  0.00    +0.000 C 
BRANCH  14  18
ATOM     15  C   UNL     1      44.708   5.917  11.965  0.00  0.00    +0.000 C 
ATOM     16  C   UNL     1      45.231   5.309  13.279  0.00  0.00    +0.000 C 
ATOM     17  C   UNL     1      46.732   5.022  13.248  0.00  0.00    +0.000 C 
ATOM     18  C   UNL     1      47.579   6.250  12.867  0.00  0.00    +0.000 C 
ATOM     19  C   UNL     1      47.048   6.883  11.568  0.00  0.00    +0.000 C 
ATOM     20  C   UNL     1      45.543   7.156  11.595  0.00  0.00    +0.000 C 
BRANCH  15  21
ATOM     21  C   UNL     1      44.663   4.912  10.793  0.00  0.00    +0.000 C 
BRANCH  21  22
ATOM     22  N   UNL     1      43.497   5.112   9.940  0.00  0.00    +0.000 NA
ATOM     23  H   UNL     1      43.567   4.508   9.124  0.00  0.00    +0.000 HD
ATOM     24  H   UNL     1      43.488   6.067   9.586  0.00  0.00    +0.000 HD
ENDBRANCH  21  22
ENDBRANCH  15  21
ENDBRANCH  14  18
ENDBRANCH   1  14
TORSDOF 6
ENDMDL
MODEL 6
REMARK VINA RESULT:    -5.503      4.109      5.979
REMARK INTER + INTRA:          -7.903
REMARK INTER:                  -7.259
REMARK INTRA:                  -0.643
REMARK UNBOUND:                -0.791
REMARK  Name = 
REMARK  6 active torsions:
REMARK  status: ('A' for Active; 'I' for Inactive)
REMARK    1  A    between atoms: N_1  and  C_2
REMARK    2  A    between atoms: C_2  and  C_3
REMARK    3  A    between atoms: C_6  and  C_7
REMARK    4  A    between atoms: C_7  and  N_8
REMARK    5  A    between atoms: C_14  and  C_15
REMARK    6  A    between atoms: C_15  and  O_17
REMARK                            x       y       z     vdW  Elec       q    Type
REMARK                         _______ _______ _______ _____ _____    ______ ____
ROOT
ATOM      1  N   UNL     1      48.116   6.929  13.988  0.00  0.00    +0.000 N 
ATOM      2  C   UNL     1      49.070   7.416  13.129  0.00  0.00    +0.000 A 
ATOM      3  C   UNL     1      48.578   7.329  11.848  0.00  0.00    +0.000 A 
ATOM      4  C   UNL     1      47.310   6.693  11.916  0.00  0.00    +0.000 A 
ATOM      5  C   UNL     1      46.357   6.329  10.944  0.00  0.00    +0.000 A 
ATOM      6  C   UNL     1      45.187   5.666  11.333  0.00  0.00    +0.000 A 
ATOM      7  C   UNL     1      44.970   5.349  12.676  0.00  0.00    +0.000 A 
ATOM      8  C   UNL     1      45.889   5.739  13.665  0.00  0.00    +0.000 A 
ATOM      9  C   UNL     1      47.056   6.413  13.264  0.00  0.00    +0.000 A 
ENDROOT
BRANCH   7  10
ATOM     10  C   UNL     1      43.751   4.627  13.121  0.00  0.00    +0.000 C 
ATOM     11  O   UNL     1      43.683   3.410  13.178  0.00  0.00    +0.000 OA
BRANCH  10  12
ATOM     12  O   UNL     1      42.706   5.433  13.405  0.00  0.00    +0.000 OA
ATOM     13  H   UNL     1      42.230   5.778  12.628  0.00  0.00    +0.000 HD
ENDBRANCH  10  12
ENDBRANCH   7  10
BRANCH   1  14
ATOM     14  C   UNL     1      48.241   6.952  15.441  0.00  0.00    +0.000 C 
BRANCH  14  18
ATOM     15  C   UNL     1      48.632   5.640  19.049  0.00  0.00    +0.000 C 
ATOM     16  C   UNL     1      49.623   6.587  18.349  0.00  0.00    +0.000 C 
ATOM     17  C   UNL     1      50.097   6.059  16.995  0.00  0.00    +0.000 C 
ATOM     18  C   UNL     1      48.943   5.710  16.039  0.00  0.00    +0.000 C 
ATOM     19  C   UNL     1      47.930   4.785  16.738  0.00  0.00    +0.000 C 
ATOM     20  C   UNL     1      47.468   5.307  18.100  0.00  0.00    +0.000 C 
BRANCH  15  21
ATOM     21  C   UNL     1      49.287   4.351  19.593  0.00  0.00    +0.000 C 
BRANCH  21  22
ATOM     22  N   UNL     1      48.356   3.547  20.377  0.00  0.00    +0.000 NA
ATOM     23  H   UNL     1      48.098   2.716  19.848  0.00  0.00    +0.000 HD
ATOM     24  H   UNL     1      47.492   4.068  20.527  0.00  0.00    +0.000 HD
ENDBRANCH  21  22
ENDBRANCH  15  21
ENDBRANCH  14  18
ENDBRANCH   1  14
TORSDOF 6
ENDMDL
MODEL 7
REMARK VINA RESULT:    -5.385      4.300      5.673
REMARK INTER + INTRA:          -7.750
REMARK INTER:                  -7.161
REMARK INTRA:                  -0.589
REMARK UNBOUND:                -0.791
REMARK  Name = 
REMARK  6 active torsions:
REMARK  status: ('A' for Active; 'I' for Inactive)
REMARK    1  A    between atoms: N_1  and  C_2
REMARK    2  A    between atoms: C_2  and  C_3
REMARK    3  A    between atoms: C_6  and  C_7
REMARK    4  A    between atoms: C_7  and  N_8
REMARK    5  A    between atoms: C_14  and  C_15
REMARK    6  A    between atoms: C_15  and  O_17
REMARK                            x       y       z     vdW  Elec       q    Type
REMARK                         _______ _______ _______ _____ _____    ______ ____
ROOT
ATOM      1  N   UNL     1      46.588   4.044  13.567  0.00  0.00    +0.000 N 
ATOM      2  C   UNL     1      45.958   2.954  13.017  0.00  0.00    +0.000 A 
ATOM      3  C   UNL     1      45.133   3.399  12.011  0.00  0.00    +0.000 A 
ATOM      4  C   UNL     1      45.198   4.817  11.996  0.00  0.00    +0.000 A 
ATOM      5  C   UNL     1      44.575   5.806  11.209  0.00  0.00    +0.000 A 
ATOM      6  C   UNL     1      44.825   7.159  11.466  0.00  0.00    +0.000 A 
ATOM      7  C   UNL     1      45.675   7.532  12.511  0.00  0.00    +0.000 A 
ATOM      8  C   UNL     1      46.336   6.561  13.281  0.00  0.00    +0.000 A 
ATOM      9  C   UNL     1      46.086   5.205  13.007  0.00  0.00    +0.000 A 
ENDROOT
BRANCH   7  10
ATOM     10  C   UNL     1      45.946   8.957  12.826  0.00  0.00    +0.000 C 
ATOM     11  O   UNL     1      47.066   9.388  13.049  0.00  0.00    +0.000 OA
BRANCH  10  12
ATOM     12  O   UNL     1      44.838   9.727  12.898  0.00  0.00    +0.000 OA
ATOM     13  H   UNL     1      44.808  10.333  13.660  0.00  0.00    +0.000 HD
ENDBRANCH  10  12
ENDBRANCH   7  10
BRANCH   1  14
ATOM     14  C   UNL     1      47.616   3.956  14.598  0.00  0.00    +0.000 C 
BRANCH  14  18
ATOM     15  C   UNL     1      49.326   3.980  18.058  0.00  0.00    +0.000 C 
ATOM     16  C   UNL     1      48.446   2.836  17.522  0.00  0.00    +0.000 C 
ATOM     17  C   UNL     1      47.077   3.312  17.039  0.00  0.00    +0.000 C 
ATOM     18  C   UNL     1      47.159   4.440  15.995  0.00  0.00    +0.000 C 
ATOM     19  C   UNL     1      48.059   5.579  16.507  0.00  0.00    +0.000 C 
ATOM     20  C   UNL     1      49.424   5.099  17.006  0.00  0.00    +0.000 C 
BRANCH  15  21
ATOM     21  C   UNL     1      48.853   4.540  19.417  0.00  0.00    +0.000 C 
BRANCH  21  22
ATOM     22  N   UNL     1      48.444   3.484  20.338  0.00  0.00    +0.000 NA
ATOM     23  H   UNL     1      49.167   3.351  21.041  0.00  0.00    +0.000 HD
ATOM     24  H   UNL     1      48.369   2.600  19.836  0.00  0.00    +0.000 HD
ENDBRANCH  21  22
ENDBRANCH  15  21
ENDBRANCH  14  18
ENDBRANCH   1  14
TORSDOF 6
ENDMDL
MODEL 8
REMARK VINA RESULT:    -5.163      2.740      4.703
REMARK INTER + INTRA:          -7.464
REMARK INTER:                  -6.723
REMARK INTRA:                  -0.741
REMARK UNBOUND:                -0.791
REMARK  Name = 
REMARK  6 active torsions:
REMARK  status: ('A' for Active; 'I' for Inactive)
REMARK    1  A    between atoms: N_1  and  C_2
REMARK    2  A    between atoms: C_2  and  C_3
REMARK    3  A    between atoms: C_6  and  C_7
REMARK    4  A    between atoms: C_7  and  N_8
REMARK    5  A    between atoms: C_14  and  C_15
REMARK    6  A    between atoms: C_15  and  O_17
REMARK                            x       y       z     vdW  Elec       q    Type
REMARK                         _______ _______ _______ _____ _____    ______ ____
ROOT
ATOM      1  N   UNL     1      47.371   7.282  12.784  0.00  0.00    +0.000 N 
ATOM      2  C   UNL     1      48.090   7.125  13.943  0.00  0.00    +0.000 A 
ATOM      3  C   UNL     1      47.914   5.834  14.385  0.00  0.00    +0.000 A 
ATOM      4  C   UNL     1      46.992   5.202  13.510  0.00  0.00    +0.000 A 
ATOM      5  C   UNL     1      46.430   3.910  13.465  0.00  0.00    +0.000 A 
ATOM      6  C   UNL     1      45.499   3.592  12.470  0.00  0.00    +0.000 A 
ATOM      7  C   UNL     1      45.111   4.554  11.534  0.00  0.00    +0.000 A 
ATOM      8  C   UNL     1      45.689   5.834  11.537  0.00  0.00    +0.000 A 
ATOM      9  C   UNL     1      46.631   6.140  12.534  0.00  0.00    +0.000 A 
ENDROOT
BRANCH   7  10
ATOM     10  C   UNL     1      44.110   4.256  10.479  0.00  0.00    +0.000 C 
ATOM     11  O   UNL     1      43.978   3.150   9.981  0.00  0.00    +0.000 OA
BRANCH  10  12
ATOM     12  O   UNL     1      43.394   5.330  10.079  0.00  0.00    +0.000 OA
ATOM     13  H   UNL     1      43.480   5.552   9.134  0.00  0.00    +0.000 HD
ENDBRANCH  10  12
ENDBRANCH   7  10
BRANCH   1  14
ATOM     14  C   UNL     1      47.393   8.492  11.970  0.00  0.00    +0.000 C 
BRANCH  14  18
ATOM     15  C   UNL     1      44.285  10.392  10.696  0.00  0.00    +0.000 C 
ATOM     16  C   UNL     1      45.740  10.798  10.404  0.00  0.00    +0.000 C 
ATOM     17  C   UNL     1      46.589  10.926  11.669  0.00  0.00    +0.000 C 
ATOM     18  C   UNL     1      46.565   9.664  12.549  0.00  0.00    +0.000 C 
ATOM     19  C   UNL     1      45.113   9.232  12.825  0.00  0.00    +0.000 C 
ATOM     20  C   UNL     1      44.260   9.119  11.559  0.00  0.00    +0.000 C 
BRANCH  15  21
ATOM     21  C   UNL     1      43.448  11.516  11.346  0.00  0.00    +0.000 C 
BRANCH  21  22
ATOM     22  N   UNL     1      42.252  11.002  12.005  0.00  0.00    +0.000 NA
ATOM     23  H   UNL     1      41.438  11.520  11.681  0.00  0.00    +0.000 HD
ATOM     24  H   UNL     1      42.313  11.168  13.009  0.00  0.00    +0.000 HD
ENDBRANCH  21  22
ENDBRANCH  15  21
ENDBRANCH  14  18
ENDBRANCH   1  14
TORSDOF 6
ENDMDL
MODEL 9
REMARK VINA RESULT:    -5.125      3.118      4.256
REMARK INTER + INTRA:          -7.415
REMARK INTER:                  -6.845
REMARK INTRA:                  -0.570
REMARK UNBOUND:                -0.791
REMARK  Name = 
REMARK  6 active torsions:
REMARK  status: ('A' for Active; 'I' for Inactive)
REMARK    1  A    between atoms: N_1  and  C_2
REMARK    2  A    between atoms: C_2  and  C_3
REMARK    3  A    between atoms: C_6  and  C_7
REMARK    4  A    between atoms: C_7  and  N_8
REMARK    5  A    between atoms: C_14  and  C_15
REMARK    6  A    between atoms: C_15  and  O_17
REMARK                            x       y       z     vdW  Elec       q    Type
REMARK                         _______ _______ _______ _____ _____    ______ ____
ROOT
ATOM      1  N   UNL     1      45.933   7.768  12.690  0.00  0.00    +0.000 N 
ATOM      2  C   UNL     1      45.488   8.903  12.058  0.00  0.00    +0.000 A 
ATOM      3  C   UNL     1      44.317   8.599  11.404  0.00  0.00    +0.000 A 
ATOM      4  C   UNL     1      44.077   7.209  11.576  0.00  0.00    +0.000 A 
ATOM      5  C   UNL     1      43.058   6.342  11.135  0.00  0.00    +0.000 A 
ATOM      6  C   UNL     1      43.121   4.980  11.449  0.00  0.00    +0.000 A 
ATOM      7  C   UNL     1      44.198   4.475  12.183  0.00  0.00    +0.000 A 
ATOM      8  C   UNL     1      45.202   5.330  12.665  0.00  0.00    +0.000 A 
ATOM      9  C   UNL     1      45.124   6.698  12.353  0.00  0.00    +0.000 A 
ENDROOT
BRANCH   7  10
ATOM     10  C   UNL     1      44.307   3.032  12.515  0.00  0.00    +0.000 C 
ATOM     11  O   UNL     1      43.338   2.295  12.605  0.00  0.00    +0.000 OA
BRANCH  10  12
ATOM     12  O   UNL     1      45.568   2.617  12.763  0.00  0.00    +0.000 OA
ATOM     13  H   UNL     1      45.928   2.890  13.626  0.00  0.00    +0.000 HD
ENDBRANCH  10  12
ENDBRANCH   7  10
BRANCH   1  14
ATOM     14  C   UNL     1      47.098   7.728  13.568  0.00  0.00    +0.000 C 
BRANCH  14  18
ATOM     15  C   UNL     1      50.525   9.120  12.468  0.00  0.00    +0.000 C 
ATOM     16  C   UNL     1      49.289   9.014  11.558  0.00  0.00    +0.000 C 
ATOM     17  C   UNL     1      48.683   7.611  11.535  0.00  0.00    +0.000 C 
ATOM     18  C   UNL     1      48.347   7.070  12.936  0.00  0.00    +0.000 C 
ATOM     19  C   UNL     1      49.568   7.196  13.865  0.00  0.00    +0.000 C 
ATOM     20  C   UNL     1      50.184   8.597  13.875  0.00  0.00    +0.000 C 
BRANCH  15  21
ATOM     21  C   UNL     1      51.773   8.407  11.903  0.00  0.00    +0.000 C 
BRANCH  21  22
ATOM     22  N   UNL     1      52.743   8.083  12.945  0.00  0.00    +0.000 NA
ATOM     23  H   UNL     1      53.626   7.817  12.514  0.00  0.00    +0.000 HD
ATOM     24  H   UNL     1      52.426   7.269  13.469  0.00  0.00    +0.000 HD
ENDBRANCH  21  22
ENDBRANCH  15  21
ENDBRANCH  14  18
ENDBRANCH   1  14
TORSDOF 6
ENDMDL
