MODEL 1
REMARK VINA RESULT:    -9.149      0.000      0.000
REMARK INTER + INTRA:         -11.741
REMARK INTER:                 -11.288
REMARK INTRA:                  -0.453
REMARK UNBOUND:                -0.453
REMARK  Name = 
REMARK  5 active torsions:
REMARK  status: ('A' for Active; 'I' for Inactive)
REMARK    1  A    between atoms: C_1  and  C_2
REMARK    2  A    between atoms: N_5  and  C_6
REMARK    3  A    between atoms: C_6  and  C_7
REMARK    4  A    between atoms: C_11  and  C_12
REMARK    5  A    between atoms: C_21  and  C_22
REMARK                            x       y       z     vdW  Elec       q    Type
REMARK                         _______ _______ _______ _____ _____    ______ ____
ROOT
ATOM      1  C   UNL     1      46.788   0.245   7.654  0.00  0.00    +0.000 C 
ATOM      2  C   UNL     1      46.229   1.592   8.020  0.00  0.00    +0.000 A 
ATOM      3  N   UNL     1      45.436   1.614   9.136  0.00  0.00    +0.000 NA
ATOM      4  C   UNL     1      44.927   2.785   9.564  0.00  0.00    +0.000 A 
ATOM      5  N   UNL     1      44.235   2.742  10.749  0.00  0.00    +0.000 N 
ATOM      6  C   UNL     1      45.172   3.960   8.874  0.00  0.00    +0.000 A 
ATOM      7  C   UNL     1      45.963   3.943   7.728  0.00  0.00    +0.000 A 
ATOM      8  C   UNL     1      46.506   2.743   7.276  0.00  0.00    +0.000 A 
ATOM      9  H   UNL     1      44.012   1.801  11.048  0.00  0.00    +0.000 HD
ENDROOT
BRANCH   8  10
ATOM     10  C   UNL     1      47.379   2.732   6.073  0.00  0.00    +0.000 C 
ATOM     11  N   UNL     1      48.725   2.563   6.278  0.00  0.00    +0.000 N 
ATOM     12  O   UNL     1      46.946   2.871   4.936  0.00  0.00    +0.000 OA
ATOM     13  H   UNL     1      49.165   2.618   7.181  0.00  0.00    +0.000 HD
ATOM     14  H   UNL     1      49.316   2.614   5.455  0.00  0.00    +0.000 HD
ENDBRANCH   8  10
BRANCH   5  15
ATOM     15  C   UNL     1      43.467   3.843  11.285  0.00  0.00    +0.000 C 
BRANCH  15  16
ATOM     16  C   UNL     1      44.378   4.911  11.841  0.00  0.00    +0.000 A 
ATOM     17  C   UNL     1      44.331   6.214  11.339  0.00  0.00    +0.000 A 
ATOM     18  C   UNL     1      45.207   7.179  11.825  0.00  0.00    +0.000 A 
ATOM     19  C   UNL     1      46.125   6.856  12.827  0.00  0.00    +0.000 A 
ATOM     20  C   UNL     1      46.190   5.561  13.374  0.00  0.00    +0.000 A 
ATOM     21  C   UNL     1      45.323   4.593  12.835  0.00  0.00    +0.000 A 
BRANCH  20  22
ATOM     22  C   UNL     1      47.089   5.248  14.506  0.00  0.00    +0.000 A 
ATOM     23  C   UNL     1      46.930   4.116  15.318  0.00  0.00    +0.000 A 
ATOM     24  C   UNL     1      47.773   3.899  16.408  0.00  0.00    +0.000 A 
ATOM     25  C   UNL     1      48.775   4.819  16.661  0.00  0.00    +0.000 A 
ATOM     26  N   UNL     1      48.982   5.917  15.910  0.00  0.00    +0.000 NA
ATOM     27  C   UNL     1      48.134   6.104  14.868  0.00  0.00    +0.000 A 
ENDBRANCH  20  22
ENDBRANCH  15  16
ENDBRANCH   5  15
TORSDOF 4
ENDMDL
MODEL 2
REMARK VINA RESULT:    -8.988      2.013      3.836
REMARK INTER + INTRA:         -11.544
REMARK INTER:                 -11.020
REMARK INTRA:                  -0.523
REMARK UNBOUND:                -0.453
REMARK  Name = 
REMARK  5 active torsions:
REMARK  status: ('A' for Active; 'I' for Inactive)
REMARK    1  A    between atoms: C_1  and  C_2
REMARK    2  A    between atoms: N_5  and  C_6
REMARK    3  A    between atoms: C_6  and  C_7
REMARK    4  A    between atoms: C_11  and  C_12
REMARK    5  A    between atoms: C_21  and  C_22
REMARK                            x       y       z     vdW  Elec       q    Type
REMARK                         _______ _______ _______ _____ _____    ______ ____
ROOT
ATOM      1  C   UNL     1      46.728   0.212   7.649  0.00  0.00    +0.000 C 
ATOM      2  C   UNL     1      46.213   1.575   8.020  0.00  0.00    +0.000 A 
ATOM      3  N   UNL     1      45.407   1.616   9.127  0.00  0.00    +0.000 NA
ATOM      4  C   UNL     1      44.935   2.800   9.560  0.00  0.00    +0.000 A 
ATOM      5  N   UNL     1      44.226   2.771  10.735  0.00  0.00    +0.000 N 
ATOM      6  C   UNL     1      45.231   3.972   8.884  0.00  0.00    +0.000 A 
ATOM      7  C   UNL     1      46.035   3.937   7.748  0.00  0.00    +0.000 A 
ATOM      8  C   UNL     1      46.541   2.722   7.292  0.00  0.00    +0.000 A 
ATOM      9  H   UNL     1      43.966   1.836  11.022  0.00  0.00    +0.000 HD
ENDROOT
BRANCH   8  10
ATOM     10  C   UNL     1      47.428   2.691   6.099  0.00  0.00    +0.000 C 
ATOM     11  N   UNL     1      48.759   2.441   6.316  0.00  0.00    +0.000 N 
ATOM     12  O   UNL     1      47.019   2.882   4.960  0.00  0.00    +0.000 OA
ATOM     13  H   UNL     1      49.189   2.449   7.226  0.00  0.00    +0.000 HD
ATOM     14  H   UNL     1      49.364   2.479   5.502  0.00  0.00    +0.000 HD
ENDBRANCH   8  10
BRANCH   5  15
ATOM     15  C   UNL     1      43.492   3.894  11.272  0.00  0.00    +0.000 C 
BRANCH  15  16
ATOM     16  C   UNL     1      44.430   4.902  11.891  0.00  0.00    +0.000 A 
ATOM     17  C   UNL     1      45.423   4.490  12.784  0.00  0.00    +0.000 A 
ATOM     18  C   UNL     1      46.252   5.431  13.386  0.00  0.00    +0.000 A 
ATOM     19  C   UNL     1      46.108   6.788  13.089  0.00  0.00    +0.000 A 
ATOM     20  C   UNL     1      45.135   7.242  12.179  0.00  0.00    +0.000 A 
ATOM     21  C   UNL     1      44.282   6.275  11.618  0.00  0.00    +0.000 A 
BRANCH  20  22
ATOM     22  C   UNL     1      45.054   8.665  11.787  0.00  0.00    +0.000 A 
ATOM     23  C   UNL     1      44.039   9.174  10.963  0.00  0.00    +0.000 A 
ATOM     24  C   UNL     1      44.042  10.515  10.577  0.00  0.00    +0.000 A 
ATOM     25  C   UNL     1      45.060  11.332  11.036  0.00  0.00    +0.000 A 
ATOM     26  N   UNL     1      46.053  10.901  11.837  0.00  0.00    +0.000 NA
ATOM     27  C   UNL     1      46.027   9.589  12.179  0.00  0.00    +0.000 A 
ENDBRANCH  20  22
ENDBRANCH  15  16
ENDBRANCH   5  15
TORSDOF 4
ENDMDL
MODEL 3
REMARK VINA RESULT:    -8.238      2.314      3.443
REMARK INTER + INTRA:         -10.618
REMARK INTER:                 -10.396
REMARK INTRA:                  -0.223
REMARK UNBOUND:                -0.453
REMARK  Name = 
REMARK  5 active torsions:
REMARK  status: ('A' for Active; 'I' for Inactive)
REMARK    1  A    between atoms: C_1  and  C_2
REMARK    2  A    between atoms: N_5  and  C_6
REMARK    3  A    between atoms: C_6  and  C_7
REMARK    4  A    between atoms: C_11  and  C_12
REMARK    5  A    between atoms: C_21  and  C_22
REMARK                            x       y       z     vdW  Elec       q    Type
REMARK                         _______ _______ _______ _____ _____    ______ ____
ROOT
ATOM      1  C   UNL     1      46.510   3.406   5.799  0.00  0.00    +0.000 C 
ATOM      2  C   UNL     1      46.018   3.150   7.196  0.00  0.00    +0.000 A 
ATOM      3  N   UNL     1      45.273   4.159   7.748  0.00  0.00    +0.000 NA
ATOM      4  C   UNL     1      44.752   4.000   8.980  0.00  0.00    +0.000 A 
ATOM      5  N   UNL     1      43.928   5.006   9.419  0.00  0.00    +0.000 N 
ATOM      6  C   UNL     1      44.986   2.843   9.705  0.00  0.00    +0.000 A 
ATOM      7  C   UNL     1      45.758   1.821   9.158  0.00  0.00    +0.000 A 
ATOM      8  C   UNL     1      46.295   1.964   7.881  0.00  0.00    +0.000 A 
ATOM      9  H   UNL     1      43.980   5.842   8.849  0.00  0.00    +0.000 HD
ENDROOT
BRANCH   8  10
ATOM     10  C   UNL     1      47.088   0.858   7.285  0.00  0.00    +0.000 C 
ATOM     11  N   UNL     1      46.745  -0.422   7.642  0.00  0.00    +0.000 N 
ATOM     12  O   UNL     1      48.018   1.048   6.510  0.00  0.00    +0.000 OA
ATOM     13  H   UNL     1      46.118  -0.643   8.397  0.00  0.00    +0.000 HD
ATOM     14  H   UNL     1      47.330  -1.165   7.274  0.00  0.00    +0.000 HD
ENDBRANCH   8  10
BRANCH   5  15
ATOM     15  C   UNL     1      43.417   5.112  10.766  0.00  0.00    +0.000 C 
BRANCH  15  16
ATOM     16  C   UNL     1      44.537   5.374  11.745  0.00  0.00    +0.000 A 
ATOM     17  C   UNL     1      44.686   4.574  12.881  0.00  0.00    +0.000 A 
ATOM     18  C   UNL     1      45.691   4.852  13.802  0.00  0.00    +0.000 A 
ATOM     19  C   UNL     1      46.565   5.919  13.586  0.00  0.00    +0.000 A 
ATOM     20  C   UNL     1      46.463   6.736  12.444  0.00  0.00    +0.000 A 
ATOM     21  C   UNL     1      45.412   6.460  11.552  0.00  0.00    +0.000 A 
BRANCH  20  22
ATOM     22  C   UNL     1      47.453   7.798  12.167  0.00  0.00    +0.000 A 
ATOM     23  C   UNL     1      48.785   7.529  11.818  0.00  0.00    +0.000 A 
ATOM     24  C   UNL     1      49.693   8.571  11.622  0.00  0.00    +0.000 A 
ATOM     25  C   UNL     1      49.246   9.872  11.768  0.00  0.00    +0.000 A 
ATOM     26  N   UNL     1      47.978  10.190  12.091  0.00  0.00    +0.000 NA
ATOM     27  C   UNL     1      47.127   9.153  12.289  0.00  0.00    +0.000 A 
ENDBRANCH  20  22
ENDBRANCH  15  16
ENDBRANCH   5  15
TORSDOF 4
ENDMDL
MODEL 4
REMARK VINA RESULT:    -7.681      3.168      7.263
REMARK INTER + INTRA:          -9.931
REMARK INTER:                  -9.147
REMARK INTRA:                  -0.783
REMARK UNBOUND:                -0.453
REMARK  Name = 
REMARK  5 active torsions:
REMARK  status: ('A' for Active; 'I' for Inactive)
REMARK    1  A    between atoms: C_1  and  C_2
REMARK    2  A    between atoms: N_5  and  C_6
REMARK    3  A    between atoms: C_6  and  C_7
REMARK    4  A    between atoms: C_11  and  C_12
REMARK    5  A    between atoms: C_21  and  C_22
REMARK                            x       y       z     vdW  Elec       q    Type
REMARK                         _______ _______ _______ _____ _____    ______ ____
ROOT
ATOM      1  C   UNL     1      49.773   7.038  15.126  0.00  0.00    +0.000 C 
ATOM      2  C   UNL     1      48.904   7.307  13.929  0.00  0.00    +0.000 A 
ATOM      3  N   UNL     1      47.636   6.793  13.998  0.00  0.00    +0.000 NA
ATOM      4  C   UNL     1      46.772   7.023  12.991  0.00  0.00    +0.000 A 
ATOM      5  N   UNL     1      45.491   6.570  13.183  0.00  0.00    +0.000 N 
ATOM      6  C   UNL     1      47.160   7.745  11.874  0.00  0.00    +0.000 A 
ATOM      7  C   UNL     1      48.453   8.255  11.788  0.00  0.00    +0.000 A 
ATOM      8  C   UNL     1      49.356   8.037  12.826  0.00  0.00    +0.000 A 
ATOM      9  H   UNL     1      45.404   5.935  13.967  0.00  0.00    +0.000 HD
ENDROOT
BRANCH   8  10
ATOM     10  C   UNL     1      50.724   8.612  12.749  0.00  0.00    +0.000 C 
ATOM     11  N   UNL     1      51.729   7.780  12.326  0.00  0.00    +0.000 N 
ATOM     12  O   UNL     1      50.977   9.773  13.048  0.00  0.00    +0.000 OA
ATOM     13  H   UNL     1      51.629   6.783  12.233  0.00  0.00    +0.000 HD
ATOM     14  H   UNL     1      52.668   8.166  12.331  0.00  0.00    +0.000 HD
ENDBRANCH   8  10
BRANCH   5  15
ATOM     15  C   UNL     1      44.469   6.557  12.161  0.00  0.00    +0.000 C 
BRANCH  15  16
ATOM     16  C   UNL     1      44.291   5.168  11.598  0.00  0.00    +0.000 A 
ATOM     17  C   UNL     1      43.406   4.269  12.198  0.00  0.00    +0.000 A 
ATOM     18  C   UNL     1      43.283   2.975  11.701  0.00  0.00    +0.000 A 
ATOM     19  C   UNL     1      44.032   2.574  10.592  0.00  0.00    +0.000 A 
ATOM     20  C   UNL     1      44.919   3.456   9.946  0.00  0.00    +0.000 A 
ATOM     21  C   UNL     1      45.055   4.743  10.494  0.00  0.00    +0.000 A 
BRANCH  20  22
ATOM     22  C   UNL     1      45.630   3.063   8.711  0.00  0.00    +0.000 A 
ATOM     23  C   UNL     1      46.044   1.748   8.453  0.00  0.00    +0.000 A 
ATOM     24  C   UNL     1      46.763   1.442   7.297  0.00  0.00    +0.000 A 
ATOM     25  C   UNL     1      47.045   2.463   6.406  0.00  0.00    +0.000 A 
ATOM     26  N   UNL     1      46.664   3.740   6.596  0.00  0.00    +0.000 NA
ATOM     27  C   UNL     1      45.981   4.004   7.737  0.00  0.00    +0.000 A 
ENDBRANCH  20  22
ENDBRANCH  15  16
ENDBRANCH   5  15
TORSDOF 4
ENDMDL
MODEL 5
REMARK VINA RESULT:    -7.031      3.693      8.468
REMARK INTER + INTRA:          -9.129
REMARK INTER:                  -8.695
REMARK INTRA:                  -0.434
REMARK UNBOUND:                -0.453
REMARK  Name = 
REMARK  5 active torsions:
REMARK  status: ('A' for Active; 'I' for Inactive)
REMARK    1  A    between atoms: C_1  and  C_2
REMARK    2  A    between atoms: N_5  and  C_6
REMARK    3  A    between atoms: C_6  and  C_7
REMARK    4  A    between atoms: C_11  and  C_12
REMARK    5  A    between atoms: C_21  and  C_22
REMARK                            x       y       z     vdW  Elec       q    Type
REMARK                         _______ _______ _______ _____ _____    ______ ____
ROOT
ATOM      1  C   UNL     1      49.861   1.861  17.390  0.00  0.00    +0.000 C 
ATOM      2  C   UNL     1      49.031   3.037  16.955  0.00  0.00    +0.000 A 
ATOM      3  N   UNL     1      48.313   2.853  15.803  0.00  0.00    +0.000 NA
ATOM      4  C   UNL     1      47.506   3.835  15.361  0.00  0.00    +0.000 A 
ATOM      5  N   UNL     1      46.737   3.535  14.263  0.00  0.00    +0.000 N 
ATOM      6  C   UNL     1      47.417   5.040  16.039  0.00  0.00    +0.000 A 
ATOM      7  C   UNL     1      48.157   5.242  17.201  0.00  0.00    +0.000 A 
ATOM      8  C   UNL     1      48.988   4.232  17.679  0.00  0.00    +0.000 A 
ATOM      9  H   UNL     1      47.025   2.684  13.795  0.00  0.00    +0.000 HD
ENDROOT
BRANCH   8  10
ATOM     10  C   UNL     1      49.751   4.436  18.938  0.00  0.00    +0.000 C 
ATOM     11  N   UNL     1      51.103   4.642  18.824  0.00  0.00    +0.000 N 
ATOM     12  O   UNL     1      49.226   4.421  20.045  0.00  0.00    +0.000 OA
ATOM     13  H   UNL     1      51.622   4.495  17.975  0.00  0.00    +0.000 HD
ATOM     14  H   UNL     1      51.622   4.723  19.692  0.00  0.00    +0.000 HD
ENDBRANCH   8  10
BRANCH   5  15
ATOM     15  C   UNL     1      45.947   4.498  13.533  0.00  0.00    +0.000 C 
BRANCH  15  16
ATOM     16  C   UNL     1      45.167   3.825  12.429  0.00  0.00    +0.000 A 
ATOM     17  C   UNL     1      43.856   3.394  12.649  0.00  0.00    +0.000 A 
ATOM     18  C   UNL     1      43.162   2.732  11.642  0.00  0.00    +0.000 A 
ATOM     19  C   UNL     1      43.765   2.510  10.402  0.00  0.00    +0.000 A 
ATOM     20  C   UNL     1      45.076   2.947  10.132  0.00  0.00    +0.000 A 
ATOM     21  C   UNL     1      45.770   3.575  11.181  0.00  0.00    +0.000 A 
BRANCH  20  22
ATOM     22  C   UNL     1      45.673   2.804   8.787  0.00  0.00    +0.000 A 
ATOM     23  C   UNL     1      46.170   1.587   8.297  0.00  0.00    +0.000 A 
ATOM     24  C   UNL     1      46.775   1.521   7.042  0.00  0.00    +0.000 A 
ATOM     25  C   UNL     1      46.862   2.678   6.289  0.00  0.00    +0.000 A 
ATOM     26  N   UNL     1      46.393   3.870   6.702  0.00  0.00    +0.000 NA
ATOM     27  C   UNL     1      45.825   3.901   7.933  0.00  0.00    +0.000 A 
ENDBRANCH  20  22
ENDBRANCH  15  16
ENDBRANCH   5  15
TORSDOF 4
ENDMDL
MODEL 6
REMARK VINA RESULT:    -7.016      2.955      5.037
REMARK INTER + INTRA:          -9.110
REMARK INTER:                  -8.466
REMARK INTRA:                  -0.644
REMARK UNBOUND:                -0.453
REMARK  Name = 
REMARK  5 active torsions:
REMARK  status: ('A' for Active; 'I' for Inactive)
REMARK    1  A    between atoms: C_1  and  C_2
REMARK    2  A    between atoms: N_5  and  C_6
REMARK    3  A    between atoms: C_6  and  C_7
REMARK    4  A    between atoms: C_11  and  C_12
REMARK    5  A    between atoms: C_21  and  C_22
REMARK                            x       y       z     vdW  Elec       q    Type
REMARK                         _______ _______ _______ _____ _____    ______ ____
ROOT
ATOM      1  C   UNL     1      42.455   5.433  11.908  0.00  0.00    +0.000 C 
ATOM      2  C   UNL     1      43.896   5.793  11.676  0.00  0.00    +0.000 A 
ATOM      3  N   UNL     1      44.388   6.790  12.475  0.00  0.00    +0.000 NA
ATOM      4  C   UNL     1      45.682   7.149  12.368  0.00  0.00    +0.000 A 
ATOM      5  N   UNL     1      46.126   8.077  13.277  0.00  0.00    +0.000 N 
ATOM      6  C   UNL     1      46.511   6.542  11.440  0.00  0.00    +0.000 A 
ATOM      7  C   UNL     1      46.015   5.540  10.611  0.00  0.00    +0.000 A 
ATOM      8  C   UNL     1      44.682   5.149  10.716  0.00  0.00    +0.000 A 
ATOM      9  H   UNL     1      45.375   8.533  13.782  0.00  0.00    +0.000 HD
ENDROOT
BRANCH   8  10
ATOM     10  C   UNL     1      44.162   4.055   9.854  0.00  0.00    +0.000 C 
ATOM     11  N   UNL     1      44.112   4.292   8.504  0.00  0.00    +0.000 N 
ATOM     12  O   UNL     1      43.783   2.979  10.300  0.00  0.00    +0.000 OA
ATOM     13  H   UNL     1      44.239   5.201   8.090  0.00  0.00    +0.000 HD
ATOM     14  H   UNL     1      43.702   3.561   7.932  0.00  0.00    +0.000 HD
ENDBRANCH   8  10
BRANCH   5  15
ATOM     15  C   UNL     1      47.418   8.720  13.221  0.00  0.00    +0.000 C 
BRANCH  15  16
ATOM     16  C   UNL     1      48.383   8.070  14.183  0.00  0.00    +0.000 A 
ATOM     17  C   UNL     1      49.668   8.589  14.357  0.00  0.00    +0.000 A 
ATOM     18  C   UNL     1      50.566   7.956  15.210  0.00  0.00    +0.000 A 
ATOM     19  C   UNL     1      50.182   6.810  15.910  0.00  0.00    +0.000 A 
ATOM     20  C   UNL     1      48.890   6.267  15.779  0.00  0.00    +0.000 A 
ATOM     21  C   UNL     1      48.016   6.901  14.878  0.00  0.00    +0.000 A 
BRANCH  20  22
ATOM     22  C   UNL     1      48.452   5.117  16.599  0.00  0.00    +0.000 A 
ATOM     23  C   UNL     1      49.195   4.623  17.682  0.00  0.00    +0.000 A 
ATOM     24  C   UNL     1      48.764   3.499  18.386  0.00  0.00    +0.000 A 
ATOM     25  C   UNL     1      47.582   2.891  18.000  0.00  0.00    +0.000 A 
ATOM     26  N   UNL     1      46.823   3.327  16.977  0.00  0.00    +0.000 NA
ATOM     27  C   UNL     1      47.280   4.412  16.305  0.00  0.00    +0.000 A 
ENDBRANCH  20  22
ENDBRANCH  15  16
ENDBRANCH   5  15
TORSDOF 4
ENDMDL
MODEL 7
REMARK VINA RESULT:    -6.911      3.952      8.705
REMARK INTER + INTRA:          -8.980
REMARK INTER:                  -8.444
REMARK INTRA:                  -0.536
REMARK UNBOUND:                -0.453
REMARK  Name = 
REMARK  5 active torsions:
REMARK  status: ('A' for Active; 'I' for Inactive)
REMARK    1  A    between atoms: C_1  and  C_2
REMARK    2  A    between atoms: N_5  and  C_6
REMARK    3  A    between atoms: C_6  and  C_7
REMARK    4  A    between atoms: C_11  and  C_12
REMARK    5  A    between atoms: C_21  and  C_22
REMARK                            x       y       z     vdW  Elec       q    Type
REMARK                         _______ _______ _______ _____ _____    ______ ____
ROOT
ATOM      1  C   UNL     1      49.347   2.765  17.759  0.00  0.00    +0.000 C 
ATOM      2  C   UNL     1      49.141   4.242  17.570  0.00  0.00    +0.000 A 
ATOM      3  N   UNL     1      48.820   4.631  16.296  0.00  0.00    +0.000 NA
ATOM      4  C   UNL     1      48.574   5.930  16.042  0.00  0.00    +0.000 A 
ATOM      5  N   UNL     1      48.152   6.224  14.769  0.00  0.00    +0.000 N 
ATOM      6  C   UNL     1      48.670   6.880  17.045  0.00  0.00    +0.000 A 
ATOM      7  C   UNL     1      49.013   6.496  18.338  0.00  0.00    +0.000 A 
ATOM      8  C   UNL     1      49.260   5.154  18.622  0.00  0.00    +0.000 A 
ATOM      9  H   UNL     1      48.280   5.458  14.118  0.00  0.00    +0.000 HD
ENDROOT
BRANCH   8  10
ATOM     10  C   UNL     1      49.592   4.741  20.010  0.00  0.00    +0.000 C 
ATOM     11  N   UNL     1      48.586   4.179  20.754  0.00  0.00    +0.000 N 
ATOM     12  O   UNL     1      50.705   4.888  20.501  0.00  0.00    +0.000 OA
ATOM     13  H   UNL     1      47.617   4.187  20.481  0.00  0.00    +0.000 HD
ATOM     14  H   UNL     1      48.807   3.953  21.718  0.00  0.00    +0.000 HD
ENDBRANCH   8  10
BRANCH   5  15
ATOM     15  C   UNL     1      48.008   7.564  14.247  0.00  0.00    +0.000 C 
BRANCH  15  16
ATOM     16  C   UNL     1      46.903   7.622  13.220  0.00  0.00    +0.000 A 
ATOM     17  C   UNL     1      46.181   8.802  13.022  0.00  0.00    +0.000 A 
ATOM     18  C   UNL     1      45.134   8.833  12.107  0.00  0.00    +0.000 A 
ATOM     19  C   UNL     1      44.810   7.691  11.370  0.00  0.00    +0.000 A 
ATOM     20  C   UNL     1      45.525   6.489  11.524  0.00  0.00    +0.000 A 
ATOM     21  C   UNL     1      46.551   6.472  12.486  0.00  0.00    +0.000 A 
BRANCH  20  22
ATOM     22  C   UNL     1      45.249   5.315  10.670  0.00  0.00    +0.000 A 
ATOM     23  C   UNL     1      45.698   5.210   9.345  0.00  0.00    +0.000 A 
ATOM     24  C   UNL     1      45.360   4.104   8.565  0.00  0.00    +0.000 A 
ATOM     25  C   UNL     1      44.584   3.109   9.131  0.00  0.00    +0.000 A 
ATOM     26  N   UNL     1      44.133   3.150  10.400  0.00  0.00    +0.000 NA
ATOM     27  C   UNL     1      44.468   4.246  11.124  0.00  0.00    +0.000 A 
ENDBRANCH  20  22
ENDBRANCH  15  16
ENDBRANCH   5  15
TORSDOF 4
ENDMDL
MODEL 8
REMARK VINA RESULT:    -6.782      2.541      4.211
REMARK INTER + INTRA:          -8.821
REMARK INTER:                  -8.145
REMARK INTRA:                  -0.677
REMARK UNBOUND:                -0.453
REMARK  Name = 
REMARK  5 active torsions:
REMARK  status: ('A' for Active; 'I' for Inactive)
REMARK    1  A    between atoms: C_1  and  C_2
REMARK    2  A    between atoms: N_5  and  C_6
REMARK    3  A    between atoms: C_6  and  C_7
REMARK    4  A    between atoms: C_11  and  C_12
REMARK    5  A    between atoms: C_21  and  C_22
REMARK                            x       y       z     vdW  Elec       q    Type
REMARK                         _______ _______ _______ _____ _____    ______ ____
ROOT
ATOM      1  C   UNL     1      43.418   2.966  11.772  0.00  0.00    +0.000 C 
ATOM      2  C   UNL     1      44.213   4.176  11.366  0.00  0.00    +0.000 A 
ATOM      3  N   UNL     1      44.226   5.200  12.276  0.00  0.00    +0.000 NA
ATOM      4  C   UNL     1      44.949   6.306  12.017  0.00  0.00    +0.000 A 
ATOM      5  N   UNL     1      45.001   7.239  13.023  0.00  0.00    +0.000 N 
ATOM      6  C   UNL     1      45.653   6.433  10.831  0.00  0.00    +0.000 A 
ATOM      7  C   UNL     1      45.629   5.404   9.893  0.00  0.00    +0.000 A 
ATOM      8  C   UNL     1      44.896   4.248  10.149  0.00  0.00    +0.000 A 
ATOM      9  H   UNL     1      44.320   7.077  13.754  0.00  0.00    +0.000 HD
ENDROOT
BRANCH   8  10
ATOM     10  C   UNL     1      44.900   3.136   9.163  0.00  0.00    +0.000 C 
ATOM     11  N   UNL     1      44.217   3.338   7.990  0.00  0.00    +0.000 N 
ATOM     12  O   UNL     1      45.474   2.072   9.360  0.00  0.00    +0.000 OA
ATOM     13  H   UNL     1      43.586   4.106   7.835  0.00  0.00    +0.000 HD
ATOM     14  H   UNL     1      44.178   2.552   7.349  0.00  0.00    +0.000 HD
ENDBRANCH   8  10
BRANCH   5  15
ATOM     15  C   UNL     1      45.569   8.560  12.881  0.00  0.00    +0.000 C 
BRANCH  15  16
ATOM     16  C   UNL     1      47.073   8.514  13.011  0.00  0.00    +0.000 A 
ATOM     17  C   UNL     1      47.884   9.176  12.086  0.00  0.00    +0.000 A 
ATOM     18  C   UNL     1      49.269   9.088  12.186  0.00  0.00    +0.000 A 
ATOM     19  C   UNL     1      49.854   8.352  13.219  0.00  0.00    +0.000 A 
ATOM     20  C   UNL     1      49.073   7.688  14.183  0.00  0.00    +0.000 A 
ATOM     21  C   UNL     1      47.676   7.757  14.034  0.00  0.00    +0.000 A 
BRANCH  20  22
ATOM     22  C   UNL     1      49.694   6.999  15.334  0.00  0.00    +0.000 A 
ATOM     23  C   UNL     1      51.058   7.102  15.641  0.00  0.00    +0.000 A 
ATOM     24  C   UNL     1      51.603   6.384  16.707  0.00  0.00    +0.000 A 
ATOM     25  C   UNL     1      50.765   5.580  17.458  0.00  0.00    +0.000 A 
ATOM     26  N   UNL     1      49.447   5.450  17.216  0.00  0.00    +0.000 NA
ATOM     27  C   UNL     1      48.954   6.150  16.164  0.00  0.00    +0.000 A 
ENDBRANCH  20  22
ENDBRANCH  15  16
ENDBRANCH   5  15
TORSDOF 4
ENDMDL
MODEL 9
REMARK VINA RESULT:    -6.433      4.589      6.514
REMARK INTER + INTRA:          -8.391
REMARK INTER:                  -7.651
REMARK INTRA:                  -0.740
REMARK UNBOUND:                -0.453
REMARK  Name = 
REMARK  5 active torsions:
REMARK  status: ('A' for Active; 'I' for Inactive)
REMARK    1  A    between atoms: C_1  and  C_2
REMARK    2  A    between atoms: N_5  and  C_6
REMARK    3  A    between atoms: C_6  and  C_7
REMARK    4  A    between atoms: C_11  and  C_12
REMARK    5  A    between atoms: C_21  and  C_22
REMARK                            x       y       z     vdW  Elec       q    Type
REMARK                         _______ _______ _______ _____ _____    ______ ____
ROOT
ATOM      1  C   UNL     1      42.817   5.696  11.407  0.00  0.00    +0.000 C 
ATOM      2  C   UNL     1      44.169   5.606  12.058  0.00  0.00    +0.000 A 
ATOM      3  N   UNL     1      44.734   6.805  12.403  0.00  0.00    +0.000 NA
ATOM      4  C   UNL     1      45.925   6.820  13.032  0.00  0.00    +0.000 A 
ATOM      5  N   UNL     1      46.373   8.051  13.443  0.00  0.00    +0.000 N 
ATOM      6  C   UNL     1      46.598   5.641  13.306  0.00  0.00    +0.000 A 
ATOM      7  C   UNL     1      46.039   4.419  12.941  0.00  0.00    +0.000 A 
ATOM      8  C   UNL     1      44.803   4.384  12.301  0.00  0.00    +0.000 A 
ATOM      9  H   UNL     1      45.853   8.821  13.038  0.00  0.00    +0.000 HD
ENDROOT
BRANCH   8  10
ATOM     10  C   UNL     1      44.191   3.077  11.944  0.00  0.00    +0.000 C 
ATOM     11  N   UNL     1      44.520   2.545  10.723  0.00  0.00    +0.000 N 
ATOM     12  O   UNL     1      43.420   2.478  12.684  0.00  0.00    +0.000 OA
ATOM     13  H   UNL     1      45.001   3.055  10.001  0.00  0.00    +0.000 HD
ATOM     14  H   UNL     1      44.053   1.682  10.466  0.00  0.00    +0.000 HD
ENDBRANCH   8  10
BRANCH   5  15
ATOM     15  C   UNL     1      47.694   8.304  13.971  0.00  0.00    +0.000 C 
BRANCH  15  16
ATOM     16  C   UNL     1      48.586   8.910  12.914  0.00  0.00    +0.000 A 
ATOM     17  C   UNL     1      48.250  10.127  12.316  0.00  0.00    +0.000 A 
ATOM     18  C   UNL     1      49.052  10.655  11.310  0.00  0.00    +0.000 A 
ATOM     19  C   UNL     1      50.206   9.980  10.905  0.00  0.00    +0.000 A 
ATOM     20  C   UNL     1      50.592   8.762  11.496  0.00  0.00    +0.000 A 
ATOM     21  C   UNL     1      49.740   8.230  12.480  0.00  0.00    +0.000 A 
BRANCH  20  22
ATOM     22  C   UNL     1      51.866   8.103  11.139  0.00  0.00    +0.000 A 
ATOM     23  C   UNL     1      51.983   7.186  10.084  0.00  0.00    +0.000 A 
ATOM     24  C   UNL     1      53.199   6.551   9.827  0.00  0.00    +0.000 A 
ATOM     25  C   UNL     1      54.285   6.855  10.627  0.00  0.00    +0.000 A 
ATOM     26  N   UNL     1      54.235   7.734  11.646  0.00  0.00    +0.000 NA
ATOM     27  C   UNL     1      53.034   8.322  11.877  0.00  0.00    +0.000 A 
ENDBRANCH  20  22
ENDBRANCH  15  16
ENDBRANCH   5  15
TORSDOF 4
ENDMDL
