MODEL 1
REMARK VINA RESULT:    -8.721      0.000      0.000
REMARK INTER + INTRA:         -12.874
REMARK INTER:                 -11.780
REMARK INTRA:                  -1.094
REMARK UNBOUND:                -1.094
REMARK  Name = 
REMARK  7 active torsions:
REMARK  status: ('A' for Active; 'I' for Inactive)
REMARK    1  A    between atoms: C_1  and  C_2
REMARK    2  A    between atoms: C_4  and  C_5
REMARK    3  A    between atoms: C_10  and  N_11
REMARK    4  A    between atoms: N_11  and  C_12
REMARK    5  A    between atoms: C_12  and  C_13
REMARK    6  A    between atoms: C_17  and  O_18
REMARK    7  A    between atoms: O_18  and  C_19
REMARK                            x       y       z     vdW  Elec       q    Type
REMARK                         _______ _______ _______ _____ _____    ______ ____
ROOT
ATOM      1  N   UNL     1      44.010   5.038   9.709  0.00  0.00    +0.000 N 
ATOM      2  H   UNL     1      43.194   5.215   9.131  0.00  0.00    +0.000 HD
ENDROOT
BRANCH   1   9
ATOM      3  C   UNL     1      44.074   1.969  10.171  0.00  0.00    +0.000 C 
ATOM      4  C   UNL     1      44.906   2.758   9.212  0.00  0.00    +0.000 A 
ATOM      5  C   UNL     1      45.862   2.032   8.472  0.00  0.00    +0.000 A 
ATOM      6  C   UNL     1      46.711   2.660   7.569  0.00  0.00    +0.000 A 
ATOM      7  C   UNL     1      46.565   4.025   7.444  0.00  0.00    +0.000 A 
ATOM      8  N   UNL     1      45.663   4.764   8.147  0.00  0.00    +0.000 NA
ATOM      9  C   UNL     1      44.835   4.142   9.029  0.00  0.00    +0.000 A 
BRANCH   6  10
ATOM     10  C   UNL     1      47.694   1.830   6.830  0.00  0.00    +0.000 C 
ATOM     11  N   UNL     1      48.651   2.437   6.071  0.00  0.00    +0.000 N 
ATOM     12  O   UNL     1      47.661   0.604   6.889  0.00  0.00    +0.000 OA
ATOM     13  H   UNL     1      48.770   3.429   5.948  0.00  0.00    +0.000 HD
ATOM     14  H   UNL     1      49.294   1.817   5.590  0.00  0.00    +0.000 HD
ENDBRANCH   6  10
ENDBRANCH   1   9
BRANCH   1  15
ATOM     15  C   UNL     1      43.912   5.288  11.155  0.00  0.00    +0.000 C 
ATOM     16  C   UNL     1      42.657   4.837  11.886  0.00  0.00    +0.000 C 
ATOM     17  C   UNL     1      42.865   6.293  11.648  0.00  0.00    +0.000 C 
BRANCH  15  18
ATOM     18  C   UNL     1      45.262   5.454  11.868  0.00  0.00    +0.000 A 
ATOM     19  C   UNL     1      46.079   6.576  11.637  0.00  0.00    +0.000 A 
ATOM     20  C   UNL     1      47.316   6.723  12.270  0.00  0.00    +0.000 A 
ATOM     21  C   UNL     1      47.765   5.757  13.170  0.00  0.00    +0.000 A 
ATOM     22  C   UNL     1      46.958   4.662  13.462  0.00  0.00    +0.000 A 
ATOM     23  C   UNL     1      45.741   4.512  12.793  0.00  0.00    +0.000 A 
BRANCH  22  24
ATOM     24  O   UNL     1      47.272   3.642  14.303  0.00  0.00    +0.000 OA
BRANCH  24  25
ATOM     25  C   UNL     1      47.467   3.925  15.680  0.00  0.00    +0.000 C 
ATOM     26  F   UNL     1      48.415   4.849  15.934  0.00  0.00    +0.000 F 
ATOM     27  F   UNL     1      46.301   4.372  16.197  0.00  0.00    +0.000 F 
ATOM     28  F   UNL     1      47.796   2.780  16.318  0.00  0.00    +0.000 F 
ENDBRANCH  24  25
ENDBRANCH  22  24
ENDBRANCH  15  18
ENDBRANCH   1  15
TORSDOF 6
ENDMDL
MODEL 2
REMARK VINA RESULT:    -8.203      2.421      3.003
REMARK INTER + INTRA:         -12.174
REMARK INTER:                 -11.109
REMARK INTRA:                  -1.065
REMARK UNBOUND:                -1.094
REMARK  Name = 
REMARK  7 active torsions:
REMARK  status: ('A' for Active; 'I' for Inactive)
REMARK    1  A    between atoms: C_1  and  C_2
REMARK    2  A    between atoms: C_4  and  C_5
REMARK    3  A    between atoms: C_10  and  N_11
REMARK    4  A    between atoms: N_11  and  C_12
REMARK    5  A    between atoms: C_12  and  C_13
REMARK    6  A    between atoms: C_17  and  O_18
REMARK    7  A    between atoms: O_18  and  C_19
REMARK                            x       y       z     vdW  Elec       q    Type
REMARK                         _______ _______ _______ _____ _____    ______ ____
ROOT
ATOM      1  N   UNL     1      44.062   4.909   9.725  0.00  0.00    +0.000 N 
ATOM      2  H   UNL     1      43.285   5.217   9.147  0.00  0.00    +0.000 HD
ENDROOT
BRANCH   1   9
ATOM      3  C   UNL     1      44.104   1.806   9.680  0.00  0.00    +0.000 C 
ATOM      4  C   UNL     1      44.970   2.735   8.891  0.00  0.00    +0.000 A 
ATOM      5  C   UNL     1      45.948   2.133   8.073  0.00  0.00    +0.000 A 
ATOM      6  C   UNL     1      46.828   2.894   7.314  0.00  0.00    +0.000 A 
ATOM      7  C   UNL     1      46.690   4.261   7.409  0.00  0.00    +0.000 A 
ATOM      8  N   UNL     1      45.766   4.883   8.194  0.00  0.00    +0.000 NA
ATOM      9  C   UNL     1      44.908   4.131   8.935  0.00  0.00    +0.000 A 
BRANCH   6  10
ATOM     10  C   UNL     1      47.834   2.189   6.481  0.00  0.00    +0.000 C 
ATOM     11  N   UNL     1      48.287   2.772   5.335  0.00  0.00    +0.000 N 
ATOM     12  O   UNL     1      48.267   1.087   6.806  0.00  0.00    +0.000 OA
ATOM     13  H   UNL     1      48.002   3.667   4.972  0.00  0.00    +0.000 HD
ATOM     14  H   UNL     1      48.973   2.242   4.809  0.00  0.00    +0.000 HD
ENDBRANCH   6  10
ENDBRANCH   1   9
BRANCH   1  15
ATOM     15  C   UNL     1      43.883   4.888  11.184  0.00  0.00    +0.000 C 
ATOM     16  C   UNL     1      42.747   4.060  11.764  0.00  0.00    +0.000 C 
ATOM     17  C   UNL     1      42.629   5.544  11.771  0.00  0.00    +0.000 C 
BRANCH  15  18
ATOM     18  C   UNL     1      45.148   5.223  11.988  0.00  0.00    +0.000 A 
ATOM     19  C   UNL     1      45.797   4.251  12.772  0.00  0.00    +0.000 A 
ATOM     20  C   UNL     1      46.939   4.556  13.518  0.00  0.00    +0.000 A 
ATOM     21  C   UNL     1      47.476   5.842  13.488  0.00  0.00    +0.000 A 
ATOM     22  C   UNL     1      46.892   6.812  12.681  0.00  0.00    +0.000 A 
ATOM     23  C   UNL     1      45.730   6.502  11.969  0.00  0.00    +0.000 A 
BRANCH  22  24
ATOM     24  O   UNL     1      47.298   8.104  12.565  0.00  0.00    +0.000 OA
BRANCH  24  25
ATOM     25  C   UNL     1      48.506   8.382  11.873  0.00  0.00    +0.000 C 
ATOM     26  F   UNL     1      49.602   8.432  12.657  0.00  0.00    +0.000 F 
ATOM     27  F   UNL     1      48.703   7.419  10.944  0.00  0.00    +0.000 F 
ATOM     28  F   UNL     1      48.378   9.564  11.231  0.00  0.00    +0.000 F 
ENDBRANCH  24  25
ENDBRANCH  22  24
ENDBRANCH  15  18
ENDBRANCH   1  15
TORSDOF 6
ENDMDL
MODEL 3
REMARK VINA RESULT:    -7.586      2.407      3.148
REMARK INTER + INTRA:         -11.341
REMARK INTER:                 -10.416
REMARK INTRA:                  -0.925
REMARK UNBOUND:                -1.094
REMARK  Name = 
REMARK  7 active torsions:
REMARK  status: ('A' for Active; 'I' for Inactive)
REMARK    1  A    between atoms: C_1  and  C_2
REMARK    2  A    between atoms: C_4  and  C_5
REMARK    3  A    between atoms: C_10  and  N_11
REMARK    4  A    between atoms: N_11  and  C_12
REMARK    5  A    between atoms: C_12  and  C_13
REMARK    6  A    between atoms: C_17  and  O_18
REMARK    7  A    between atoms: O_18  and  C_19
REMARK                            x       y       z     vdW  Elec       q    Type
REMARK                         _______ _______ _______ _____ _____    ______ ____
ROOT
ATOM      1  N   UNL     1      44.472   5.147  10.095  0.00  0.00    +0.000 N 
ATOM      2  H   UNL     1      43.498   5.188   9.808  0.00  0.00    +0.000 HD
ENDROOT
BRANCH   1   9
ATOM      3  C   UNL     1      44.152   2.065   9.894  0.00  0.00    +0.000 C 
ATOM      4  C   UNL     1      45.051   2.938   9.078  0.00  0.00    +0.000 A 
ATOM      5  C   UNL     1      45.882   2.280   8.148  0.00  0.00    +0.000 A 
ATOM      6  C   UNL     1      46.778   2.982   7.351  0.00  0.00    +0.000 A 
ATOM      7  C   UNL     1      46.807   4.349   7.525  0.00  0.00    +0.000 A 
ATOM      8  N   UNL     1      46.029   5.022   8.419  0.00  0.00    +0.000 NA
ATOM      9  C   UNL     1      45.154   4.327   9.196  0.00  0.00    +0.000 A 
BRANCH   6  10
ATOM     10  C   UNL     1      47.623   2.221   6.399  0.00  0.00    +0.000 C 
ATOM     11  N   UNL     1      48.062   2.824   5.257  0.00  0.00    +0.000 N 
ATOM     12  O   UNL     1      47.935   1.054   6.620  0.00  0.00    +0.000 OA
ATOM     13  H   UNL     1      47.867   3.770   4.973  0.00  0.00    +0.000 HD
ATOM     14  H   UNL     1      48.636   2.252   4.646  0.00  0.00    +0.000 HD
ENDBRANCH   6  10
ENDBRANCH   1   9
BRANCH   1  15
ATOM     15  C   UNL     1      44.803   5.461  11.493  0.00  0.00    +0.000 C 
ATOM     16  C   UNL     1      45.171   4.317  12.425  0.00  0.00    +0.000 C 
ATOM     17  C   UNL     1      43.848   4.980  12.590  0.00  0.00    +0.000 C 
BRANCH  15  18
ATOM     18  C   UNL     1      45.287   6.899  11.727  0.00  0.00    +0.000 A 
ATOM     19  C   UNL     1      44.503   8.006  11.353  0.00  0.00    +0.000 A 
ATOM     20  C   UNL     1      44.947   9.317  11.549  0.00  0.00    +0.000 A 
ATOM     21  C   UNL     1      46.185   9.559  12.144  0.00  0.00    +0.000 A 
ATOM     22  C   UNL     1      46.961   8.488  12.575  0.00  0.00    +0.000 A 
ATOM     23  C   UNL     1      46.520   7.184  12.339  0.00  0.00    +0.000 A 
BRANCH  22  24
ATOM     24  O   UNL     1      48.187   8.575  13.154  0.00  0.00    +0.000 OA
BRANCH  24  25
ATOM     25  C   UNL     1      49.315   8.078  12.449  0.00  0.00    +0.000 C 
ATOM     26  F   UNL     1      49.148   7.994  11.113  0.00  0.00    +0.000 F 
ATOM     27  F   UNL     1      50.365   8.896  12.686  0.00  0.00    +0.000 F 
ATOM     28  F   UNL     1      49.622   6.852  12.925  0.00  0.00    +0.000 F 
ENDBRANCH  24  25
ENDBRANCH  22  24
ENDBRANCH  15  18
ENDBRANCH   1  15
TORSDOF 6
ENDMDL
MODEL 4
REMARK VINA RESULT:    -6.859      4.400      7.579
REMARK INTER + INTRA:         -10.358
REMARK INTER:                  -9.887
REMARK INTRA:                  -0.472
REMARK UNBOUND:                -1.094
REMARK  Name = 
REMARK  7 active torsions:
REMARK  status: ('A' for Active; 'I' for Inactive)
REMARK    1  A    between atoms: C_1  and  C_2
REMARK    2  A    between atoms: C_4  and  C_5
REMARK    3  A    between atoms: C_10  and  N_11
REMARK    4  A    between atoms: N_11  and  C_12
REMARK    5  A    between atoms: C_12  and  C_13
REMARK    6  A    between atoms: C_17  and  O_18
REMARK    7  A    between atoms: O_18  and  C_19
REMARK                            x       y       z     vdW  Elec       q    Type
REMARK                         _______ _______ _______ _____ _____    ______ ____
ROOT
ATOM      1  N   UNL     1      47.273   5.913  12.625  0.00  0.00    +0.000 N 
ATOM      2  H   UNL     1      47.973   5.423  12.076  0.00  0.00    +0.000 HD
ENDROOT
BRANCH   1   9
ATOM      3  C   UNL     1      49.049   7.723  14.416  0.00  0.00    +0.000 C 
ATOM      4  C   UNL     1      48.345   6.465  14.815  0.00  0.00    +0.000 A 
ATOM      5  C   UNL     1      48.554   6.028  16.138  0.00  0.00    +0.000 A 
ATOM      6  C   UNL     1      47.974   4.858  16.616  0.00  0.00    +0.000 A 
ATOM      7  C   UNL     1      47.192   4.158  15.724  0.00  0.00    +0.000 A 
ATOM      8  N   UNL     1      46.973   4.540  14.435  0.00  0.00    +0.000 NA
ATOM      9  C   UNL     1      47.544   5.686  13.975  0.00  0.00    +0.000 A 
BRANCH   6  10
ATOM     10  C   UNL     1      48.244   4.459  18.019  0.00  0.00    +0.000 C 
ATOM     11  N   UNL     1      47.503   5.002  19.028  0.00  0.00    +0.000 N 
ATOM     12  O   UNL     1      49.124   3.647  18.291  0.00  0.00    +0.000 OA
ATOM     13  H   UNL     1      46.761   5.675  18.923  0.00  0.00    +0.000 HD
ATOM     14  H   UNL     1      47.733   4.689  19.965  0.00  0.00    +0.000 HD
ENDBRANCH   6  10
ENDBRANCH   1   9
BRANCH   1  15
ATOM     15  C   UNL     1      45.993   6.254  11.986  0.00  0.00    +0.000 C 
ATOM     16  C   UNL     1      45.692   7.717  11.702  0.00  0.00    +0.000 C 
ATOM     17  C   UNL     1      44.959   7.034  12.804  0.00  0.00    +0.000 C 
BRANCH  15  18
ATOM     18  C   UNL     1      45.359   5.113  11.177  0.00  0.00    +0.000 A 
ATOM     19  C   UNL     1      44.584   4.117  11.799  0.00  0.00    +0.000 A 
ATOM     20  C   UNL     1      44.019   3.067  11.068  0.00  0.00    +0.000 A 
ATOM     21  C   UNL     1      44.199   2.994   9.688  0.00  0.00    +0.000 A 
ATOM     22  C   UNL     1      44.913   3.992   9.034  0.00  0.00    +0.000 A 
ATOM     23  C   UNL     1      45.502   5.015   9.782  0.00  0.00    +0.000 A 
BRANCH  22  24
ATOM     24  O   UNL     1      45.178   4.042   7.702  0.00  0.00    +0.000 OA
BRANCH  24  25
ATOM     25  C   UNL     1      46.322   3.366   7.205  0.00  0.00    +0.000 C 
ATOM     26  F   UNL     1      46.681   2.276   7.914  0.00  0.00    +0.000 F 
ATOM     27  F   UNL     1      46.073   2.972   5.936  0.00  0.00    +0.000 F 
ATOM     28  F   UNL     1      47.362   4.228   7.180  0.00  0.00    +0.000 F 
ENDBRANCH  24  25
ENDBRANCH  22  24
ENDBRANCH  15  18
ENDBRANCH   1  15
TORSDOF 6
ENDMDL
MODEL 5
REMARK VINA RESULT:    -6.760      4.704      7.587
REMARK INTER + INTRA:         -10.226
REMARK INTER:                  -9.408
REMARK INTRA:                  -0.818
REMARK UNBOUND:                -1.094
REMARK  Name = 
REMARK  7 active torsions:
REMARK  status: ('A' for Active; 'I' for Inactive)
REMARK    1  A    between atoms: C_1  and  C_2
REMARK    2  A    between atoms: C_4  and  C_5
REMARK    3  A    between atoms: C_10  and  N_11
REMARK    4  A    between atoms: N_11  and  C_12
REMARK    5  A    between atoms: C_12  and  C_13
REMARK    6  A    between atoms: C_17  and  O_18
REMARK    7  A    between atoms: O_18  and  C_19
REMARK                            x       y       z     vdW  Elec       q    Type
REMARK                         _______ _______ _______ _____ _____    ______ ____
ROOT
ATOM      1  N   UNL     1      46.557   5.190  14.775  0.00  0.00    +0.000 N 
ATOM      2  H   UNL     1      45.880   5.615  15.401  0.00  0.00    +0.000 HD
ENDROOT
BRANCH   1   9
ATOM      3  C   UNL     1      48.577   6.734  16.557  0.00  0.00    +0.000 C 
ATOM      4  C   UNL     1      48.491   5.255  16.358  0.00  0.00    +0.000 A 
ATOM      5  C   UNL     1      49.468   4.480  17.015  0.00  0.00    +0.000 A 
ATOM      6  C   UNL     1      49.507   3.097  16.885  0.00  0.00    +0.000 A 
ATOM      7  C   UNL     1      48.541   2.534  16.080  0.00  0.00    +0.000 A 
ATOM      8  N   UNL     1      47.586   3.246  15.420  0.00  0.00    +0.000 NA
ATOM      9  C   UNL     1      47.555   4.600  15.552  0.00  0.00    +0.000 A 
BRANCH   6  10
ATOM     10  C   UNL     1      50.569   2.350  17.603  0.00  0.00    +0.000 C 
ATOM     11  N   UNL     1      51.351   2.998  18.513  0.00  0.00    +0.000 N 
ATOM     12  O   UNL     1      50.757   1.155  17.392  0.00  0.00    +0.000 OA
ATOM     13  H   UNL     1      51.288   3.971  18.762  0.00  0.00    +0.000 HD
ATOM     14  H   UNL     1      52.058   2.434  18.971  0.00  0.00    +0.000 HD
ENDBRANCH   6  10
ENDBRANCH   1   9
BRANCH   1  15
ATOM     15  C   UNL     1      46.634   5.679  13.390  0.00  0.00    +0.000 C 
ATOM     16  C   UNL     1      47.933   6.311  12.915  0.00  0.00    +0.000 C 
ATOM     17  C   UNL     1      46.755   7.188  13.160  0.00  0.00    +0.000 C 
BRANCH  15  18
ATOM     18  C   UNL     1      45.641   5.017  12.423  0.00  0.00    +0.000 A 
ATOM     19  C   UNL     1      44.551   4.264  12.895  0.00  0.00    +0.000 A 
ATOM     20  C   UNL     1      43.655   3.646  12.018  0.00  0.00    +0.000 A 
ATOM     21  C   UNL     1      43.814   3.780  10.639  0.00  0.00    +0.000 A 
ATOM     22  C   UNL     1      44.849   4.563  10.140  0.00  0.00    +0.000 A 
ATOM     23  C   UNL     1      45.758   5.144  11.028  0.00  0.00    +0.000 A 
BRANCH  22  24
ATOM     24  O   UNL     1      45.131   4.770   8.827  0.00  0.00    +0.000 OA
BRANCH  24  25
ATOM     25  C   UNL     1      45.501   3.660   8.023  0.00  0.00    +0.000 C 
ATOM     26  F   UNL     1      46.459   3.923   7.111  0.00  0.00    +0.000 F 
ATOM     27  F   UNL     1      45.955   2.675   8.830  0.00  0.00    +0.000 F 
ATOM     28  F   UNL     1      44.404   3.203   7.379  0.00  0.00    +0.000 F 
ENDBRANCH  24  25
ENDBRANCH  22  24
ENDBRANCH  15  18
ENDBRANCH   1  15
TORSDOF 6
ENDMDL
MODEL 6
REMARK VINA RESULT:    -6.697      4.348      7.101
REMARK INTER + INTRA:         -10.140
REMARK INTER:                 -10.593
REMARK INTRA:                   0.453
REMARK UNBOUND:                -1.094
REMARK  Name = 
REMARK  7 active torsions:
REMARK  status: ('A' for Active; 'I' for Inactive)
REMARK    1  A    between atoms: C_1  and  C_2
REMARK    2  A    between atoms: C_4  and  C_5
REMARK    3  A    between atoms: C_10  and  N_11
REMARK    4  A    between atoms: N_11  and  C_12
REMARK    5  A    between atoms: C_12  and  C_13
REMARK    6  A    between atoms: C_17  and  O_18
REMARK    7  A    between atoms: O_18  and  C_19
REMARK                            x       y       z     vdW  Elec       q    Type
REMARK                         _______ _______ _______ _____ _____    ______ ____
ROOT
ATOM      1  N   UNL     1      44.914   6.634  11.094  0.00  0.00    +0.000 N 
ATOM      2  H   UNL     1      45.170   7.061  10.209  0.00  0.00    +0.000 HD
ENDROOT
BRANCH   1   9
ATOM      3  C   UNL     1      45.203   9.378  12.516  0.00  0.00    +0.000 C 
ATOM      4  C   UNL     1      46.073   8.174  12.685  0.00  0.00    +0.000 A 
ATOM      5  C   UNL     1      47.177   8.320  13.550  0.00  0.00    +0.000 A 
ATOM      6  C   UNL     1      48.073   7.279  13.766  0.00  0.00    +0.000 A 
ATOM      7  C   UNL     1      47.819   6.106  13.088  0.00  0.00    +0.000 A 
ATOM      8  N   UNL     1      46.770   5.927  12.237  0.00  0.00    +0.000 NA
ATOM      9  C   UNL     1      45.898   6.951  12.030  0.00  0.00    +0.000 A 
BRANCH   6  10
ATOM     10  C   UNL     1      49.214   7.508  14.686  0.00  0.00    +0.000 C 
ATOM     11  N   UNL     1      49.575   8.784  15.005  0.00  0.00    +0.000 N 
ATOM     12  O   UNL     1      49.840   6.569  15.166  0.00  0.00    +0.000 OA
ATOM     13  H   UNL     1      49.137   9.626  14.669  0.00  0.00    +0.000 HD
ATOM     14  H   UNL     1      50.362   8.877  15.638  0.00  0.00    +0.000 HD
ENDBRANCH   6  10
ENDBRANCH   1   9
BRANCH   1  15
ATOM     15  C   UNL     1      43.990   5.489  11.078  0.00  0.00    +0.000 C 
ATOM     16  C   UNL     1      42.544   5.718  11.487  0.00  0.00    +0.000 C 
ATOM     17  C   UNL     1      43.444   4.979  12.415  0.00  0.00    +0.000 C 
BRANCH  15  18
ATOM     18  C   UNL     1      44.408   4.345  10.142  0.00  0.00    +0.000 A 
ATOM     19  C   UNL     1      44.067   3.009  10.423  0.00  0.00    +0.000 A 
ATOM     20  C   UNL     1      44.459   1.963   9.582  0.00  0.00    +0.000 A 
ATOM     21  C   UNL     1      45.190   2.226   8.425  0.00  0.00    +0.000 A 
ATOM     22  C   UNL     1      45.496   3.540   8.090  0.00  0.00    +0.000 A 
ATOM     23  C   UNL     1      45.129   4.572   8.958  0.00  0.00    +0.000 A 
BRANCH  22  24
ATOM     24  O   UNL     1      46.210   3.942   7.005  0.00  0.00    +0.000 OA
BRANCH  24  25
ATOM     25  C   UNL     1      46.971   2.979   6.292  0.00  0.00    +0.000 C 
ATOM     26  F   UNL     1      46.420   1.749   6.248  0.00  0.00    +0.000 F 
ATOM     27  F   UNL     1      47.128   3.410   5.020  0.00  0.00    +0.000 F 
ATOM     28  F   UNL     1      48.195   2.885   6.856  0.00  0.00    +0.000 F 
ENDBRANCH  24  25
ENDBRANCH  22  24
ENDBRANCH  15  18
ENDBRANCH   1  15
TORSDOF 6
ENDMDL
MODEL 7
REMARK VINA RESULT:    -6.657      4.108      7.047
REMARK INTER + INTRA:         -10.085
REMARK INTER:                  -9.325
REMARK INTRA:                  -0.760
REMARK UNBOUND:                -1.094
REMARK  Name = 
REMARK  7 active torsions:
REMARK  status: ('A' for Active; 'I' for Inactive)
REMARK    1  A    between atoms: C_1  and  C_2
REMARK    2  A    between atoms: C_4  and  C_5
REMARK    3  A    between atoms: C_10  and  N_11
REMARK    4  A    between atoms: N_11  and  C_12
REMARK    5  A    between atoms: C_12  and  C_13
REMARK    6  A    between atoms: C_17  and  O_18
REMARK    7  A    between atoms: O_18  and  C_19
REMARK                            x       y       z     vdW  Elec       q    Type
REMARK                         _______ _______ _______ _____ _____    ______ ____
ROOT
ATOM      1  N   UNL     1      47.593   6.281  12.959  0.00  0.00    +0.000 N 
ATOM      2  H   UNL     1      48.278   5.913  12.304  0.00  0.00    +0.000 HD
ENDROOT
BRANCH   1   9
ATOM      3  C   UNL     1      46.507   3.397  13.336  0.00  0.00    +0.000 C 
ATOM      4  C   UNL     1      47.197   4.246  14.356  0.00  0.00    +0.000 A 
ATOM      5  C   UNL     1      47.321   3.692  15.646  0.00  0.00    +0.000 A 
ATOM      6  C   UNL     1      47.919   4.397  16.684  0.00  0.00    +0.000 A 
ATOM      7  C   UNL     1      48.377   5.660  16.378  0.00  0.00    +0.000 A 
ATOM      8  N   UNL     1      48.268   6.235  15.149  0.00  0.00    +0.000 NA
ATOM      9  C   UNL     1      47.680   5.539  14.137  0.00  0.00    +0.000 A 
BRANCH   6  10
ATOM     10  C   UNL     1      48.010   3.750  18.016  0.00  0.00    +0.000 C 
ATOM     11  N   UNL     1      47.256   2.645  18.281  0.00  0.00    +0.000 N 
ATOM     12  O   UNL     1      48.753   4.193  18.887  0.00  0.00    +0.000 OA
ATOM     13  H   UNL     1      46.614   2.199  17.646  0.00  0.00    +0.000 HD
ATOM     14  H   UNL     1      47.362   2.248  19.208  0.00  0.00    +0.000 HD
ENDBRANCH   6  10
ENDBRANCH   1   9
BRANCH   1  15
ATOM     15  C   UNL     1      46.451   7.038  12.427  0.00  0.00    +0.000 C 
ATOM     16  C   UNL     1      46.711   8.399  11.802  0.00  0.00    +0.000 C 
ATOM     17  C   UNL     1      46.048   8.336  13.134  0.00  0.00    +0.000 C 
BRANCH  15  18
ATOM     18  C   UNL     1      45.236   6.178  12.047  0.00  0.00    +0.000 A 
ATOM     19  C   UNL     1      44.150   6.016  12.926  0.00  0.00    +0.000 A 
ATOM     20  C   UNL     1      43.050   5.221  12.591  0.00  0.00    +0.000 A 
ATOM     21  C   UNL     1      42.997   4.578  11.355  0.00  0.00    +0.000 A 
ATOM     22  C   UNL     1      44.028   4.762  10.440  0.00  0.00    +0.000 A 
ATOM     23  C   UNL     1      45.137   5.530  10.804  0.00  0.00    +0.000 A 
BRANCH  22  24
ATOM     24  O   UNL     1      44.115   4.190   9.211  0.00  0.00    +0.000 OA
BRANCH  24  25
ATOM     25  C   UNL     1      44.893   3.013   9.056  0.00  0.00    +0.000 C 
ATOM     26  F   UNL     1      45.999   3.167   8.300  0.00  0.00    +0.000 F 
ATOM     27  F   UNL     1      45.281   2.589  10.280  0.00  0.00    +0.000 F 
ATOM     28  F   UNL     1      44.122   2.050   8.504  0.00  0.00    +0.000 F 
ENDBRANCH  24  25
ENDBRANCH  22  24
ENDBRANCH  15  18
ENDBRANCH   1  15
TORSDOF 6
ENDMDL
MODEL 8
REMARK VINA RESULT:    -6.364      4.035      6.140
REMARK INTER + INTRA:          -9.691
REMARK INTER:                  -8.429
REMARK INTRA:                  -1.262
REMARK UNBOUND:                -1.094
REMARK  Name = 
REMARK  7 active torsions:
REMARK  status: ('A' for Active; 'I' for Inactive)
REMARK    1  A    between atoms: C_1  and  C_2
REMARK    2  A    between atoms: C_4  and  C_5
REMARK    3  A    between atoms: C_10  and  N_11
REMARK    4  A    between atoms: N_11  and  C_12
REMARK    5  A    between atoms: C_12  and  C_13
REMARK    6  A    between atoms: C_17  and  O_18
REMARK    7  A    between atoms: O_18  and  C_19
REMARK                            x       y       z     vdW  Elec       q    Type
REMARK                         _______ _______ _______ _____ _____    ______ ____
ROOT
ATOM      1  N   UNL     1      48.930   6.947  13.375  0.00  0.00    +0.000 N 
ATOM      2  H   UNL     1      49.367   7.011  12.460  0.00  0.00    +0.000 HD
ENDROOT
BRANCH   1   9
ATOM      3  C   UNL     1      46.499   8.780  12.769  0.00  0.00    +0.000 C 
ATOM      4  C   UNL     1      46.494   7.294  12.937  0.00  0.00    +0.000 A 
ATOM      5  C   UNL     1      45.235   6.663  12.861  0.00  0.00    +0.000 A 
ATOM      6  C   UNL     1      45.101   5.290  13.028  0.00  0.00    +0.000 A 
ATOM      7  C   UNL     1      46.262   4.589  13.271  0.00  0.00    +0.000 A 
ATOM      8  N   UNL     1      47.495   5.161  13.363  0.00  0.00    +0.000 NA
ATOM      9  C   UNL     1      47.618   6.506  13.199  0.00  0.00    +0.000 A 
BRANCH   6  10
ATOM     10  C   UNL     1      43.743   4.697  12.939  0.00  0.00    +0.000 C 
ATOM     11  N   UNL     1      42.653   5.516  12.890  0.00  0.00    +0.000 N 
ATOM     12  O   UNL     1      43.582   3.481  12.909  0.00  0.00    +0.000 OA
ATOM     13  H   UNL     1      42.666   6.522  12.910  0.00  0.00    +0.000 HD
ATOM     14  H   UNL     1      41.753   5.052  12.829  0.00  0.00    +0.000 HD
ENDBRANCH   6  10
ENDBRANCH   1   9
BRANCH   1  15
ATOM     15  C   UNL     1      49.500   7.734  14.479  0.00  0.00    +0.000 C 
ATOM     16  C   UNL     1      49.951   9.158  14.196  0.00  0.00    +0.000 C 
ATOM     17  C   UNL     1      50.984   8.107  14.413  0.00  0.00    +0.000 C 
BRANCH  15  18
ATOM     18  C   UNL     1      49.075   7.269  15.880  0.00  0.00    +0.000 A 
ATOM     19  C   UNL     1      48.648   8.186  16.857  0.00  0.00    +0.000 A 
ATOM     20  C   UNL     1      48.278   7.769  18.139  0.00  0.00    +0.000 A 
ATOM     21  C   UNL     1      48.307   6.417  18.475  0.00  0.00    +0.000 A 
ATOM     22  C   UNL     1      48.672   5.478  17.516  0.00  0.00    +0.000 A 
ATOM     23  C   UNL     1      49.074   5.914  16.250  0.00  0.00    +0.000 A 
BRANCH  22  24
ATOM     24  O   UNL     1      48.758   4.135  17.705  0.00  0.00    +0.000 OA
BRANCH  24  25
ATOM     25  C   UNL     1      47.772   3.297  17.123  0.00  0.00    +0.000 C 
ATOM     26  F   UNL     1      46.772   3.955  16.502  0.00  0.00    +0.000 F 
ATOM     27  F   UNL     1      48.370   2.495  16.214  0.00  0.00    +0.000 F 
ATOM     28  F   UNL     1      47.241   2.513  18.088  0.00  0.00    +0.000 F 
ENDBRANCH  24  25
ENDBRANCH  22  24
ENDBRANCH  15  18
ENDBRANCH   1  15
TORSDOF 6
ENDMDL
MODEL 9
REMARK VINA RESULT:    -6.282      3.012      4.989
REMARK INTER + INTRA:          -9.579
REMARK INTER:                  -9.066
REMARK INTRA:                  -0.514
REMARK UNBOUND:                -1.094
REMARK  Name = 
REMARK  7 active torsions:
REMARK  status: ('A' for Active; 'I' for Inactive)
REMARK    1  A    between atoms: C_1  and  C_2
REMARK    2  A    between atoms: C_4  and  C_5
REMARK    3  A    between atoms: C_10  and  N_11
REMARK    4  A    between atoms: N_11  and  C_12
REMARK    5  A    between atoms: C_12  and  C_13
REMARK    6  A    between atoms: C_17  and  O_18
REMARK    7  A    between atoms: O_18  and  C_19
REMARK                            x       y       z     vdW  Elec       q    Type
REMARK                         _______ _______ _______ _____ _____    ______ ____
ROOT
ATOM      1  N   UNL     1      46.768   7.211  13.675  0.00  0.00    +0.000 N 
ATOM      2  H   UNL     1      46.191   7.453  14.475  0.00  0.00    +0.000 HD
ENDROOT
BRANCH   1   9
ATOM      3  C   UNL     1      44.852   8.068  11.388  0.00  0.00    +0.000 C 
ATOM      4  C   UNL     1      45.163   6.676  11.835  0.00  0.00    +0.000 A 
ATOM      5  C   UNL     1      44.469   5.640  11.177  0.00  0.00    +0.000 A 
ATOM      6  C   UNL     1      44.654   4.307  11.524  0.00  0.00    +0.000 A 
ATOM      7  C   UNL     1      45.548   4.061  12.543  0.00  0.00    +0.000 A 
ATOM      8  N   UNL     1      46.231   5.033  13.211  0.00  0.00    +0.000 NA
ATOM      9  C   UNL     1      46.044   6.336  12.866  0.00  0.00    +0.000 A 
BRANCH   6  10
ATOM     10  C   UNL     1      43.885   3.273  10.789  0.00  0.00    +0.000 C 
ATOM     11  N   UNL     1      44.130   3.067   9.463  0.00  0.00    +0.000 N 
ATOM     12  O   UNL     1      43.029   2.598  11.353  0.00  0.00    +0.000 OA
ATOM     13  H   UNL     1      44.803   3.561   8.901  0.00  0.00    +0.000 HD
ATOM     14  H   UNL     1      43.573   2.347   9.016  0.00  0.00    +0.000 HD
ENDBRANCH   6  10
ENDBRANCH   1   9
BRANCH   1  15
ATOM     15  C   UNL     1      48.226   7.369  13.791  0.00  0.00    +0.000 C 
ATOM     16  C   UNL     1      48.890   8.524  13.057  0.00  0.00    +0.000 C 
ATOM     17  C   UNL     1      49.081   7.140  12.540  0.00  0.00    +0.000 C 
BRANCH  15  18
ATOM     18  C   UNL     1      48.841   6.731  15.045  0.00  0.00    +0.000 A 
ATOM     19  C   UNL     1      50.150   7.039  15.456  0.00  0.00    +0.000 A 
ATOM     20  C   UNL     1      50.720   6.447  16.587  0.00  0.00    +0.000 A 
ATOM     21  C   UNL     1      49.986   5.541  17.352  0.00  0.00    +0.000 A 
ATOM     22  C   UNL     1      48.670   5.256  17.005  0.00  0.00    +0.000 A 
ATOM     23  C   UNL     1      48.128   5.828  15.851  0.00  0.00    +0.000 A 
BRANCH  22  24
ATOM     24  O   UNL     1      47.846   4.387  17.647  0.00  0.00    +0.000 OA
BRANCH  24  25
ATOM     25  C   UNL     1      47.993   2.997  17.403  0.00  0.00    +0.000 C 
ATOM     26  F   UNL     1      48.293   2.680  16.127  0.00  0.00    +0.000 F 
ATOM     27  F   UNL     1      48.982   2.522  18.194  0.00  0.00    +0.000 F 
ATOM     28  F   UNL     1      46.845   2.371  17.746  0.00  0.00    +0.000 F 
ENDBRANCH  24  25
ENDBRANCH  22  24
ENDBRANCH  15  18
ENDBRANCH   1  15
TORSDOF 6
ENDMDL
