MODEL 1
REMARK VINA RESULT:    -7.738      0.000      0.000
REMARK INTER + INTRA:         -11.704
REMARK INTER:                 -10.904
REMARK INTRA:                  -0.800
REMARK UNBOUND:                -0.800
REMARK  Name = 
REMARK  9 active torsions:
REMARK  status: ('A' for Active; 'I' for Inactive)
REMARK    1  A    between atoms: C_1  and  C_2
REMARK    2  A    between atoms: C_2  and  C_3
REMARK    3  A    between atoms: C_2  and  N_4
REMARK    4  A    between atoms: N_4  and  C_5
REMARK    5  A    between atoms: C_5  and  C_6
REMARK    6  A    between atoms: C_10  and  C_11
REMARK    7  A    between atoms: C_11  and  O_12
REMARK    8  A    between atoms: O_12  and  C_13
REMARK    9  A    between atoms: C_16  and  C_17
REMARK                            x       y       z     vdW  Elec       q    Type
REMARK                         _______ _______ _______ _____ _____    ______ ____
ROOT
ATOM      1  C   UNL     1      44.225   5.546  10.966  0.00  0.00    +0.000 C 
ENDROOT
BRANCH   1   6
ATOM      2  C   UNL     1      47.171   5.798  13.367  0.00  0.00    +0.000 A 
ATOM      3  C   UNL     1      47.000   4.583  14.021  0.00  0.00    +0.000 A 
ATOM      4  N   UNL     1      46.011   3.702  13.746  0.00  0.00    +0.000 NA
ATOM      5  C   UNL     1      45.135   4.055  12.779  0.00  0.00    +0.000 A 
ATOM      6  C   UNL     1      45.213   5.234  12.050  0.00  0.00    +0.000 A 
ATOM      7  C   UNL     1      46.251   6.117  12.361  0.00  0.00    +0.000 A 
BRANCH   2   8
ATOM      8  C   UNL     1      48.303   6.725  13.723  0.00  0.00    +0.000 C 
BRANCH   8   9
ATOM      9  N   UNL     1      49.367   6.658  12.724  0.00  0.00    +0.000 NA
ATOM     10  H   UNL     1      50.155   6.140  13.112  0.00  0.00    +0.000 HD
BRANCH   9  12
ATOM     11  C   UNL     1      50.853   7.723  11.141  0.00  0.00    +0.000 C 
ATOM     12  C   UNL     1      49.842   7.967  12.266  0.00  0.00    +0.000 C 
ATOM     13  C   UNL     1      48.707   8.853  11.753  0.00  0.00    +0.000 C 
ENDBRANCH   9  12
ENDBRANCH   8   9
ENDBRANCH   2   8
ENDBRANCH   1   6
BRANCH   1  14
ATOM     14  O   UNL     1      43.819   4.339  10.321  0.00  0.00    +0.000 OA
BRANCH  14  15
ATOM     15  C   UNL     1      44.712   3.807   9.432  0.00  0.00    +0.000 A 
ATOM     16  C   UNL     1      45.487   4.527   8.523  0.00  0.00    +0.000 A 
ATOM     17  C   UNL     1      46.369   3.853   7.680  0.00  0.00    +0.000 A 
ATOM     18  C   UNL     1      46.445   2.471   7.770  0.00  0.00    +0.000 A 
ATOM     19  N   UNL     1      45.701   1.728   8.636  0.00  0.00    +0.000 NA
ATOM     20  C   UNL     1      44.855   2.421   9.440  0.00  0.00    +0.000 A 
BRANCH  18  21
ATOM     21  C   UNL     1      47.394   1.732   6.880  0.00  0.00    +0.000 C 
ATOM     22  N   UNL     1      48.457   2.456   6.423  0.00  0.00    +0.000 N 
ATOM     23  O   UNL     1      47.233   0.556   6.576  0.00  0.00    +0.000 OA
ATOM     24  H   UNL     1      48.552   3.429   6.687  0.00  0.00    +0.000 HD
ATOM     25  H   UNL     1      49.132   2.022   5.806  0.00  0.00    +0.000 HD
ENDBRANCH  18  21
ENDBRANCH  14  15
ENDBRANCH   1  14
TORSDOF 7
ENDMDL
MODEL 2
REMARK VINA RESULT:    -7.673      1.933      3.435
REMARK INTER + INTRA:         -11.612
REMARK INTER:                 -10.943
REMARK INTRA:                  -0.669
REMARK UNBOUND:                -0.800
REMARK  Name = 
REMARK  9 active torsions:
REMARK  status: ('A' for Active; 'I' for Inactive)
REMARK    1  A    between atoms: C_1  and  C_2
REMARK    2  A    between atoms: C_2  and  C_3
REMARK    3  A    between atoms: C_2  and  N_4
REMARK    4  A    between atoms: N_4  and  C_5
REMARK    5  A    between atoms: C_5  and  C_6
REMARK    6  A    between atoms: C_10  and  C_11
REMARK    7  A    between atoms: C_11  and  O_12
REMARK    8  A    between atoms: O_12  and  C_13
REMARK    9  A    between atoms: C_16  and  C_17
REMARK                            x       y       z     vdW  Elec       q    Type
REMARK                         _______ _______ _______ _____ _____    ______ ____
ROOT
ATOM      1  C   UNL     1      43.596   4.446  11.330  0.00  0.00    +0.000 C 
ENDROOT
BRANCH   1   6
ATOM      2  C   UNL     1      46.455   4.894  13.806  0.00  0.00    +0.000 A 
ATOM      3  C   UNL     1      46.924   6.121  13.349  0.00  0.00    +0.000 A 
ATOM      4  N   UNL     1      46.391   6.801  12.308  0.00  0.00    +0.000 NA
ATOM      5  C   UNL     1      45.343   6.224  11.679  0.00  0.00    +0.000 A 
ATOM      6  C   UNL     1      44.781   5.011  12.054  0.00  0.00    +0.000 A 
ATOM      7  C   UNL     1      45.358   4.340  13.136  0.00  0.00    +0.000 A 
BRANCH   2   8
ATOM      8  C   UNL     1      47.096   4.199  14.978  0.00  0.00    +0.000 C 
BRANCH   8   9
ATOM      9  N   UNL     1      47.415   5.151  16.040  0.00  0.00    +0.000 NA
ATOM     10  H   UNL     1      48.167   5.762  15.724  0.00  0.00    +0.000 HD
BRANCH   9  12
ATOM     11  C   UNL     1      47.176   5.335  18.439  0.00  0.00    +0.000 C 
ATOM     12  C   UNL     1      47.813   4.526  17.305  0.00  0.00    +0.000 C 
ATOM     13  C   UNL     1      47.365   3.067  17.402  0.00  0.00    +0.000 C 
ENDBRANCH   9  12
ENDBRANCH   8   9
ENDBRANCH   2   8
ENDBRANCH   1   6
BRANCH   1  14
ATOM     14  O   UNL     1      43.721   4.695   9.930  0.00  0.00    +0.000 OA
BRANCH  14  15
ATOM     15  C   UNL     1      44.588   3.881   9.255  0.00  0.00    +0.000 A 
ATOM     16  C   UNL     1      44.698   2.499   9.407  0.00  0.00    +0.000 A 
ATOM     17  C   UNL     1      45.621   1.790   8.640  0.00  0.00    +0.000 A 
ATOM     18  C   UNL     1      46.414   2.491   7.742  0.00  0.00    +0.000 A 
ATOM     19  N   UNL     1      46.345   3.841   7.568  0.00  0.00    +0.000 NA
ATOM     20  C   UNL     1      45.434   4.494   8.332  0.00  0.00    +0.000 A 
BRANCH  18  21
ATOM     21  C   UNL     1      47.403   1.745   6.903  0.00  0.00    +0.000 C 
ATOM     22  N   UNL     1      48.470   2.474   6.465  0.00  0.00    +0.000 N 
ATOM     23  O   UNL     1      47.269   0.560   6.624  0.00  0.00    +0.000 OA
ATOM     24  H   UNL     1      48.542   3.454   6.708  0.00  0.00    +0.000 HD
ATOM     25  H   UNL     1      49.173   2.035   5.883  0.00  0.00    +0.000 HD
ENDBRANCH  18  21
ENDBRANCH  14  15
ENDBRANCH   1  14
TORSDOF 7
ENDMDL
MODEL 3
REMARK VINA RESULT:    -7.458      2.044      2.779
REMARK INTER + INTRA:         -11.310
REMARK INTER:                 -10.429
REMARK INTRA:                  -0.881
REMARK UNBOUND:                -0.800
REMARK  Name = 
REMARK  9 active torsions:
REMARK  status: ('A' for Active; 'I' for Inactive)
REMARK    1  A    between atoms: C_1  and  C_2
REMARK    2  A    between atoms: C_2  and  C_3
REMARK    3  A    between atoms: C_2  and  N_4
REMARK    4  A    between atoms: N_4  and  C_5
REMARK    5  A    between atoms: C_5  and  C_6
REMARK    6  A    between atoms: C_10  and  C_11
REMARK    7  A    between atoms: C_11  and  O_12
REMARK    8  A    between atoms: O_12  and  C_13
REMARK    9  A    between atoms: C_16  and  C_17
REMARK                            x       y       z     vdW  Elec       q    Type
REMARK                         _______ _______ _______ _____ _____    ______ ____
ROOT
ATOM      1  C   UNL     1      43.797   3.660  11.647  0.00  0.00    +0.000 C 
ENDROOT
BRANCH   1   6
ATOM      2  C   UNL     1      46.080   6.427  12.928  0.00  0.00    +0.000 A 
ATOM      3  C   UNL     1      47.064   5.626  13.497  0.00  0.00    +0.000 A 
ATOM      4  N   UNL     1      47.038   4.274  13.500  0.00  0.00    +0.000 NA
ATOM      5  C   UNL     1      45.970   3.685  12.917  0.00  0.00    +0.000 A 
ATOM      6  C   UNL     1      44.936   4.380  12.305  0.00  0.00    +0.000 A 
ATOM      7  C   UNL     1      44.999   5.776  12.321  0.00  0.00    +0.000 A 
BRANCH   2   8
ATOM      8  C   UNL     1      46.181   7.929  12.957  0.00  0.00    +0.000 C 
BRANCH   8   9
ATOM      9  N   UNL     1      44.894   8.546  12.643  0.00  0.00    +0.000 NA
ATOM     10  H   UNL     1      44.204   7.813  12.486  0.00  0.00    +0.000 HD
BRANCH   9  12
ATOM     11  C   UNL     1      43.520   9.420  10.855  0.00  0.00    +0.000 C 
ATOM     12  C   UNL     1      44.922   9.428  11.472  0.00  0.00    +0.000 C 
ATOM     13  C   UNL     1      45.318  10.861  11.829  0.00  0.00    +0.000 C 
ENDBRANCH   9  12
ENDBRANCH   8   9
ENDBRANCH   2   8
ENDBRANCH   1   6
BRANCH   1  14
ATOM     14  O   UNL     1      43.682   4.079  10.288  0.00  0.00    +0.000 OA
BRANCH  14  15
ATOM     15  C   UNL     1      44.594   3.546   9.420  0.00  0.00    +0.000 A 
ATOM     16  C   UNL     1      44.905   2.192   9.289  0.00  0.00    +0.000 A 
ATOM     17  C   UNL     1      45.851   1.787   8.350  0.00  0.00    +0.000 A 
ATOM     18  C   UNL     1      46.465   2.755   7.568  0.00  0.00    +0.000 A 
ATOM     19  N   UNL     1      46.199   4.088   7.669  0.00  0.00    +0.000 NA
ATOM     20  C   UNL     1      45.271   4.441   8.594  0.00  0.00    +0.000 A 
BRANCH  18  21
ATOM     21  C   UNL     1      47.476   2.337   6.548  0.00  0.00    +0.000 C 
ATOM     22  N   UNL     1      47.421   3.003   5.358  0.00  0.00    +0.000 N 
ATOM     23  O   UNL     1      48.301   1.456   6.759  0.00  0.00    +0.000 OA
ATOM     24  H   UNL     1      46.719   3.719   5.216  0.00  0.00    +0.000 HD
ATOM     25  H   UNL     1      48.069   2.764   4.618  0.00  0.00    +0.000 HD
ENDBRANCH  18  21
ENDBRANCH  14  15
ENDBRANCH   1  14
TORSDOF 7
ENDMDL
MODEL 4
REMARK VINA RESULT:    -7.412      1.313      1.942
REMARK INTER + INTRA:         -11.245
REMARK INTER:                 -10.514
REMARK INTRA:                  -0.732
REMARK UNBOUND:                -0.800
REMARK  Name = 
REMARK  9 active torsions:
REMARK  status: ('A' for Active; 'I' for Inactive)
REMARK    1  A    between atoms: C_1  and  C_2
REMARK    2  A    between atoms: C_2  and  C_3
REMARK    3  A    between atoms: C_2  and  N_4
REMARK    4  A    between atoms: N_4  and  C_5
REMARK    5  A    between atoms: C_5  and  C_6
REMARK    6  A    between atoms: C_10  and  C_11
REMARK    7  A    between atoms: C_11  and  O_12
REMARK    8  A    between atoms: O_12  and  C_13
REMARK    9  A    between atoms: C_16  and  C_17
REMARK                            x       y       z     vdW  Elec       q    Type
REMARK                         _______ _______ _______ _____ _____    ______ ____
ROOT
ATOM      1  C   UNL     1      44.048   5.289  10.746  0.00  0.00    +0.000 C 
ENDROOT
BRANCH   1   6
ATOM      2  C   UNL     1      47.016   6.161  12.967  0.00  0.00    +0.000 A 
ATOM      3  C   UNL     1      46.904   5.112  13.872  0.00  0.00    +0.000 A 
ATOM      4  N   UNL     1      45.946   4.158  13.818  0.00  0.00    +0.000 NA
ATOM      5  C   UNL     1      45.043   4.261  12.818  0.00  0.00    +0.000 A 
ATOM      6  C   UNL     1      45.063   5.255  11.849  0.00  0.00    +0.000 A 
ATOM      7  C   UNL     1      46.070   6.221  11.937  0.00  0.00    +0.000 A 
BRANCH   2   8
ATOM      8  C   UNL     1      48.117   7.182  13.087  0.00  0.00    +0.000 C 
BRANCH   8   9
ATOM      9  N   UNL     1      49.306   6.600  13.703  0.00  0.00    +0.000 NA
ATOM     10  H   UNL     1      49.098   5.643  13.988  0.00  0.00    +0.000 HD
BRANCH   9  12
ATOM     11  C   UNL     1      49.046   8.673  14.921  0.00  0.00    +0.000 C 
ATOM     12  C   UNL     1      49.802   7.342  14.867  0.00  0.00    +0.000 C 
ATOM     13  C   UNL     1      49.595   6.580  16.177  0.00  0.00    +0.000 C 
ENDBRANCH   9  12
ENDBRANCH   8   9
ENDBRANCH   2   8
ENDBRANCH   1   6
BRANCH   1  14
ATOM     14  O   UNL     1      43.797   3.963  10.281  0.00  0.00    +0.000 OA
BRANCH  14  15
ATOM     15  C   UNL     1      44.701   3.463   9.385  0.00  0.00    +0.000 A 
ATOM     16  C   UNL     1      45.124   2.136   9.305  0.00  0.00    +0.000 A 
ATOM     17  C   UNL     1      46.047   1.763   8.330  0.00  0.00    +0.000 A 
ATOM     18  C   UNL     1      46.523   2.734   7.462  0.00  0.00    +0.000 A 
ATOM     19  N   UNL     1      46.144   4.042   7.510  0.00  0.00    +0.000 NA
ATOM     20  C   UNL     1      45.244   4.366   8.474  0.00  0.00    +0.000 A 
BRANCH  18  21
ATOM     21  C   UNL     1      47.506   2.349   6.402  0.00  0.00    +0.000 C 
ATOM     22  N   UNL     1      47.443   3.075   5.248  0.00  0.00    +0.000 N 
ATOM     23  O   UNL     1      48.316   1.442   6.552  0.00  0.00    +0.000 OA
ATOM     24  H   UNL     1      46.753   3.811   5.157  0.00  0.00    +0.000 HD
ATOM     25  H   UNL     1      48.071   2.861   4.484  0.00  0.00    +0.000 HD
ENDBRANCH  18  21
ENDBRANCH  14  15
ENDBRANCH   1  14
TORSDOF 7
ENDMDL
MODEL 5
REMARK VINA RESULT:    -7.131      1.463      1.932
REMARK INTER + INTRA:         -10.848
REMARK INTER:                 -10.028
REMARK INTRA:                  -0.820
REMARK UNBOUND:                -0.800
REMARK  Name = 
REMARK  9 active torsions:
REMARK  status: ('A' for Active; 'I' for Inactive)
REMARK    1  A    between atoms: C_1  and  C_2
REMARK    2  A    between atoms: C_2  and  C_3
REMARK    3  A    between atoms: C_2  and  N_4
REMARK    4  A    between atoms: N_4  and  C_5
REMARK    5  A    between atoms: C_5  and  C_6
REMARK    6  A    between atoms: C_10  and  C_11
REMARK    7  A    between atoms: C_11  and  O_12
REMARK    8  A    between atoms: O_12  and  C_13
REMARK    9  A    between atoms: C_16  and  C_17
REMARK                            x       y       z     vdW  Elec       q    Type
REMARK                         _______ _______ _______ _____ _____    ______ ____
ROOT
ATOM      1  C   UNL     1      44.489   3.750  11.798  0.00  0.00    +0.000 C 
ENDROOT
BRANCH   1   6
ATOM      2  C   UNL     1      46.824   6.413  13.199  0.00  0.00    +0.000 A 
ATOM      3  C   UNL     1      46.112   7.537  12.793  0.00  0.00    +0.000 A 
ATOM      4  N   UNL     1      44.949   7.493  12.104  0.00  0.00    +0.000 NA
ATOM      5  C   UNL     1      44.474   6.268  11.789  0.00  0.00    +0.000 A 
ATOM      6  C   UNL     1      45.090   5.077  12.153  0.00  0.00    +0.000 A 
ATOM      7  C   UNL     1      46.289   5.163  12.866  0.00  0.00    +0.000 A 
BRANCH   2   8
ATOM      8  C   UNL     1      48.111   6.540  13.971  0.00  0.00    +0.000 C 
BRANCH   8   9
ATOM      9  N   UNL     1      49.259   6.594  13.070  0.00  0.00    +0.000 NA
ATOM     10  H   UNL     1      49.930   5.878  13.343  0.00  0.00    +0.000 HD
BRANCH   9  12
ATOM     11  C   UNL     1      49.652   8.535  11.681  0.00  0.00    +0.000 C 
ATOM     12  C   UNL     1      49.938   7.894  13.042  0.00  0.00    +0.000 C 
ATOM     13  C   UNL     1      49.463   8.825  14.158  0.00  0.00    +0.000 C 
ENDBRANCH   9  12
ENDBRANCH   8   9
ENDBRANCH   2   8
ENDBRANCH   1   6
BRANCH   1  14
ATOM     14  O   UNL     1      43.996   3.786  10.459  0.00  0.00    +0.000 OA
BRANCH  14  15
ATOM     15  C   UNL     1      44.860   3.348   9.493  0.00  0.00    +0.000 A 
ATOM     16  C   UNL     1      45.189   2.017   9.233  0.00  0.00    +0.000 A 
ATOM     17  C   UNL     1      46.079   1.713   8.205  0.00  0.00    +0.000 A 
ATOM     18  C   UNL     1      46.620   2.756   7.467  0.00  0.00    +0.000 A 
ATOM     19  N   UNL     1      46.333   4.069   7.692  0.00  0.00    +0.000 NA
ATOM     20  C   UNL     1      45.462   4.323   8.701  0.00  0.00    +0.000 A 
BRANCH  18  21
ATOM     21  C   UNL     1      47.569   2.447   6.353  0.00  0.00    +0.000 C 
ATOM     22  N   UNL     1      47.268   3.014   5.149  0.00  0.00    +0.000 N 
ATOM     23  O   UNL     1      48.552   1.732   6.504  0.00  0.00    +0.000 OA
ATOM     24  H   UNL     1      46.441   3.592   5.059  0.00  0.00    +0.000 HD
ATOM     25  H   UNL     1      47.861   2.838   4.348  0.00  0.00    +0.000 HD
ENDBRANCH  18  21
ENDBRANCH  14  15
ENDBRANCH   1  14
TORSDOF 7
ENDMDL
MODEL 6
REMARK VINA RESULT:    -6.798      2.875      7.000
REMARK INTER + INTRA:         -10.380
REMARK INTER:                  -9.889
REMARK INTRA:                  -0.490
REMARK UNBOUND:                -0.800
REMARK  Name = 
REMARK  9 active torsions:
REMARK  status: ('A' for Active; 'I' for Inactive)
REMARK    1  A    between atoms: C_1  and  C_2
REMARK    2  A    between atoms: C_2  and  C_3
REMARK    3  A    between atoms: C_2  and  N_4
REMARK    4  A    between atoms: N_4  and  C_5
REMARK    5  A    between atoms: C_5  and  C_6
REMARK    6  A    between atoms: C_10  and  C_11
REMARK    7  A    between atoms: C_11  and  O_12
REMARK    8  A    between atoms: O_12  and  C_13
REMARK    9  A    between atoms: C_16  and  C_17
REMARK                            x       y       z     vdW  Elec       q    Type
REMARK                         _______ _______ _______ _____ _____    ______ ____
ROOT
ATOM      1  C   UNL     1      46.574   7.122  11.875  0.00  0.00    +0.000 C 
ENDROOT
BRANCH   1   6
ATOM      2  C   UNL     1      44.649   4.631   9.732  0.00  0.00    +0.000 A 
ATOM      3  C   UNL     1      43.411   4.746  10.355  0.00  0.00    +0.000 A 
ATOM      4  N   UNL     1      43.161   5.558  11.408  0.00  0.00    +0.000 NA
ATOM      5  C   UNL     1      44.200   6.284  11.875  0.00  0.00    +0.000 A 
ATOM      6  C   UNL     1      45.475   6.262  11.325  0.00  0.00    +0.000 A 
ATOM      7  C   UNL     1      45.694   5.413  10.237  0.00  0.00    +0.000 A 
BRANCH   2   8
ATOM      8  C   UNL     1      44.850   3.710   8.557  0.00  0.00    +0.000 C 
BRANCH   8   9
ATOM      9  N   UNL     1      45.937   4.181   7.703  0.00  0.00    +0.000 NA
ATOM     10  H   UNL     1      45.542   4.625   6.876  0.00  0.00    +0.000 HD
BRANCH   9  12
ATOM     11  C   UNL     1      46.402   1.818   7.925  0.00  0.00    +0.000 C 
ATOM     12  C   UNL     1      46.864   3.128   7.278  0.00  0.00    +0.000 C 
ATOM     13  C   UNL     1      46.903   2.963   5.758  0.00  0.00    +0.000 C 
ENDBRANCH   9  12
ENDBRANCH   8   9
ENDBRANCH   2   8
ENDBRANCH   1   6
BRANCH   1  14
ATOM     14  O   UNL     1      47.682   6.305  12.255  0.00  0.00    +0.000 OA
BRANCH  14  15
ATOM     15  C   UNL     1      47.641   5.797  13.524  0.00  0.00    +0.000 A 
ATOM     16  C   UNL     1      48.279   6.336  14.641  0.00  0.00    +0.000 A 
ATOM     17  C   UNL     1      48.140   5.717  15.882  0.00  0.00    +0.000 A 
ATOM     18  C   UNL     1      47.365   4.569  15.967  0.00  0.00    +0.000 A 
ATOM     19  N   UNL     1      46.732   4.005  14.901  0.00  0.00    +0.000 NA
ATOM     20  C   UNL     1      46.891   4.637  13.711  0.00  0.00    +0.000 A 
BRANCH  18  21
ATOM     21  C   UNL     1      47.196   3.898  17.293  0.00  0.00    +0.000 C 
ATOM     22  N   UNL     1      47.097   4.734  18.368  0.00  0.00    +0.000 N 
ATOM     23  O   UNL     1      47.151   2.680  17.415  0.00  0.00    +0.000 OA
ATOM     24  H   UNL     1      47.148   5.736  18.230  0.00  0.00    +0.000 HD
ATOM     25  H   UNL     1      46.992   4.347  19.297  0.00  0.00    +0.000 HD
ENDBRANCH  18  21
ENDBRANCH  14  15
ENDBRANCH   1  14
TORSDOF 7
ENDMDL
MODEL 7
REMARK VINA RESULT:    -6.455      4.169      7.997
REMARK INTER + INTRA:          -9.896
REMARK INTER:                  -9.277
REMARK INTRA:                  -0.619
REMARK UNBOUND:                -0.800
REMARK  Name = 
REMARK  9 active torsions:
REMARK  status: ('A' for Active; 'I' for Inactive)
REMARK    1  A    between atoms: C_1  and  C_2
REMARK    2  A    between atoms: C_2  and  C_3
REMARK    3  A    between atoms: C_2  and  N_4
REMARK    4  A    between atoms: N_4  and  C_5
REMARK    5  A    between atoms: C_5  and  C_6
REMARK    6  A    between atoms: C_10  and  C_11
REMARK    7  A    between atoms: C_11  and  O_12
REMARK    8  A    between atoms: O_12  and  C_13
REMARK    9  A    between atoms: C_16  and  C_17
REMARK                            x       y       z     vdW  Elec       q    Type
REMARK                         _______ _______ _______ _____ _____    ______ ____
ROOT
ATOM      1  C   UNL     1      46.831   3.637  13.939  0.00  0.00    +0.000 C 
ENDROOT
BRANCH   1   6
ATOM      2  C   UNL     1      44.741   4.887  11.011  0.00  0.00    +0.000 A 
ATOM      3  C   UNL     1      44.663   6.226  11.379  0.00  0.00    +0.000 A 
ATOM      4  N   UNL     1      45.228   6.744  12.493  0.00  0.00    +0.000 NA
ATOM      5  C   UNL     1      45.894   5.882  13.293  0.00  0.00    +0.000 A 
ATOM      6  C   UNL     1      46.049   4.529  13.022  0.00  0.00    +0.000 A 
ATOM      7  C   UNL     1      45.453   4.032  11.860  0.00  0.00    +0.000 A 
BRANCH   2   8
ATOM      8  C   UNL     1      44.092   4.385   9.749  0.00  0.00    +0.000 C 
BRANCH   8   9
ATOM      9  N   UNL     1      44.972   4.573   8.598  0.00  0.00    +0.000 NA
ATOM     10  H   UNL     1      44.565   5.274   7.980  0.00  0.00    +0.000 HD
BRANCH   9  12
ATOM     11  C   UNL     1      46.482   3.580   6.991  0.00  0.00    +0.000 C 
ATOM     12  C   UNL     1      45.219   3.350   7.827  0.00  0.00    +0.000 C 
ATOM     13  C   UNL     1      45.413   2.125   8.722  0.00  0.00    +0.000 C 
ENDBRANCH   9  12
ENDBRANCH   8   9
ENDBRANCH   2   8
ENDBRANCH   1   6
BRANCH   1  14
ATOM     14  O   UNL     1      46.583   4.002  15.296  0.00  0.00    +0.000 OA
BRANCH  14  15
ATOM     15  C   UNL     1      47.661   3.949  16.136  0.00  0.00    +0.000 A 
ATOM     16  C   UNL     1      48.226   2.790  16.668  0.00  0.00    +0.000 A 
ATOM     17  C   UNL     1      49.336   2.884  17.505  0.00  0.00    +0.000 A 
ATOM     18  C   UNL     1      49.848   4.142  17.788  0.00  0.00    +0.000 A 
ATOM     19  N   UNL     1      49.323   5.299  17.297  0.00  0.00    +0.000 NA
ATOM     20  C   UNL     1      48.243   5.165  16.486  0.00  0.00    +0.000 A 
BRANCH  18  21
ATOM     21  C   UNL     1      51.046   4.261  18.676  0.00  0.00    +0.000 C 
ATOM     22  N   UNL     1      51.923   3.216  18.625  0.00  0.00    +0.000 N 
ATOM     23  O   UNL     1      51.234   5.228  19.404  0.00  0.00    +0.000 OA
ATOM     24  H   UNL     1      51.730   2.429  18.017  0.00  0.00    +0.000 HD
ATOM     25  H   UNL     1      52.750   3.225  19.208  0.00  0.00    +0.000 HD
ENDBRANCH  18  21
ENDBRANCH  14  15
ENDBRANCH   1  14
TORSDOF 7
ENDMDL
MODEL 8
REMARK VINA RESULT:    -6.294      2.710      6.336
REMARK INTER + INTRA:          -9.669
REMARK INTER:                  -8.786
REMARK INTRA:                  -0.883
REMARK UNBOUND:                -0.800
REMARK  Name = 
REMARK  9 active torsions:
REMARK  status: ('A' for Active; 'I' for Inactive)
REMARK    1  A    between atoms: C_1  and  C_2
REMARK    2  A    between atoms: C_2  and  C_3
REMARK    3  A    between atoms: C_2  and  N_4
REMARK    4  A    between atoms: N_4  and  C_5
REMARK    5  A    between atoms: C_5  and  C_6
REMARK    6  A    between atoms: C_10  and  C_11
REMARK    7  A    between atoms: C_11  and  O_12
REMARK    8  A    between atoms: O_12  and  C_13
REMARK    9  A    between atoms: C_16  and  C_17
REMARK                            x       y       z     vdW  Elec       q    Type
REMARK                         _______ _______ _______ _____ _____    ______ ____
ROOT
ATOM      1  C   UNL     1      44.646   7.004  11.738  0.00  0.00    +0.000 C 
ENDROOT
BRANCH   1   6
ATOM      2  C   UNL     1      44.180   3.366  10.712  0.00  0.00    +0.000 A 
ATOM      3  C   UNL     1      43.686   2.880  11.917  0.00  0.00    +0.000 A 
ATOM      4  N   UNL     1      43.499   3.636  13.024  0.00  0.00    +0.000 NA
ATOM      5  C   UNL     1      43.836   4.941  12.932  0.00  0.00    +0.000 A 
ATOM      6  C   UNL     1      44.325   5.540  11.778  0.00  0.00    +0.000 A 
ATOM      7  C   UNL     1      44.501   4.728  10.655  0.00  0.00    +0.000 A 
BRANCH   2   8
ATOM      8  C   UNL     1      44.353   2.465   9.517  0.00  0.00    +0.000 C 
BRANCH   8   9
ATOM      9  N   UNL     1      44.495   3.244   8.290  0.00  0.00    +0.000 NA
ATOM     10  H   UNL     1      43.654   3.131   7.726  0.00  0.00    +0.000 HD
BRANCH   9  12
ATOM     11  C   UNL     1      46.632   4.064   7.510  0.00  0.00    +0.000 C 
ATOM     12  C   UNL     1      45.661   2.879   7.480  0.00  0.00    +0.000 C 
ATOM     13  C   UNL     1      46.364   1.626   8.000  0.00  0.00    +0.000 C 
ENDBRANCH   9  12
ENDBRANCH   8   9
ENDBRANCH   2   8
ENDBRANCH   1   6
BRANCH   1  14
ATOM     14  O   UNL     1      45.429   7.358  12.878  0.00  0.00    +0.000 OA
BRANCH  14  15
ATOM     15  C   UNL     1      46.754   7.601  12.641  0.00  0.00    +0.000 A 
ATOM     16  C   UNL     1      47.291   8.788  12.142  0.00  0.00    +0.000 A 
ATOM     17  C   UNL     1      48.668   8.900  11.961  0.00  0.00    +0.000 A 
ATOM     18  C   UNL     1      49.470   7.815  12.283  0.00  0.00    +0.000 A 
ATOM     19  N   UNL     1      48.987   6.635  12.764  0.00  0.00    +0.000 NA
ATOM     20  C   UNL     1      47.641   6.565  12.927  0.00  0.00    +0.000 A 
BRANCH  18  21
ATOM     21  C   UNL     1      50.951   7.922  12.105  0.00  0.00    +0.000 C 
ATOM     22  N   UNL     1      51.467   7.242  11.040  0.00  0.00    +0.000 N 
ATOM     23  O   UNL     1      51.661   8.575  12.861  0.00  0.00    +0.000 OA
ATOM     24  H   UNL     1      50.850   6.705  10.442  0.00  0.00    +0.000 HD
ATOM     25  H   UNL     1      52.463   7.261  10.866  0.00  0.00    +0.000 HD
ENDBRANCH  18  21
ENDBRANCH  14  15
ENDBRANCH   1  14
TORSDOF 7
ENDMDL
MODEL 9
REMARK VINA RESULT:    -6.118      3.991      8.165
REMARK INTER + INTRA:          -9.420
REMARK INTER:                  -8.832
REMARK INTRA:                  -0.589
REMARK UNBOUND:                -0.800
REMARK  Name = 
REMARK  9 active torsions:
REMARK  status: ('A' for Active; 'I' for Inactive)
REMARK    1  A    between atoms: C_1  and  C_2
REMARK    2  A    between atoms: C_2  and  C_3
REMARK    3  A    between atoms: C_2  and  N_4
REMARK    4  A    between atoms: N_4  and  C_5
REMARK    5  A    between atoms: C_5  and  C_6
REMARK    6  A    between atoms: C_10  and  C_11
REMARK    7  A    between atoms: C_11  and  O_12
REMARK    8  A    between atoms: O_12  and  C_13
REMARK    9  A    between atoms: C_16  and  C_17
REMARK                            x       y       z     vdW  Elec       q    Type
REMARK                         _______ _______ _______ _____ _____    ______ ____
ROOT
ATOM      1  C   UNL     1      46.677   5.117  13.732  0.00  0.00    +0.000 C 
ENDROOT
BRANCH   1   6
ATOM      2  C   UNL     1      44.271   3.927  11.031  0.00  0.00    +0.000 A 
ATOM      3  C   UNL     1      43.268   4.869  11.228  0.00  0.00    +0.000 A 
ATOM      4  N   UNL     1      43.313   5.846  12.163  0.00  0.00    +0.000 NA
ATOM      5  C   UNL     1      44.408   5.879  12.954  0.00  0.00    +0.000 A 
ATOM      6  C   UNL     1      45.477   5.000  12.841  0.00  0.00    +0.000 A 
ATOM      7  C   UNL     1      45.395   4.007  11.862  0.00  0.00    +0.000 A 
BRANCH   2   8
ATOM      8  C   UNL     1      44.153   2.871   9.963  0.00  0.00    +0.000 C 
BRANCH   8   9
ATOM      9  N   UNL     1      44.538   3.404   8.658  0.00  0.00    +0.000 NA
ATOM     10  H   UNL     1      43.862   3.095   7.961  0.00  0.00    +0.000 HD
BRANCH   9  12
ATOM     11  C   UNL     1      45.989   1.489   8.381  0.00  0.00    +0.000 C 
ATOM     12  C   UNL     1      45.881   3.009   8.222  0.00  0.00    +0.000 C 
ATOM     13  C   UNL     1      46.160   3.394   6.769  0.00  0.00    +0.000 C 
ENDBRANCH   9  12
ENDBRANCH   8   9
ENDBRANCH   2   8
ENDBRANCH   1   6
BRANCH   1  14
ATOM     14  O   UNL     1      46.783   3.955  14.554  0.00  0.00    +0.000 OA
BRANCH  14  15
ATOM     15  C   UNL     1      47.372   4.138  15.775  0.00  0.00    +0.000 A 
ATOM     16  C   UNL     1      47.335   3.243  16.844  0.00  0.00    +0.000 A 
ATOM     17  C   UNL     1      47.993   3.556  18.031  0.00  0.00    +0.000 A 
ATOM     18  C   UNL     1      48.670   4.764  18.115  0.00  0.00    +0.000 A 
ATOM     19  N   UNL     1      48.724   5.672  17.100  0.00  0.00    +0.000 NA
ATOM     20  C   UNL     1      48.071   5.330  15.960  0.00  0.00    +0.000 A 
BRANCH  18  21
ATOM     21  C   UNL     1      49.391   5.112  19.379  0.00  0.00    +0.000 C 
ATOM     22  N   UNL     1      50.473   4.334  19.673  0.00  0.00    +0.000 N 
ATOM     23  O   UNL     1      49.038   6.031  20.108  0.00  0.00    +0.000 OA
ATOM     24  H   UNL     1      50.729   3.576  19.051  0.00  0.00    +0.000 HD
ATOM     25  H   UNL     1      51.001   4.506  20.519  0.00  0.00    +0.000 HD
ENDBRANCH  18  21
ENDBRANCH  14  15
ENDBRANCH   1  14
TORSDOF 7
ENDMDL
