MODEL 1
REMARK VINA RESULT:    -8.920      0.000      0.000
REMARK INTER + INTRA:         -12.321
REMARK INTER:                 -11.527
REMARK INTRA:                  -0.794
REMARK UNBOUND:                -0.794
REMARK  Name = 
REMARK  5 active torsions:
REMARK  status: ('A' for Active; 'I' for Inactive)
REMARK    1  A    between atoms: C_2  and  C_4
REMARK    2  A    between atoms: C_7  and  N_8
REMARK    3  A    between atoms: N_8  and  C_9
REMARK    4  A    between atoms: C_9  and  C_10
REMARK    5  A    between atoms: C_15  and  C_16
REMARK                            x       y       z     vdW  Elec       q    Type
REMARK                         _______ _______ _______ _____ _____    ______ ____
ROOT
ATOM      1  C   UNL     1      43.528   4.571  11.054  0.00  0.00    +0.000 C 
ENDROOT
BRANCH   1   2
ATOM      2  C   UNL     1      44.745   4.944  11.882  0.00  0.00    +0.000 A 
ATOM      3  C   UNL     1      45.234   4.083  12.870  0.00  0.00    +0.000 A 
ATOM      4  C   UNL     1      46.357   4.438  13.613  0.00  0.00    +0.000 A 
ATOM      5  C   UNL     1      46.994   5.656  13.381  0.00  0.00    +0.000 A 
ATOM      6  F   UNL     1      48.056   5.947  14.150  0.00  0.00    +0.000 F 
ATOM      7  C   UNL     1      46.553   6.556  12.396  0.00  0.00    +0.000 A 
ATOM      8  C   UNL     1      45.419   6.162  11.651  0.00  0.00    +0.000 A 
BRANCH   7   9
ATOM      9  C   UNL     1      47.231   7.853  12.140  0.00  0.00    +0.000 A 
ATOM     10  C   UNL     1      46.563   9.082  12.320  0.00  0.00    +0.000 A 
ATOM     11  C   UNL     1      47.191  10.309  12.068  0.00  0.00    +0.000 A 
ATOM     12  C   UNL     1      48.512  10.335  11.642  0.00  0.00    +0.000 A 
ATOM     13  C   UNL     1      49.190   9.140  11.465  0.00  0.00    +0.000 A 
ATOM     14  F   UNL     1      50.466   9.159  11.060  0.00  0.00    +0.000 F 
ATOM     15  C   UNL     1      48.565   7.915  11.701  0.00  0.00    +0.000 A 
ENDBRANCH   7   9
ENDBRANCH   1   2
BRANCH   1  16
ATOM     16  N   UNL     1      43.795   4.878   9.652  0.00  0.00    +0.000 N 
ATOM     17  H   UNL     1      42.940   4.896   9.103  0.00  0.00    +0.000 HD
BRANCH  16  21
ATOM     18  C   UNL     1      46.462   2.361   7.783  0.00  0.00    +0.000 A 
ATOM     19  C   UNL     1      46.535   3.732   7.593  0.00  0.00    +0.000 A 
ATOM     20  N   UNL     1      45.685   4.608   8.202  0.00  0.00    +0.000 NA
ATOM     21  C   UNL     1      44.757   4.074   9.025  0.00  0.00    +0.000 A 
ATOM     22  C   UNL     1      44.710   2.682   9.209  0.00  0.00    +0.000 A 
ATOM     23  N   UNL     1      45.544   1.792   8.608  0.00  0.00    +0.000 NA
BRANCH  18  25
ATOM     24  N   UNL     1      48.500   2.040   6.505  0.00  0.00    +0.000 N 
ATOM     25  C   UNL     1      47.385   1.454   7.044  0.00  0.00    +0.000 C 
ATOM     26  O   UNL     1      47.173   0.252   6.937  0.00  0.00    +0.000 OA
ATOM     27  H   UNL     1      49.191   1.461   6.048  0.00  0.00    +0.000 HD
ATOM     28  H   UNL     1      48.690   3.021   6.671  0.00  0.00    +0.000 HD
ENDBRANCH  18  25
ENDBRANCH  16  21
ENDBRANCH   1  16
TORSDOF 5
ENDMDL
MODEL 2
REMARK VINA RESULT:    -8.605      1.140      1.694
REMARK INTER + INTRA:         -11.913
REMARK INTER:                 -11.028
REMARK INTRA:                  -0.885
REMARK UNBOUND:                -0.794
REMARK  Name = 
REMARK  5 active torsions:
REMARK  status: ('A' for Active; 'I' for Inactive)
REMARK    1  A    between atoms: C_2  and  C_4
REMARK    2  A    between atoms: C_7  and  N_8
REMARK    3  A    between atoms: N_8  and  C_9
REMARK    4  A    between atoms: C_9  and  C_10
REMARK    5  A    between atoms: C_15  and  C_16
REMARK                            x       y       z     vdW  Elec       q    Type
REMARK                         _______ _______ _______ _____ _____    ______ ____
ROOT
ATOM      1  C   UNL     1      43.564   4.507  11.353  0.00  0.00    +0.000 C 
ENDROOT
BRANCH   1   2
ATOM      2  C   UNL     1      44.824   4.940  12.083  0.00  0.00    +0.000 A 
ATOM      3  C   UNL     1      45.436   4.100  13.019  0.00  0.00    +0.000 A 
ATOM      4  C   UNL     1      46.596   4.510  13.672  0.00  0.00    +0.000 A 
ATOM      5  C   UNL     1      47.147   5.762  13.402  0.00  0.00    +0.000 A 
ATOM      6  F   UNL     1      48.251   6.104  14.085  0.00  0.00    +0.000 F 
ATOM      7  C   UNL     1      46.580   6.643  12.465  0.00  0.00    +0.000 A 
ATOM      8  C   UNL     1      45.411   6.193  11.811  0.00  0.00    +0.000 A 
BRANCH   7   9
ATOM      9  C   UNL     1      47.165   7.975  12.169  0.00  0.00    +0.000 A 
ATOM     10  C   UNL     1      48.512   8.116  11.774  0.00  0.00    +0.000 A 
ATOM     11  C   UNL     1      49.077   9.370  11.504  0.00  0.00    +0.000 A 
ATOM     12  C   UNL     1      48.300  10.516  11.611  0.00  0.00    +0.000 A 
ATOM     13  C   UNL     1      46.973  10.400  11.990  0.00  0.00    +0.000 A 
ATOM     14  F   UNL     1      46.216  11.501  12.090  0.00  0.00    +0.000 F 
ATOM     15  C   UNL     1      46.409   9.156  12.274  0.00  0.00    +0.000 A 
ENDBRANCH   7   9
ENDBRANCH   1   2
BRANCH   1  16
ATOM     16  N   UNL     1      43.725   4.777   9.928  0.00  0.00    +0.000 N 
ATOM     17  H   UNL     1      42.828   4.868   9.459  0.00  0.00    +0.000 HD
BRANCH  16  21
ATOM     18  C   UNL     1      46.312   2.310   7.887  0.00  0.00    +0.000 A 
ATOM     19  C   UNL     1      45.373   1.781   8.758  0.00  0.00    +0.000 A 
ATOM     20  N   UNL     1      44.484   2.555   9.444  0.00  0.00    +0.000 NA
ATOM     21  C   UNL     1      44.550   3.886   9.227  0.00  0.00    +0.000 A 
ATOM     22  C   UNL     1      45.505   4.397   8.333  0.00  0.00    +0.000 A 
ATOM     23  N   UNL     1      46.402   3.644   7.643  0.00  0.00    +0.000 NA
BRANCH  18  25
ATOM     24  N   UNL     1      48.346   2.035   6.593  0.00  0.00    +0.000 N 
ATOM     25  C   UNL     1      47.292   1.414   7.210  0.00  0.00    +0.000 C 
ATOM     26  O   UNL     1      47.176   0.195   7.216  0.00  0.00    +0.000 OA
ATOM     27  H   UNL     1      49.073   1.472   6.172  0.00  0.00    +0.000 HD
ATOM     28  H   UNL     1      48.460   3.039   6.665  0.00  0.00    +0.000 HD
ENDBRANCH  18  25
ENDBRANCH  16  21
ENDBRANCH   1  16
TORSDOF 5
ENDMDL
MODEL 3
REMARK VINA RESULT:    -8.303      2.089      4.006
REMARK INTER + INTRA:         -11.523
REMARK INTER:                 -11.268
REMARK INTRA:                  -0.256
REMARK UNBOUND:                -0.794
REMARK  Name = 
REMARK  5 active torsions:
REMARK  status: ('A' for Active; 'I' for Inactive)
REMARK    1  A    between atoms: C_2  and  C_4
REMARK    2  A    between atoms: C_7  and  N_8
REMARK    3  A    between atoms: N_8  and  C_9
REMARK    4  A    between atoms: C_9  and  C_10
REMARK    5  A    between atoms: C_15  and  C_16
REMARK                            x       y       z     vdW  Elec       q    Type
REMARK                         _______ _______ _______ _____ _____    ______ ____
ROOT
ATOM      1  C   UNL     1      44.045   4.828  11.376  0.00  0.00    +0.000 C 
ENDROOT
BRANCH   1   2
ATOM      2  C   UNL     1      45.324   5.442  11.919  0.00  0.00    +0.000 A 
ATOM      3  C   UNL     1      46.035   6.394  11.181  0.00  0.00    +0.000 A 
ATOM      4  C   UNL     1      47.200   6.952  11.700  0.00  0.00    +0.000 A 
ATOM      5  C   UNL     1      47.669   6.560  12.953  0.00  0.00    +0.000 A 
ATOM      6  F   UNL     1      48.812   7.119  13.381  0.00  0.00    +0.000 F 
ATOM      7  C   UNL     1      46.992   5.614  13.742  0.00  0.00    +0.000 A 
ATOM      8  C   UNL     1      45.807   5.075  13.194  0.00  0.00    +0.000 A 
BRANCH   7   9
ATOM      9  C   UNL     1      47.482   5.196  15.080  0.00  0.00    +0.000 A 
ATOM     10  C   UNL     1      48.445   5.951  15.781  0.00  0.00    +0.000 A 
ATOM     11  C   UNL     1      48.923   5.558  17.038  0.00  0.00    +0.000 A 
ATOM     12  C   UNL     1      48.436   4.401  17.632  0.00  0.00    +0.000 A 
ATOM     13  C   UNL     1      47.485   3.647  16.965  0.00  0.00    +0.000 A 
ATOM     14  F   UNL     1      47.007   2.533  17.535  0.00  0.00    +0.000 F 
ATOM     15  C   UNL     1      47.016   4.027  15.707  0.00  0.00    +0.000 A 
ENDBRANCH   7   9
ENDBRANCH   1   2
BRANCH   1  16
ATOM     16  N   UNL     1      44.062   4.911   9.919  0.00  0.00    +0.000 N 
ATOM     17  H   UNL     1      43.122   4.887   9.532  0.00  0.00    +0.000 HD
BRANCH  16  21
ATOM     18  C   UNL     1      46.297   2.028   8.011  0.00  0.00    +0.000 A 
ATOM     19  C   UNL     1      46.410   3.362   7.649  0.00  0.00    +0.000 A 
ATOM     20  N   UNL     1      45.704   4.355   8.263  0.00  0.00    +0.000 NA
ATOM     21  C   UNL     1      44.880   3.980   9.264  0.00  0.00    +0.000 A 
ATOM     22  C   UNL     1      44.790   2.623   9.618  0.00  0.00    +0.000 A 
ATOM     23  N   UNL     1      45.481   1.618   9.017  0.00  0.00    +0.000 NA
BRANCH  18  25
ATOM     24  N   UNL     1      46.797  -0.313   7.619  0.00  0.00    +0.000 N 
ATOM     25  C   UNL     1      47.055   0.985   7.264  0.00  0.00    +0.000 C 
ATOM     26  O   UNL     1      47.849   1.265   6.375  0.00  0.00    +0.000 OA
ATOM     27  H   UNL     1      47.237  -1.063   7.102  0.00  0.00    +0.000 HD
ATOM     28  H   UNL     1      46.082  -0.522   8.305  0.00  0.00    +0.000 HD
ENDBRANCH  18  25
ENDBRANCH  16  21
ENDBRANCH   1  16
TORSDOF 5
ENDMDL
MODEL 4
REMARK VINA RESULT:    -8.032      1.575      2.518
REMARK INTER + INTRA:         -11.174
REMARK INTER:                 -10.265
REMARK INTRA:                  -0.909
REMARK UNBOUND:                -0.794
REMARK  Name = 
REMARK  5 active torsions:
REMARK  status: ('A' for Active; 'I' for Inactive)
REMARK    1  A    between atoms: C_2  and  C_4
REMARK    2  A    between atoms: C_7  and  N_8
REMARK    3  A    between atoms: N_8  and  C_9
REMARK    4  A    between atoms: C_9  and  C_10
REMARK    5  A    between atoms: C_15  and  C_16
REMARK                            x       y       z     vdW  Elec       q    Type
REMARK                         _______ _______ _______ _____ _____    ______ ____
ROOT
ATOM      1  C   UNL     1      44.077   4.940  11.276  0.00  0.00    +0.000 C 
ENDROOT
BRANCH   1   2
ATOM      2  C   UNL     1      44.695   6.312  11.482  0.00  0.00    +0.000 A 
ATOM      3  C   UNL     1      43.937   7.475  11.307  0.00  0.00    +0.000 A 
ATOM      4  C   UNL     1      44.519   8.724  11.510  0.00  0.00    +0.000 A 
ATOM      5  C   UNL     1      45.860   8.822  11.880  0.00  0.00    +0.000 A 
ATOM      6  F   UNL     1      46.363  10.058  12.034  0.00  0.00    +0.000 F 
ATOM      7  C   UNL     1      46.666   7.688  12.078  0.00  0.00    +0.000 A 
ATOM      8  C   UNL     1      46.044   6.436  11.877  0.00  0.00    +0.000 A 
BRANCH   7   9
ATOM      9  C   UNL     1      48.093   7.785  12.479  0.00  0.00    +0.000 A 
ATOM     10  C   UNL     1      49.085   8.207  11.571  0.00  0.00    +0.000 A 
ATOM     11  C   UNL     1      50.436   8.289  11.936  0.00  0.00    +0.000 A 
ATOM     12  C   UNL     1      50.824   7.962  13.228  0.00  0.00    +0.000 A 
ATOM     13  C   UNL     1      49.864   7.552  14.139  0.00  0.00    +0.000 A 
ATOM     14  F   UNL     1      50.231   7.240  15.389  0.00  0.00    +0.000 F 
ATOM     15  C   UNL     1      48.521   7.455  13.777  0.00  0.00    +0.000 A 
ENDBRANCH   7   9
ENDBRANCH   1   2
BRANCH   1  16
ATOM     16  N   UNL     1      43.801   4.753   9.855  0.00  0.00    +0.000 N 
ATOM     17  H   UNL     1      42.885   4.339   9.702  0.00  0.00    +0.000 HD
BRANCH  16  21
ATOM     18  C   UNL     1      46.520   2.528   7.710  0.00  0.00    +0.000 A 
ATOM     19  C   UNL     1      46.457   3.904   7.555  0.00  0.00    +0.000 A 
ATOM     20  N   UNL     1      45.585   4.686   8.255  0.00  0.00    +0.000 NA
ATOM     21  C   UNL     1      44.776   4.053   9.131  0.00  0.00    +0.000 A 
ATOM     22  C   UNL     1      44.866   2.659   9.277  0.00  0.00    +0.000 A 
ATOM     23  N   UNL     1      45.724   1.861   8.587  0.00  0.00    +0.000 NA
BRANCH  18  25
ATOM     24  N   UNL     1      48.557   2.387   6.399  0.00  0.00    +0.000 N 
ATOM     25  C   UNL     1      47.457   1.724   6.875  0.00  0.00    +0.000 C 
ATOM     26  O   UNL     1      47.268   0.537   6.640  0.00  0.00    +0.000 OA
ATOM     27  H   UNL     1      49.257   1.874   5.880  0.00  0.00    +0.000 HD
ATOM     28  H   UNL     1      48.729   3.348   6.669  0.00  0.00    +0.000 HD
ENDBRANCH  18  25
ENDBRANCH  16  21
ENDBRANCH   1  16
TORSDOF 5
ENDMDL
MODEL 5
REMARK VINA RESULT:    -7.974      1.530      2.279
REMARK INTER + INTRA:         -11.098
REMARK INTER:                 -10.187
REMARK INTRA:                  -0.911
REMARK UNBOUND:                -0.794
REMARK  Name = 
REMARK  5 active torsions:
REMARK  status: ('A' for Active; 'I' for Inactive)
REMARK    1  A    between atoms: C_2  and  C_4
REMARK    2  A    between atoms: C_7  and  N_8
REMARK    3  A    between atoms: N_8  and  C_9
REMARK    4  A    between atoms: C_9  and  C_10
REMARK    5  A    between atoms: C_15  and  C_16
REMARK                            x       y       z     vdW  Elec       q    Type
REMARK                         _______ _______ _______ _____ _____    ______ ____
ROOT
ATOM      1  C   UNL     1      44.157   4.949  11.301  0.00  0.00    +0.000 C 
ENDROOT
BRANCH   1   2
ATOM      2  C   UNL     1      44.756   6.332  11.490  0.00  0.00    +0.000 A 
ATOM      3  C   UNL     1      43.985   7.482  11.292  0.00  0.00    +0.000 A 
ATOM      4  C   UNL     1      44.548   8.741  11.479  0.00  0.00    +0.000 A 
ATOM      5  C   UNL     1      45.884   8.863  11.858  0.00  0.00    +0.000 A 
ATOM      6  F   UNL     1      46.371  10.107  11.996  0.00  0.00    +0.000 F 
ATOM      7  C   UNL     1      46.704   7.742  12.080  0.00  0.00    +0.000 A 
ATOM      8  C   UNL     1      46.100   6.479  11.893  0.00  0.00    +0.000 A 
BRANCH   7   9
ATOM      9  C   UNL     1      48.126   7.864  12.489  0.00  0.00    +0.000 A 
ATOM     10  C   UNL     1      48.496   7.967  13.846  0.00  0.00    +0.000 A 
ATOM     11  C   UNL     1      49.834   8.096  14.242  0.00  0.00    +0.000 A 
ATOM     12  C   UNL     1      50.839   8.111  13.284  0.00  0.00    +0.000 A 
ATOM     13  C   UNL     1      50.500   8.003  11.945  0.00  0.00    +0.000 A 
ATOM     14  F   UNL     1      51.466   8.011  11.017  0.00  0.00    +0.000 F 
ATOM     15  C   UNL     1      49.168   7.889  11.546  0.00  0.00    +0.000 A 
ENDBRANCH   7   9
ENDBRANCH   1   2
BRANCH   1  16
ATOM     16  N   UNL     1      43.855   4.753   9.887  0.00  0.00    +0.000 N 
ATOM     17  H   UNL     1      42.936   4.339   9.754  0.00  0.00    +0.000 HD
BRANCH  16  21
ATOM     18  C   UNL     1      46.531   2.508   7.707  0.00  0.00    +0.000 A 
ATOM     19  C   UNL     1      46.464   3.883   7.541  0.00  0.00    +0.000 A 
ATOM     20  N   UNL     1      45.606   4.671   8.251  0.00  0.00    +0.000 NA
ATOM     21  C   UNL     1      44.816   4.046   9.150  0.00  0.00    +0.000 A 
ATOM     22  C   UNL     1      44.909   2.654   9.306  0.00  0.00    +0.000 A 
ATOM     23  N   UNL     1      45.753   1.849   8.606  0.00  0.00    +0.000 NA
BRANCH  18  25
ATOM     24  N   UNL     1      48.552   2.351   6.374  0.00  0.00    +0.000 N 
ATOM     25  C   UNL     1      47.451   1.697   6.861  0.00  0.00    +0.000 C 
ATOM     26  O   UNL     1      47.248   0.513   6.625  0.00  0.00    +0.000 OA
ATOM     27  H   UNL     1      49.241   1.832   5.847  0.00  0.00    +0.000 HD
ATOM     28  H   UNL     1      48.737   3.310   6.645  0.00  0.00    +0.000 HD
ENDBRANCH  18  25
ENDBRANCH  16  21
ENDBRANCH   1  16
TORSDOF 5
ENDMDL
MODEL 6
REMARK VINA RESULT:    -7.847      4.418      7.373
REMARK INTER + INTRA:         -10.934
REMARK INTER:                 -10.512
REMARK INTRA:                  -0.423
REMARK UNBOUND:                -0.794
REMARK  Name = 
REMARK  5 active torsions:
REMARK  status: ('A' for Active; 'I' for Inactive)
REMARK    1  A    between atoms: C_2  and  C_4
REMARK    2  A    between atoms: C_7  and  N_8
REMARK    3  A    between atoms: N_8  and  C_9
REMARK    4  A    between atoms: C_9  and  C_10
REMARK    5  A    between atoms: C_15  and  C_16
REMARK                            x       y       z     vdW  Elec       q    Type
REMARK                         _______ _______ _______ _____ _____    ______ ____
ROOT
ATOM      1  C   UNL     1      44.879   6.950  11.575  0.00  0.00    +0.000 C 
ENDROOT
BRANCH   1   2
ATOM      2  C   UNL     1      44.566   5.518  11.175  0.00  0.00    +0.000 A 
ATOM      3  C   UNL     1      43.608   4.771  11.869  0.00  0.00    +0.000 A 
ATOM      4  C   UNL     1      43.328   3.463  11.482  0.00  0.00    +0.000 A 
ATOM      5  C   UNL     1      44.004   2.890  10.406  0.00  0.00    +0.000 A 
ATOM      6  F   UNL     1      43.703   1.617  10.102  0.00  0.00    +0.000 F 
ATOM      7  C   UNL     1      44.969   3.596   9.667  0.00  0.00    +0.000 A 
ATOM      8  C   UNL     1      45.222   4.924  10.077  0.00  0.00    +0.000 A 
BRANCH   7   9
ATOM      9  C   UNL     1      45.689   2.993   8.516  0.00  0.00    +0.000 A 
ATOM     10  C   UNL     1      46.046   3.760   7.388  0.00  0.00    +0.000 A 
ATOM     11  C   UNL     1      46.714   3.198   6.292  0.00  0.00    +0.000 A 
ATOM     12  C   UNL     1      47.053   1.851   6.305  0.00  0.00    +0.000 A 
ATOM     13  C   UNL     1      46.719   1.080   7.407  0.00  0.00    +0.000 A 
ATOM     14  F   UNL     1      47.049  -0.218   7.429  0.00  0.00    +0.000 F 
ATOM     15  C   UNL     1      46.042   1.633   8.494  0.00  0.00    +0.000 A 
ENDBRANCH   7   9
ENDBRANCH   1   2
BRANCH   1  16
ATOM     16  N   UNL     1      46.326   7.143  11.550  0.00  0.00    +0.000 N 
ATOM     17  H   UNL     1      46.769   6.565  10.841  0.00  0.00    +0.000 HD
BRANCH  16  21
ATOM     18  C   UNL     1      48.342   6.508  15.082  0.00  0.00    +0.000 A 
ATOM     19  C   UNL     1      48.177   7.792  14.586  0.00  0.00    +0.000 A 
ATOM     20  N   UNL     1      47.503   8.055  13.429  0.00  0.00    +0.000 NA
ATOM     21  C   UNL     1      46.982   6.992  12.779  0.00  0.00    +0.000 A 
ATOM     22  C   UNL     1      47.155   5.702  13.308  0.00  0.00    +0.000 A 
ATOM     23  N   UNL     1      47.827   5.418  14.455  0.00  0.00    +0.000 NA
BRANCH  18  25
ATOM     24  N   UNL     1      48.512   6.592  17.501  0.00  0.00    +0.000 N 
ATOM     25  C   UNL     1      49.137   6.283  16.322  0.00  0.00    +0.000 C 
ATOM     26  O   UNL     1      50.276   5.832  16.296  0.00  0.00    +0.000 OA
ATOM     27  H   UNL     1      48.982   6.400  18.375  0.00  0.00    +0.000 HD
ATOM     28  H   UNL     1      47.544   6.892  17.501  0.00  0.00    +0.000 HD
ENDBRANCH  18  25
ENDBRANCH  16  21
ENDBRANCH   1  16
TORSDOF 5
ENDMDL
MODEL 7
REMARK VINA RESULT:    -7.846      4.314      6.937
REMARK INTER + INTRA:         -10.933
REMARK INTER:                 -10.371
REMARK INTRA:                  -0.562
REMARK UNBOUND:                -0.794
REMARK  Name = 
REMARK  5 active torsions:
REMARK  status: ('A' for Active; 'I' for Inactive)
REMARK    1  A    between atoms: C_2  and  C_4
REMARK    2  A    between atoms: C_7  and  N_8
REMARK    3  A    between atoms: N_8  and  C_9
REMARK    4  A    between atoms: C_9  and  C_10
REMARK    5  A    between atoms: C_15  and  C_16
REMARK                            x       y       z     vdW  Elec       q    Type
REMARK                         _______ _______ _______ _____ _____    ______ ____
ROOT
ATOM      1  C   UNL     1      44.722   7.163  11.492  0.00  0.00    +0.000 C 
ENDROOT
BRANCH   1   2
ATOM      2  C   UNL     1      44.439   5.709  11.153  0.00  0.00    +0.000 A 
ATOM      3  C   UNL     1      43.488   4.976  11.871  0.00  0.00    +0.000 A 
ATOM      4  C   UNL     1      43.236   3.647  11.540  0.00  0.00    +0.000 A 
ATOM      5  C   UNL     1      43.934   3.039  10.498  0.00  0.00    +0.000 A 
ATOM      6  F   UNL     1      43.659   1.749  10.248  0.00  0.00    +0.000 F 
ATOM      7  C   UNL     1      44.894   3.730   9.737  0.00  0.00    +0.000 A 
ATOM      8  C   UNL     1      45.118   5.079  10.090  0.00  0.00    +0.000 A 
BRANCH   7   9
ATOM      9  C   UNL     1      45.637   3.090   8.622  0.00  0.00    +0.000 A 
ATOM     10  C   UNL     1      46.077   3.834   7.508  0.00  0.00    +0.000 A 
ATOM     11  C   UNL     1      46.767   3.237   6.444  0.00  0.00    +0.000 A 
ATOM     12  C   UNL     1      47.047   1.877   6.478  0.00  0.00    +0.000 A 
ATOM     13  C   UNL     1      46.631   1.128   7.567  0.00  0.00    +0.000 A 
ATOM     14  F   UNL     1      46.903  -0.183   7.609  0.00  0.00    +0.000 F 
ATOM     15  C   UNL     1      45.931   1.715   8.621  0.00  0.00    +0.000 A 
ENDBRANCH   7   9
ENDBRANCH   1   2
BRANCH   1  16
ATOM     16  N   UNL     1      45.474   7.221  12.742  0.00  0.00    +0.000 N 
ATOM     17  H   UNL     1      45.040   7.850  13.411  0.00  0.00    +0.000 HD
BRANCH  16  21
ATOM     18  C   UNL     1      49.519   7.858  12.318  0.00  0.00    +0.000 A 
ATOM     19  C   UNL     1      48.610   8.853  11.993  0.00  0.00    +0.000 A 
ATOM     20  N   UNL     1      47.262   8.696  12.131  0.00  0.00    +0.000 NA
ATOM     21  C   UNL     1      46.840   7.510  12.619  0.00  0.00    +0.000 A 
ATOM     22  C   UNL     1      47.781   6.521  12.950  0.00  0.00    +0.000 A 
ATOM     23  N   UNL     1      49.127   6.655  12.815  0.00  0.00    +0.000 NA
BRANCH  18  25
ATOM     24  N   UNL     1      51.532   7.370  11.055  0.00  0.00    +0.000 N 
ATOM     25  C   UNL     1      50.976   8.073  12.091  0.00  0.00    +0.000 C 
ATOM     26  O   UNL     1      51.637   8.843  12.776  0.00  0.00    +0.000 OA
ATOM     27  H   UNL     1      52.503   7.525  10.818  0.00  0.00    +0.000 HD
ATOM     28  H   UNL     1      50.949   6.796  10.457  0.00  0.00    +0.000 HD
ENDBRANCH  18  25
ENDBRANCH  16  21
ENDBRANCH   1  16
TORSDOF 5
ENDMDL
MODEL 8
REMARK VINA RESULT:    -7.547      4.821      7.530
REMARK INTER + INTRA:         -10.546
REMARK INTER:                 -10.020
REMARK INTRA:                  -0.526
REMARK UNBOUND:                -0.794
REMARK  Name = 
REMARK  5 active torsions:
REMARK  status: ('A' for Active; 'I' for Inactive)
REMARK    1  A    between atoms: C_2  and  C_4
REMARK    2  A    between atoms: C_7  and  N_8
REMARK    3  A    between atoms: N_8  and  C_9
REMARK    4  A    between atoms: C_9  and  C_10
REMARK    5  A    between atoms: C_15  and  C_16
REMARK                            x       y       z     vdW  Elec       q    Type
REMARK                         _______ _______ _______ _____ _____    ______ ____
ROOT
ATOM      1  C   UNL     1      45.434   5.904  13.002  0.00  0.00    +0.000 C 
ENDROOT
BRANCH   1   2
ATOM      2  C   UNL     1      44.914   4.731  12.188  0.00  0.00    +0.000 A 
ATOM      3  C   UNL     1      43.834   3.965  12.641  0.00  0.00    +0.000 A 
ATOM      4  C   UNL     1      43.365   2.900  11.877  0.00  0.00    +0.000 A 
ATOM      5  C   UNL     1      43.974   2.586  10.662  0.00  0.00    +0.000 A 
ATOM      6  F   UNL     1      43.487   1.531   9.989  0.00  0.00    +0.000 F 
ATOM      7  C   UNL     1      45.055   3.326  10.154  0.00  0.00    +0.000 A 
ATOM      8  C   UNL     1      45.500   4.408  10.946  0.00  0.00    +0.000 A 
BRANCH   7   9
ATOM      9  C   UNL     1      45.704   3.001   8.858  0.00  0.00    +0.000 A 
ATOM     10  C   UNL     1      46.003   4.004   7.913  0.00  0.00    +0.000 A 
ATOM     11  C   UNL     1      46.602   3.706   6.682  0.00  0.00    +0.000 A 
ATOM     12  C   UNL     1      46.931   2.393   6.373  0.00  0.00    +0.000 A 
ATOM     13  C   UNL     1      46.654   1.393   7.290  0.00  0.00    +0.000 A 
ATOM     14  F   UNL     1      46.974   0.124   7.001  0.00  0.00    +0.000 F 
ATOM     15  C   UNL     1      46.044   1.682   8.511  0.00  0.00    +0.000 A 
ENDBRANCH   7   9
ENDBRANCH   1   2
BRANCH   1  16
ATOM     16  N   UNL     1      46.883   5.786  13.130  0.00  0.00    +0.000 N 
ATOM     17  H   UNL     1      47.288   5.274  12.351  0.00  0.00    +0.000 HD
BRANCH  16  21
ATOM     18  C   UNL     1      48.288   4.067  16.596  0.00  0.00    +0.000 A 
ATOM     19  C   UNL     1      48.526   5.406  16.327  0.00  0.00    +0.000 A 
ATOM     20  N   UNL     1      48.067   6.025  15.201  0.00  0.00    +0.000 NA
ATOM     21  C   UNL     1      47.348   5.267  14.346  0.00  0.00    +0.000 A 
ATOM     22  C   UNL     1      47.113   3.915  14.646  0.00  0.00    +0.000 A 
ATOM     23  N   UNL     1      47.564   3.278  15.760  0.00  0.00    +0.000 NA
BRANCH  18  25
ATOM     24  N   UNL     1      48.151   3.609  18.975  0.00  0.00    +0.000 N 
ATOM     25  C   UNL     1      48.864   3.437  17.818  0.00  0.00    +0.000 C 
ATOM     26  O   UNL     1      49.903   2.790  17.791  0.00  0.00    +0.000 OA
ATOM     27  H   UNL     1      48.463   3.150  19.820  0.00  0.00    +0.000 HD
ATOM     28  H   UNL     1      47.256   4.085  18.957  0.00  0.00    +0.000 HD
ENDBRANCH  18  25
ENDBRANCH  16  21
ENDBRANCH   1  16
TORSDOF 5
ENDMDL
MODEL 9
REMARK VINA RESULT:    -7.229      4.877      7.633
REMARK INTER + INTRA:         -10.135
REMARK INTER:                  -9.727
REMARK INTRA:                  -0.408
REMARK UNBOUND:                -0.794
REMARK  Name = 
REMARK  5 active torsions:
REMARK  status: ('A' for Active; 'I' for Inactive)
REMARK    1  A    between atoms: C_2  and  C_4
REMARK    2  A    between atoms: C_7  and  N_8
REMARK    3  A    between atoms: N_8  and  C_9
REMARK    4  A    between atoms: C_9  and  C_10
REMARK    5  A    between atoms: C_15  and  C_16
REMARK                            x       y       z     vdW  Elec       q    Type
REMARK                         _______ _______ _______ _____ _____    ______ ____
ROOT
ATOM      1  C   UNL     1      49.018   7.478  13.355  0.00  0.00    +0.000 C 
ENDROOT
BRANCH   1   2
ATOM      2  C   UNL     1      47.606   7.501  12.795  0.00  0.00    +0.000 A 
ATOM      3  C   UNL     1      46.766   8.599  13.009  0.00  0.00    +0.000 A 
ATOM      4  C   UNL     1      45.478   8.605  12.480  0.00  0.00    +0.000 A 
ATOM      5  C   UNL     1      45.017   7.516  11.743  0.00  0.00    +0.000 A 
ATOM      6  F   UNL     1      43.756   7.578  11.283  0.00  0.00    +0.000 F 
ATOM      7  C   UNL     1      45.819   6.390  11.490  0.00  0.00    +0.000 A 
ATOM      8  C   UNL     1      47.124   6.419  12.029  0.00  0.00    +0.000 A 
BRANCH   7   9
ATOM      9  C   UNL     1      45.336   5.229  10.700  0.00  0.00    +0.000 A 
ATOM     10  C   UNL     1      45.639   5.094   9.329  0.00  0.00    +0.000 A 
ATOM     11  C   UNL     1      45.177   4.009   8.572  0.00  0.00    +0.000 A 
ATOM     12  C   UNL     1      44.409   3.022   9.176  0.00  0.00    +0.000 A 
ATOM     13  C   UNL     1      44.106   3.130  10.523  0.00  0.00    +0.000 A 
ATOM     14  F   UNL     1      43.371   2.178  11.114  0.00  0.00    +0.000 F 
ATOM     15  C   UNL     1      44.552   4.216  11.278  0.00  0.00    +0.000 A 
ENDBRANCH   7   9
ENDBRANCH   1   2
BRANCH   1  16
ATOM     16  N   UNL     1      48.957   7.656  14.802  0.00  0.00    +0.000 N 
ATOM     17  H   UNL     1      49.802   8.093  15.162  0.00  0.00    +0.000 HD
BRANCH  16  21
ATOM     18  C   UNL     1      48.030   4.416  17.166  0.00  0.00    +0.000 A 
ATOM     19  C   UNL     1      47.626   4.461  15.841  0.00  0.00    +0.000 A 
ATOM     20  N   UNL     1      47.922   5.504  15.014  0.00  0.00    +0.000 NA
ATOM     21  C   UNL     1      48.651   6.508  15.546  0.00  0.00    +0.000 A 
ATOM     22  C   UNL     1      49.057   6.435  16.888  0.00  0.00    +0.000 A 
ATOM     23  N   UNL     1      48.769   5.407  17.731  0.00  0.00    +0.000 NA
BRANCH  18  25
ATOM     24  N   UNL     1      48.311   3.142  19.212  0.00  0.00    +0.000 N 
ATOM     25  C   UNL     1      47.626   3.273  18.033  0.00  0.00    +0.000 C 
ATOM     26  O   UNL     1      46.725   2.504  17.722  0.00  0.00    +0.000 OA
ATOM     27  H   UNL     1      48.036   2.422  19.866  0.00  0.00    +0.000 HD
ATOM     28  H   UNL     1      49.000   3.835  19.481  0.00  0.00    +0.000 HD
ENDBRANCH  18  25
ENDBRANCH  16  21
ENDBRANCH   1  16
TORSDOF 5
ENDMDL
