MODEL 1
REMARK VINA RESULT:    -8.440      0.000      0.000
REMARK INTER + INTRA:         -13.133
REMARK INTER:                 -12.387
REMARK INTRA:                  -0.747
REMARK UNBOUND:                -0.747
REMARK  Name = 
REMARK  8 active torsions:
REMARK  status: ('A' for Active; 'I' for Inactive)
REMARK    1  A    between atoms: C_2  and  O_3
REMARK    2  A    between atoms: C_2  and  C_20
REMARK    3  A    between atoms: O_3  and  C_4
REMARK    4  A    between atoms: C_4  and  C_5
REMARK    5  A    between atoms: C_8  and  C_9
REMARK    6  A    between atoms: C_9  and  N_10
REMARK    7  A    between atoms: N_10  and  C_11
REMARK    8  A    between atoms: C_11  and  C_12
REMARK                            x       y       z     vdW  Elec       q    Type
REMARK                         _______ _______ _______ _____ _____    ______ ____
ROOT
ATOM      1  C   UNL     1      45.568   5.594  13.443  0.00  0.00    +0.000 C 
ATOM      2  C   UNL     1      45.955   6.213  12.093  0.00  0.00    +0.000 C 
ATOM      3  C   UNL     1      45.717   5.255  10.923  0.00  0.00    +0.000 C 
ATOM      4  C   UNL     1      44.263   4.750  10.876  0.00  0.00    +0.000 C 
ATOM      5  C   UNL     1      43.800   4.208  12.243  0.00  0.00    +0.000 C 
ATOM      6  C   UNL     1      44.098   5.160  13.398  0.00  0.00    +0.000 C 
ENDROOT
BRANCH   1   7
ATOM      7  C   UNL     1      46.519   4.447  13.827  0.00  0.00    +0.000 C 
BRANCH   7   8
ATOM      8  O   UNL     1      47.515   4.881  14.764  0.00  0.00    +0.000 OA
BRANCH   8  10
ATOM      9  O   UNL     1      46.546   3.634  16.412  0.00  0.00    +0.000 OA
ATOM     10  C   UNL     1      47.455   4.350  16.009  0.00  0.00    +0.000 C 
BRANCH  10  11
ATOM     11  C   UNL     1      48.629   4.670  16.818  0.00  0.00    +0.000 A 
ATOM     12  C   UNL     1      48.806   5.947  17.332  0.00  0.00    +0.000 A 
ATOM     13  S   UNL     1      50.246   6.118  18.231  0.00  0.00    +0.000 S 
ATOM     14  C   UNL     1      50.663   4.486  17.981  0.00  0.00    +0.000 A 
ATOM     15  N   UNL     1      51.802   3.967  18.515  0.00  0.00    +0.000 NA
ATOM     16  C   UNL     1      51.977   2.711  18.273  0.00  0.00    +0.000 A 
ATOM     17  N   UNL     1      51.126   1.931  17.534  0.00  0.00    +0.000 N 
ATOM     18  C   UNL     1      50.017   2.432  16.887  0.00  0.00    +0.000 A 
ATOM     19  O   UNL     1      49.393   1.738  16.095  0.00  0.00    +0.000 OA
ATOM     20  C   UNL     1      49.732   3.823  17.200  0.00  0.00    +0.000 A 
ATOM     21  H   UNL     1      51.343   0.965  17.345  0.00  0.00    +0.000 HD
ENDBRANCH  10  11
ENDBRANCH   8  10
ENDBRANCH   7   8
ENDBRANCH   1   7
BRANCH   4  22
ATOM     22  C   UNL     1      44.095   3.680   9.773  0.00  0.00    +0.000 C 
BRANCH  22  23
ATOM     23  N   UNL     1      45.108   2.635   9.921  0.00  0.00    +0.000 NA
ATOM     24  H   UNL     1      45.005   2.176  10.826  0.00  0.00    +0.000 HD
BRANCH  23  25
ATOM     25  C   UNL     1      45.042   1.637   8.858  0.00  0.00    +0.000 C 
BRANCH  25  26
ATOM     26  C   UNL     1      46.056   1.924   7.781  0.00  0.00    +0.000 A 
ATOM     27  C   UNL     1      45.987   3.084   7.002  0.00  0.00    +0.000 A 
ATOM     28  C   UNL     1      46.920   3.302   5.995  0.00  0.00    +0.000 A 
ATOM     29  C   UNL     1      47.901   2.347   5.792  0.00  0.00    +0.000 A 
ATOM     30  N   UNL     1      48.009   1.213   6.522  0.00  0.00    +0.000 NA
ATOM     31  C   UNL     1      47.085   1.033   7.496  0.00  0.00    +0.000 A 
ENDBRANCH  25  26
ENDBRANCH  23  25
ENDBRANCH  22  23
ENDBRANCH   4  22
TORSDOF 8
ENDMDL
MODEL 2
REMARK VINA RESULT:    -8.287      1.979      2.333
REMARK INTER + INTRA:         -12.909
REMARK INTER:                 -11.981
REMARK INTRA:                  -0.928
REMARK UNBOUND:                -0.747
REMARK  Name = 
REMARK  8 active torsions:
REMARK  status: ('A' for Active; 'I' for Inactive)
REMARK    1  A    between atoms: C_2  and  O_3
REMARK    2  A    between atoms: C_2  and  C_20
REMARK    3  A    between atoms: O_3  and  C_4
REMARK    4  A    between atoms: C_4  and  C_5
REMARK    5  A    between atoms: C_8  and  C_9
REMARK    6  A    between atoms: C_9  and  N_10
REMARK    7  A    between atoms: N_10  and  C_11
REMARK    8  A    between atoms: C_11  and  C_12
REMARK                            x       y       z     vdW  Elec       q    Type
REMARK                         _______ _______ _______ _____ _____    ______ ____
ROOT
ATOM      1  C   UNL     1      45.893   6.143  12.909  0.00  0.00    +0.000 C 
ATOM      2  C   UNL     1      46.147   6.417  11.421  0.00  0.00    +0.000 C 
ATOM      3  C   UNL     1      45.684   5.262  10.529  0.00  0.00    +0.000 C 
ATOM      4  C   UNL     1      44.202   4.914  10.757  0.00  0.00    +0.000 C 
ATOM      5  C   UNL     1      43.881   4.725  12.253  0.00  0.00    +0.000 C 
ATOM      6  C   UNL     1      44.401   5.865  13.125  0.00  0.00    +0.000 C 
ENDROOT
BRANCH   1   7
ATOM      7  C   UNL     1      46.795   5.011  13.432  0.00  0.00    +0.000 C 
BRANCH   7   8
ATOM      8  O   UNL     1      46.453   4.643  14.775  0.00  0.00    +0.000 OA
BRANCH   8  10
ATOM      9  O   UNL     1      47.909   2.924  15.144  0.00  0.00    +0.000 OA
ATOM     10  C   UNL     1      47.397   3.984  15.488  0.00  0.00    +0.000 C 
BRANCH  10  11
ATOM     11  C   UNL     1      47.798   4.699  16.698  0.00  0.00    +0.000 A 
ATOM     12  C   UNL     1      47.312   4.315  17.940  0.00  0.00    +0.000 A 
ATOM     13  S   UNL     1      47.883   5.288  19.218  0.00  0.00    +0.000 S 
ATOM     14  C   UNL     1      48.817   6.235  18.155  0.00  0.00    +0.000 A 
ATOM     15  N   UNL     1      49.584   7.258  18.622  0.00  0.00    +0.000 NA
ATOM     16  C   UNL     1      50.263   7.870  17.710  0.00  0.00    +0.000 A 
ATOM     17  N   UNL     1      50.234   7.564  16.374  0.00  0.00    +0.000 N 
ATOM     18  C   UNL     1      49.396   6.609  15.841  0.00  0.00    +0.000 A 
ATOM     19  O   UNL     1      49.274   6.498  14.627  0.00  0.00    +0.000 OA
ATOM     20  C   UNL     1      48.675   5.834  16.838  0.00  0.00    +0.000 A 
ATOM     21  H   UNL     1      50.755   8.111  15.708  0.00  0.00    +0.000 HD
ENDBRANCH  10  11
ENDBRANCH   8  10
ENDBRANCH   7   8
ENDBRANCH   1   7
BRANCH   4  22
ATOM     22  C   UNL     1      43.808   3.658   9.947  0.00  0.00    +0.000 C 
BRANCH  22  23
ATOM     23  N   UNL     1      44.821   2.614  10.105  0.00  0.00    +0.000 NA
ATOM     24  H   UNL     1      44.683   2.126  10.990  0.00  0.00    +0.000 HD
BRANCH  23  25
ATOM     25  C   UNL     1      44.806   1.648   9.011  0.00  0.00    +0.000 C 
BRANCH  25  26
ATOM     26  C   UNL     1      45.911   1.929   8.025  0.00  0.00    +0.000 A 
ATOM     27  C   UNL     1      46.017   3.165   7.378  0.00  0.00    +0.000 A 
ATOM     28  C   UNL     1      47.030   3.379   6.450  0.00  0.00    +0.000 A 
ATOM     29  C   UNL     1      47.912   2.344   6.192  0.00  0.00    +0.000 A 
ATOM     30  N   UNL     1      47.850   1.135   6.795  0.00  0.00    +0.000 NA
ATOM     31  C   UNL     1      46.852   0.960   7.695  0.00  0.00    +0.000 A 
ENDBRANCH  25  26
ENDBRANCH  23  25
ENDBRANCH  22  23
ENDBRANCH   4  22
TORSDOF 8
ENDMDL
MODEL 3
REMARK VINA RESULT:    -7.772      1.643      2.623
REMARK INTER + INTRA:         -12.153
REMARK INTER:                 -11.058
REMARK INTRA:                  -1.095
REMARK UNBOUND:                -0.747
REMARK  Name = 
REMARK  8 active torsions:
REMARK  status: ('A' for Active; 'I' for Inactive)
REMARK    1  A    between atoms: C_2  and  O_3
REMARK    2  A    between atoms: C_2  and  C_20
REMARK    3  A    between atoms: O_3  and  C_4
REMARK    4  A    between atoms: C_4  and  C_5
REMARK    5  A    between atoms: C_8  and  C_9
REMARK    6  A    between atoms: C_9  and  N_10
REMARK    7  A    between atoms: N_10  and  C_11
REMARK    8  A    between atoms: C_11  and  C_12
REMARK                            x       y       z     vdW  Elec       q    Type
REMARK                         _______ _______ _______ _____ _____    ______ ____
ROOT
ATOM      1  C   UNL     1      48.388   7.072  13.911  0.00  0.00    +0.000 C 
ATOM      2  C   UNL     1      48.236   5.994  12.831  0.00  0.00    +0.000 C 
ATOM      3  C   UNL     1      46.769   5.653  12.551  0.00  0.00    +0.000 C 
ATOM      4  C   UNL     1      45.948   6.900  12.173  0.00  0.00    +0.000 C 
ATOM      5  C   UNL     1      46.150   8.047  13.184  0.00  0.00    +0.000 C 
ATOM      6  C   UNL     1      47.619   8.329  13.484  0.00  0.00    +0.000 C 
ENDROOT
BRANCH   1   7
ATOM      7  C   UNL     1      47.958   6.547  15.292  0.00  0.00    +0.000 C 
BRANCH   7   8
ATOM      8  O   UNL     1      48.425   5.210  15.515  0.00  0.00    +0.000 OA
BRANCH   8  10
ATOM      9  O   UNL     1      47.275   4.468  17.342  0.00  0.00    +0.000 OA
ATOM     10  C   UNL     1      48.332   4.732  16.779  0.00  0.00    +0.000 C 
BRANCH  10  11
ATOM     11  C   UNL     1      49.636   4.500  17.396  0.00  0.00    +0.000 A 
ATOM     12  C   UNL     1      50.278   5.513  18.094  0.00  0.00    +0.000 A 
ATOM     13  S   UNL     1      51.794   5.046  18.718  0.00  0.00    +0.000 S 
ATOM     14  C   UNL     1      51.628   3.469  18.097  0.00  0.00    +0.000 A 
ATOM     15  N   UNL     1      52.595   2.533  18.299  0.00  0.00    +0.000 NA
ATOM     16  C   UNL     1      52.324   1.374  17.801  0.00  0.00    +0.000 A 
ATOM     17  N   UNL     1      51.182   1.069  17.105  0.00  0.00    +0.000 N 
ATOM     18  C   UNL     1      50.224   2.005  16.785  0.00  0.00    +0.000 A 
ATOM     19  O   UNL     1      49.317   1.727  16.012  0.00  0.00    +0.000 OA
ATOM     20  C   UNL     1      50.444   3.306  17.398  0.00  0.00    +0.000 A 
ATOM     21  H   UNL     1      51.051   0.154  16.703  0.00  0.00    +0.000 HD
ENDBRANCH  10  11
ENDBRANCH   8  10
ENDBRANCH   7   8
ENDBRANCH   1   7
BRANCH   4  22
ATOM     22  C   UNL     1      44.450   6.543  12.037  0.00  0.00    +0.000 C 
BRANCH  22  23
ATOM     23  N   UNL     1      44.152   6.122  10.668  0.00  0.00    +0.000 NA
ATOM     24  H   UNL     1      44.978   6.237  10.080  0.00  0.00    +0.000 HD
BRANCH  23  25
ATOM     25  C   UNL     1      43.690   4.740  10.594  0.00  0.00    +0.000 C 
BRANCH  25  26
ATOM     26  C   UNL     1      44.556   3.927   9.666  0.00  0.00    +0.000 A 
ATOM     27  C   UNL     1      45.387   4.537   8.719  0.00  0.00    +0.000 A 
ATOM     28  C   UNL     1      46.148   3.757   7.857  0.00  0.00    +0.000 A 
ATOM     29  C   UNL     1      46.056   2.380   7.964  0.00  0.00    +0.000 A 
ATOM     30  N   UNL     1      45.269   1.747   8.865  0.00  0.00    +0.000 NA
ATOM     31  C   UNL     1      44.542   2.537   9.691  0.00  0.00    +0.000 A 
ENDBRANCH  25  26
ENDBRANCH  23  25
ENDBRANCH  22  23
ENDBRANCH   4  22
TORSDOF 8
ENDMDL
MODEL 4
REMARK VINA RESULT:    -7.652      3.057      4.019
REMARK INTER + INTRA:         -11.976
REMARK INTER:                 -10.918
REMARK INTRA:                  -1.059
REMARK UNBOUND:                -0.747
REMARK  Name = 
REMARK  8 active torsions:
REMARK  status: ('A' for Active; 'I' for Inactive)
REMARK    1  A    between atoms: C_2  and  O_3
REMARK    2  A    between atoms: C_2  and  C_20
REMARK    3  A    between atoms: O_3  and  C_4
REMARK    4  A    between atoms: C_4  and  C_5
REMARK    5  A    between atoms: C_8  and  C_9
REMARK    6  A    between atoms: C_9  and  N_10
REMARK    7  A    between atoms: N_10  and  C_11
REMARK    8  A    between atoms: C_11  and  C_12
REMARK                            x       y       z     vdW  Elec       q    Type
REMARK                         _______ _______ _______ _____ _____    ______ ____
ROOT
ATOM      1  C   UNL     1      46.189   6.468  12.960  0.00  0.00    +0.000 C 
ATOM      2  C   UNL     1      44.799   6.835  12.422  0.00  0.00    +0.000 C 
ATOM      3  C   UNL     1      44.287   5.822  11.393  0.00  0.00    +0.000 C 
ATOM      4  C   UNL     1      44.278   4.387  11.950  0.00  0.00    +0.000 C 
ATOM      5  C   UNL     1      45.630   4.011  12.590  0.00  0.00    +0.000 C 
ATOM      6  C   UNL     1      46.141   5.063  13.571  0.00  0.00    +0.000 C 
ENDROOT
BRANCH   1   7
ATOM      7  C   UNL     1      47.266   6.612  11.871  0.00  0.00    +0.000 C 
BRANCH   7   8
ATOM      8  O   UNL     1      48.578   6.355  12.391  0.00  0.00    +0.000 OA
BRANCH   8  10
ATOM      9  O   UNL     1      50.391   7.424  11.507  0.00  0.00    +0.000 OA
ATOM     10  C   UNL     1      49.474   7.368  12.320  0.00  0.00    +0.000 C 
BRANCH  10  11
ATOM     11  C   UNL     1      49.202   8.436  13.280  0.00  0.00    +0.000 A 
ATOM     12  C   UNL     1      49.220   9.765  12.883  0.00  0.00    +0.000 A 
ATOM     13  S   UNL     1      48.897  10.853  14.155  0.00  0.00    +0.000 S 
ATOM     14  C   UNL     1      48.698   9.581  15.269  0.00  0.00    +0.000 A 
ATOM     15  N   UNL     1      48.383   9.833  16.568  0.00  0.00    +0.000 NA
ATOM     16  C   UNL     1      48.231   8.776  17.292  0.00  0.00    +0.000 A 
ATOM     17  N   UNL     1      48.381   7.490  16.841  0.00  0.00    +0.000 N 
ATOM     18  C   UNL     1      48.801   7.186  15.564  0.00  0.00    +0.000 A 
ATOM     19  O   UNL     1      49.095   6.036  15.264  0.00  0.00    +0.000 OA
ATOM     20  C   UNL     1      48.902   8.341  14.687  0.00  0.00    +0.000 A 
ATOM     21  H   UNL     1      48.292   6.708  17.470  0.00  0.00    +0.000 HD
ENDBRANCH  10  11
ENDBRANCH   8  10
ENDBRANCH   7   8
ENDBRANCH   1   7
BRANCH   4  22
ATOM     22  C   UNL     1      43.892   3.377  10.845  0.00  0.00    +0.000 C 
BRANCH  22  23
ATOM     23  N   UNL     1      45.086   2.700  10.338  0.00  0.00    +0.000 NA
ATOM     24  H   UNL     1      45.481   2.102  11.062  0.00  0.00    +0.000 HD
BRANCH  23  25
ATOM     25  C   UNL     1      44.813   1.904   9.145  0.00  0.00    +0.000 C 
BRANCH  25  26
ATOM     26  C   UNL     1      45.902   2.076   8.118  0.00  0.00    +0.000 A 
ATOM     27  C   UNL     1      46.064   3.277   7.417  0.00  0.00    +0.000 A 
ATOM     28  C   UNL     1      47.059   3.391   6.453  0.00  0.00    +0.000 A 
ATOM     29  C   UNL     1      47.868   2.294   6.213  0.00  0.00    +0.000 A 
ATOM     30  N   UNL     1      47.750   1.115   6.867  0.00  0.00    +0.000 NA
ATOM     31  C   UNL     1      46.772   1.039   7.801  0.00  0.00    +0.000 A 
ENDBRANCH  25  26
ENDBRANCH  23  25
ENDBRANCH  22  23
ENDBRANCH   4  22
TORSDOF 8
ENDMDL
MODEL 5
REMARK VINA RESULT:    -7.593      2.212      3.127
REMARK INTER + INTRA:         -11.891
REMARK INTER:                 -10.647
REMARK INTRA:                  -1.244
REMARK UNBOUND:                -0.747
REMARK  Name = 
REMARK  8 active torsions:
REMARK  status: ('A' for Active; 'I' for Inactive)
REMARK    1  A    between atoms: C_2  and  O_3
REMARK    2  A    between atoms: C_2  and  C_20
REMARK    3  A    between atoms: O_3  and  C_4
REMARK    4  A    between atoms: C_4  and  C_5
REMARK    5  A    between atoms: C_8  and  C_9
REMARK    6  A    between atoms: C_9  and  N_10
REMARK    7  A    between atoms: N_10  and  C_11
REMARK    8  A    between atoms: C_11  and  C_12
REMARK                            x       y       z     vdW  Elec       q    Type
REMARK                         _______ _______ _______ _____ _____    ______ ____
ROOT
ATOM      1  C   UNL     1      47.203   8.605  12.505  0.00  0.00    +0.000 C 
ATOM      2  C   UNL     1      47.718   7.443  11.647  0.00  0.00    +0.000 C 
ATOM      3  C   UNL     1      46.733   6.272  11.600  0.00  0.00    +0.000 C 
ATOM      4  C   UNL     1      45.338   6.710  11.116  0.00  0.00    +0.000 C 
ATOM      5  C   UNL     1      44.823   7.940  11.889  0.00  0.00    +0.000 C 
ATOM      6  C   UNL     1      45.845   9.071  11.965  0.00  0.00    +0.000 C 
ENDROOT
BRANCH   1   7
ATOM      7  C   UNL     1      47.156   8.224  13.995  0.00  0.00    +0.000 C 
BRANCH   7   8
ATOM      8  O   UNL     1      48.375   8.572  14.666  0.00  0.00    +0.000 OA
BRANCH   8  10
ATOM      9  O   UNL     1      50.194   7.301  14.129  0.00  0.00    +0.000 OA
ATOM     10  C   UNL     1      49.263   7.571  14.880  0.00  0.00    +0.000 C 
BRANCH  10  11
ATOM     11  C   UNL     1      49.037   6.873  16.143  0.00  0.00    +0.000 A 
ATOM     12  C   UNL     1      49.511   7.399  17.336  0.00  0.00    +0.000 A 
ATOM     13  S   UNL     1      49.161   6.423  18.690  0.00  0.00    +0.000 S 
ATOM     14  C   UNL     1      48.344   5.281  17.727  0.00  0.00    +0.000 A 
ATOM     15  N   UNL     1      47.772   4.179  18.284  0.00  0.00    +0.000 NA
ATOM     16  C   UNL     1      47.159   3.416  17.442  0.00  0.00    +0.000 A 
ATOM     17  N   UNL     1      47.079   3.646  16.093  0.00  0.00    +0.000 N 
ATOM     18  C   UNL     1      47.728   4.688  15.469  0.00  0.00    +0.000 A 
ATOM     19  O   UNL     1      47.776   4.748  14.247  0.00  0.00    +0.000 OA
ATOM     20  C   UNL     1      48.360   5.623  16.386  0.00  0.00    +0.000 A 
ATOM     21  H   UNL     1      46.622   2.986  15.483  0.00  0.00    +0.000 HD
ENDBRANCH  10  11
ENDBRANCH   8  10
ENDBRANCH   7   8
ENDBRANCH   1   7
BRANCH   4  22
ATOM     22  C   UNL     1      44.335   5.537  11.216  0.00  0.00    +0.000 C 
BRANCH  22  23
ATOM     23  N   UNL     1      44.014   5.030   9.882  0.00  0.00    +0.000 NA
ATOM     24  H   UNL     1      44.649   5.434   9.193  0.00  0.00    +0.000 HD
BRANCH  23  25
ATOM     25  C   UNL     1      44.078   3.573   9.806  0.00  0.00    +0.000 C 
BRANCH  25  26
ATOM     26  C   UNL     1      45.168   3.127   8.865  0.00  0.00    +0.000 A 
ATOM     27  C   UNL     1      45.815   4.029   8.014  0.00  0.00    +0.000 A 
ATOM     28  C   UNL     1      46.793   3.577   7.136  0.00  0.00    +0.000 A 
ATOM     29  C   UNL     1      47.098   2.227   7.132  0.00  0.00    +0.000 A 
ATOM     30  N   UNL     1      46.501   1.319   7.938  0.00  0.00    +0.000 NA
ATOM     31  C   UNL     1      45.554   1.793   8.783  0.00  0.00    +0.000 A 
ENDBRANCH  25  26
ENDBRANCH  23  25
ENDBRANCH  22  23
ENDBRANCH   4  22
TORSDOF 8
ENDMDL
MODEL 6
REMARK VINA RESULT:    -7.546      3.621      4.499
REMARK INTER + INTRA:         -11.821
REMARK INTER:                 -10.896
REMARK INTRA:                  -0.925
REMARK UNBOUND:                -0.747
REMARK  Name = 
REMARK  8 active torsions:
REMARK  status: ('A' for Active; 'I' for Inactive)
REMARK    1  A    between atoms: C_2  and  O_3
REMARK    2  A    between atoms: C_2  and  C_20
REMARK    3  A    between atoms: O_3  and  C_4
REMARK    4  A    between atoms: C_4  and  C_5
REMARK    5  A    between atoms: C_8  and  C_9
REMARK    6  A    between atoms: C_9  and  N_10
REMARK    7  A    between atoms: N_10  and  C_11
REMARK    8  A    between atoms: C_11  and  C_12
REMARK                            x       y       z     vdW  Elec       q    Type
REMARK                         _______ _______ _______ _____ _____    ______ ____
ROOT
ATOM      1  C   UNL     1      45.956   5.865  13.183  0.00  0.00    +0.000 C 
ATOM      2  C   UNL     1      44.468   6.123  12.913  0.00  0.00    +0.000 C 
ATOM      3  C   UNL     1      43.911   5.220  11.809  0.00  0.00    +0.000 C 
ATOM      4  C   UNL     1      44.142   3.728  12.112  0.00  0.00    +0.000 C 
ATOM      5  C   UNL     1      45.610   3.440  12.486  0.00  0.00    +0.000 C 
ATOM      6  C   UNL     1      46.155   4.389  13.549  0.00  0.00    +0.000 C 
ENDROOT
BRANCH   1   7
ATOM      7  C   UNL     1      46.827   6.310  11.995  0.00  0.00    +0.000 C 
BRANCH   7   8
ATOM      8  O   UNL     1      46.690   7.715  11.740  0.00  0.00    +0.000 OA
BRANCH   8  10
ATOM      9  O   UNL     1      46.573   8.846  13.720  0.00  0.00    +0.000 OA
ATOM     10  C   UNL     1      47.168   8.558  12.688  0.00  0.00    +0.000 C 
BRANCH  10  11
ATOM     11  C   UNL     1      48.510   9.050  12.385  0.00  0.00    +0.000 A 
ATOM     12  C   UNL     1      48.703  10.027  11.418  0.00  0.00    +0.000 A 
ATOM     13  S   UNL     1      50.341  10.448  11.203  0.00  0.00    +0.000 S 
ATOM     14  C   UNL     1      50.840   9.356  12.411  0.00  0.00    +0.000 A 
ATOM     15  N   UNL     1      52.154   9.235  12.743  0.00  0.00    +0.000 NA
ATOM     16  C   UNL     1      52.385   8.395  13.695  0.00  0.00    +0.000 A 
ATOM     17  N   UNL     1      51.425   7.654  14.335  0.00  0.00    +0.000 N 
ATOM     18  C   UNL     1      50.098   7.664  13.965  0.00  0.00    +0.000 A 
ATOM     19  O   UNL     1      49.313   6.854  14.444  0.00  0.00    +0.000 OA
ATOM     20  C   UNL     1      49.775   8.658  12.955  0.00  0.00    +0.000 A 
ATOM     21  H   UNL     1      51.677   6.981  15.042  0.00  0.00    +0.000 HD
ENDBRANCH  10  11
ENDBRANCH   8  10
ENDBRANCH   7   8
ENDBRANCH   1   7
BRANCH   4  22
ATOM     22  C   UNL     1      43.697   2.855  10.917  0.00  0.00    +0.000 C 
BRANCH  22  23
ATOM     23  N   UNL     1      44.593   3.058   9.778  0.00  0.00    +0.000 NA
ATOM     24  H   UNL     1      45.428   3.561  10.078  0.00  0.00    +0.000 HD
BRANCH  23  25
ATOM     25  C   UNL     1      44.983   1.804   9.142  0.00  0.00    +0.000 C 
BRANCH  25  26
ATOM     26  C   UNL     1      45.976   2.044   8.033  0.00  0.00    +0.000 A 
ATOM     27  C   UNL     1      45.993   3.244   7.315  0.00  0.00    +0.000 A 
ATOM     28  C   UNL     1      46.901   3.420   6.277  0.00  0.00    +0.000 A 
ATOM     29  C   UNL     1      47.770   2.383   5.983  0.00  0.00    +0.000 A 
ATOM     30  N   UNL     1      47.791   1.207   6.652  0.00  0.00    +0.000 NA
ATOM     31  C   UNL     1      46.894   1.070   7.658  0.00  0.00    +0.000 A 
ENDBRANCH  25  26
ENDBRANCH  23  25
ENDBRANCH  22  23
ENDBRANCH   4  22
TORSDOF 8
ENDMDL
MODEL 7
REMARK VINA RESULT:    -7.459      4.241      5.502
REMARK INTER + INTRA:         -11.694
REMARK INTER:                 -10.725
REMARK INTRA:                  -0.969
REMARK UNBOUND:                -0.747
REMARK  Name = 
REMARK  8 active torsions:
REMARK  status: ('A' for Active; 'I' for Inactive)
REMARK    1  A    between atoms: C_2  and  O_3
REMARK    2  A    between atoms: C_2  and  C_20
REMARK    3  A    between atoms: O_3  and  C_4
REMARK    4  A    between atoms: C_4  and  C_5
REMARK    5  A    between atoms: C_8  and  C_9
REMARK    6  A    between atoms: C_9  and  N_10
REMARK    7  A    between atoms: N_10  and  C_11
REMARK    8  A    between atoms: C_11  and  C_12
REMARK                            x       y       z     vdW  Elec       q    Type
REMARK                         _______ _______ _______ _____ _____    ______ ____
ROOT
ATOM      1  C   UNL     1      46.208   5.876  13.351  0.00  0.00    +0.000 C 
ATOM      2  C   UNL     1      44.866   6.440  12.866  0.00  0.00    +0.000 C 
ATOM      3  C   UNL     1      44.311   5.668  11.665  0.00  0.00    +0.000 C 
ATOM      4  C   UNL     1      44.178   4.162  11.957  0.00  0.00    +0.000 C 
ATOM      5  C   UNL     1      45.477   3.574  12.541  0.00  0.00    +0.000 C 
ATOM      6  C   UNL     1      46.037   4.393  13.702  0.00  0.00    +0.000 C 
ENDROOT
BRANCH   1   7
ATOM      7  C   UNL     1      47.325   6.123  12.323  0.00  0.00    +0.000 C 
BRANCH   7   8
ATOM      8  O   UNL     1      48.625   5.975  12.912  0.00  0.00    +0.000 OA
BRANCH   8  10
ATOM      9  O   UNL     1      49.328   7.124  14.755  0.00  0.00    +0.000 OA
ATOM     10  C   UNL     1      49.137   7.057  13.546  0.00  0.00    +0.000 C 
BRANCH  10  11
ATOM     11  C   UNL     1      49.501   8.133  12.626  0.00  0.00    +0.000 A 
ATOM     12  C   UNL     1      50.754   8.159  12.031  0.00  0.00    +0.000 A 
ATOM     13  S   UNL     1      50.987   9.505  11.010  0.00  0.00    +0.000 S 
ATOM     14  C   UNL     1      49.413  10.079  11.313  0.00  0.00    +0.000 A 
ATOM     15  N   UNL     1      48.957  11.215  10.717  0.00  0.00    +0.000 NA
ATOM     16  C   UNL     1      47.737  11.516  11.012  0.00  0.00    +0.000 A 
ATOM     17  N   UNL     1      46.937  10.795  11.860  0.00  0.00    +0.000 N 
ATOM     18  C   UNL     1      47.384   9.700  12.567  0.00  0.00    +0.000 A 
ATOM     19  O   UNL     1      46.691   9.201  13.444  0.00  0.00    +0.000 OA
ATOM     20  C   UNL     1      48.725   9.272  12.203  0.00  0.00    +0.000 A 
ATOM     21  H   UNL     1      46.005  11.109  12.083  0.00  0.00    +0.000 HD
ENDBRANCH  10  11
ENDBRANCH   8  10
ENDBRANCH   7   8
ENDBRANCH   1   7
BRANCH   4  22
ATOM     22  C   UNL     1      43.751   3.398  10.683  0.00  0.00    +0.000 C 
BRANCH  22  23
ATOM     23  N   UNL     1      44.837   3.397   9.704  0.00  0.00    +0.000 NA
ATOM     24  H   UNL     1      45.689   3.761  10.129  0.00  0.00    +0.000 HD
BRANCH  23  25
ATOM     25  C   UNL     1      45.096   2.069   9.155  0.00  0.00    +0.000 C 
BRANCH  25  26
ATOM     26  C   UNL     1      46.058   2.139   7.997  0.00  0.00    +0.000 A 
ATOM     27  C   UNL     1      46.107   3.255   7.154  0.00  0.00    +0.000 A 
ATOM     28  C   UNL     1      46.984   3.272   6.075  0.00  0.00    +0.000 A 
ATOM     29  C   UNL     1      47.790   2.167   5.867  0.00  0.00    +0.000 A 
ATOM     30  N   UNL     1      47.779   1.068   6.657  0.00  0.00    +0.000 NA
ATOM     31  C   UNL     1      46.914   1.085   7.700  0.00  0.00    +0.000 A 
ENDBRANCH  25  26
ENDBRANCH  23  25
ENDBRANCH  22  23
ENDBRANCH   4  22
TORSDOF 8
ENDMDL
MODEL 8
REMARK VINA RESULT:    -7.374      3.377      8.682
REMARK INTER + INTRA:         -11.569
REMARK INTER:                 -10.157
REMARK INTRA:                  -1.412
REMARK UNBOUND:                -0.747
REMARK  Name = 
REMARK  8 active torsions:
REMARK  status: ('A' for Active; 'I' for Inactive)
REMARK    1  A    between atoms: C_2  and  O_3
REMARK    2  A    between atoms: C_2  and  C_20
REMARK    3  A    between atoms: O_3  and  C_4
REMARK    4  A    between atoms: C_4  and  C_5
REMARK    5  A    between atoms: C_8  and  C_9
REMARK    6  A    between atoms: C_9  and  N_10
REMARK    7  A    between atoms: N_10  and  C_11
REMARK    8  A    between atoms: C_11  and  C_12
REMARK                            x       y       z     vdW  Elec       q    Type
REMARK                         _______ _______ _______ _____ _____    ______ ____
ROOT
ATOM      1  C   UNL     1      47.252   7.825  12.169  0.00  0.00    +0.000 C 
ATOM      2  C   UNL     1      47.217   8.941  13.220  0.00  0.00    +0.000 C 
ATOM      3  C   UNL     1      48.180   8.678  14.381  0.00  0.00    +0.000 C 
ATOM      4  C   UNL     1      49.624   8.454  13.895  0.00  0.00    +0.000 C 
ATOM      5  C   UNL     1      49.692   7.407  12.765  0.00  0.00    +0.000 C 
ATOM      6  C   UNL     1      48.685   7.664  11.648  0.00  0.00    +0.000 C 
ENDROOT
BRANCH   1   7
ATOM      7  C   UNL     1      46.665   6.515  12.723  0.00  0.00    +0.000 C 
BRANCH   7   8
ATOM      8  O   UNL     1      45.253   6.624  12.947  0.00  0.00    +0.000 OA
BRANCH   8  10
ATOM      9  O   UNL     1      43.982   7.412  11.222  0.00  0.00    +0.000 OA
ATOM     10  C   UNL     1      44.448   6.479  11.866  0.00  0.00    +0.000 C 
BRANCH  10  11
ATOM     11  C   UNL     1      44.236   5.081  11.500  0.00  0.00    +0.000 A 
ATOM     12  C   UNL     1      43.504   4.238  12.324  0.00  0.00    +0.000 A 
ATOM     13  S   UNL     1      43.389   2.645  11.728  0.00  0.00    +0.000 S 
ATOM     14  C   UNL     1      44.293   3.038  10.340  0.00  0.00    +0.000 A 
ATOM     15  N   UNL     1      44.550   2.103   9.386  0.00  0.00    +0.000 NA
ATOM     16  C   UNL     1      45.218   2.547   8.374  0.00  0.00    +0.000 A 
ATOM     17  N   UNL     1      45.665   3.835   8.236  0.00  0.00    +0.000 N 
ATOM     18  C   UNL     1      45.522   4.789   9.219  0.00  0.00    +0.000 A 
ATOM     19  O   UNL     1      46.094   5.868   9.127  0.00  0.00    +0.000 OA
ATOM     20  C   UNL     1      44.702   4.361  10.341  0.00  0.00    +0.000 A 
ATOM     21  H   UNL     1      46.221   4.107   7.440  0.00  0.00    +0.000 HD
ENDBRANCH  10  11
ENDBRANCH   8  10
ENDBRANCH   7   8
ENDBRANCH   1   7
BRANCH   4  22
ATOM     22  C   UNL     1      50.538   8.052  15.074  0.00  0.00    +0.000 C 
BRANCH  22  23
ATOM     23  N   UNL     1      50.362   6.635  15.393  0.00  0.00    +0.000 NA
ATOM     24  H   UNL     1      51.226   6.126  15.206  0.00  0.00    +0.000 HD
BRANCH  23  25
ATOM     25  C   UNL     1      49.961   6.419  16.780  0.00  0.00    +0.000 C 
BRANCH  25  26
ATOM     26  C   UNL     1      49.140   5.162  16.917  0.00  0.00    +0.000 A 
ATOM     27  C   UNL     1      49.590   4.074  17.672  0.00  0.00    +0.000 A 
ATOM     28  C   UNL     1      48.822   2.918  17.752  0.00  0.00    +0.000 A 
ATOM     29  C   UNL     1      47.620   2.881  17.068  0.00  0.00    +0.000 A 
ATOM     30  N   UNL     1      47.143   3.910  16.329  0.00  0.00    +0.000 NA
ATOM     31  C   UNL     1      47.916   5.021  16.274  0.00  0.00    +0.000 A 
ENDBRANCH  25  26
ENDBRANCH  23  25
ENDBRANCH  22  23
ENDBRANCH   4  22
TORSDOF 8
ENDMDL
MODEL 9
REMARK VINA RESULT:    -7.213      2.611      3.703
REMARK INTER + INTRA:         -11.334
REMARK INTER:                  -9.979
REMARK INTRA:                  -1.355
REMARK UNBOUND:                -0.747
REMARK  Name = 
REMARK  8 active torsions:
REMARK  status: ('A' for Active; 'I' for Inactive)
REMARK    1  A    between atoms: C_2  and  O_3
REMARK    2  A    between atoms: C_2  and  C_20
REMARK    3  A    between atoms: O_3  and  C_4
REMARK    4  A    between atoms: C_4  and  C_5
REMARK    5  A    between atoms: C_8  and  C_9
REMARK    6  A    between atoms: C_9  and  N_10
REMARK    7  A    between atoms: N_10  and  C_11
REMARK    8  A    between atoms: C_11  and  C_12
REMARK                            x       y       z     vdW  Elec       q    Type
REMARK                         _______ _______ _______ _____ _____    ______ ____
ROOT
ATOM      1  C   UNL     1      47.882   6.723  13.129  0.00  0.00    +0.000 C 
ATOM      2  C   UNL     1      47.217   5.414  13.576  0.00  0.00    +0.000 C 
ATOM      3  C   UNL     1      45.721   5.381  13.254  0.00  0.00    +0.000 C 
ATOM      4  C   UNL     1      45.446   5.631  11.760  0.00  0.00    +0.000 C 
ATOM      5  C   UNL     1      46.177   6.887  11.244  0.00  0.00    +0.000 C 
ATOM      6  C   UNL     1      47.655   6.918  11.626  0.00  0.00    +0.000 C 
ENDROOT
BRANCH   1   7
ATOM      7  C   UNL     1      47.392   7.915  13.969  0.00  0.00    +0.000 C 
BRANCH   7   8
ATOM      8  O   UNL     1      48.425   8.895  14.144  0.00  0.00    +0.000 OA
BRANCH   8  10
ATOM      9  O   UNL     1      50.556   8.511  14.868  0.00  0.00    +0.000 OA
ATOM     10  C   UNL     1      49.357   8.639  15.093  0.00  0.00    +0.000 C 
BRANCH  10  11
ATOM     11  C   UNL     1      48.795   8.590  16.441  0.00  0.00    +0.000 A 
ATOM     12  C   UNL     1      48.349   9.746  17.063  0.00  0.00    +0.000 A 
ATOM     13  S   UNL     1      47.749   9.477  18.637  0.00  0.00    +0.000 S 
ATOM     14  C   UNL     1      48.044   7.804  18.524  0.00  0.00    +0.000 A 
ATOM     15  N   UNL     1      47.731   6.969  19.552  0.00  0.00    +0.000 NA
ATOM     16  C   UNL     1      47.979   5.724  19.319  0.00  0.00    +0.000 A 
ATOM     17  N   UNL     1      48.525   5.239  18.159  0.00  0.00    +0.000 N 
ATOM     18  C   UNL     1      48.955   6.053  17.133  0.00  0.00    +0.000 A 
ATOM     19  O   UNL     1      49.598   5.589  16.200  0.00  0.00    +0.000 OA
ATOM     20  C   UNL     1      48.618   7.456  17.314  0.00  0.00    +0.000 A 
ATOM     21  H   UNL     1      48.735   4.259  18.057  0.00  0.00    +0.000 HD
ENDBRANCH  10  11
ENDBRANCH   8  10
ENDBRANCH   7   8
ENDBRANCH   1   7
BRANCH   4  22
ATOM     22  C   UNL     1      43.926   5.732  11.496  0.00  0.00    +0.000 C 
BRANCH  22  23
ATOM     23  N   UNL     1      43.586   5.082  10.230  0.00  0.00    +0.000 NA
ATOM     24  H   UNL     1      44.081   5.535   9.463  0.00  0.00    +0.000 HD
BRANCH  23  25
ATOM     25  C   UNL     1      43.894   3.655  10.233  0.00  0.00    +0.000 C 
BRANCH  25  26
ATOM     26  C   UNL     1      44.885   3.313   9.150  0.00  0.00    +0.000 A 
ATOM     27  C   UNL     1      45.361   2.008   8.980  0.00  0.00    +0.000 A 
ATOM     28  C   UNL     1      46.299   1.733   7.992  0.00  0.00    +0.000 A 
ATOM     29  C   UNL     1      46.740   2.777   7.198  0.00  0.00    +0.000 A 
ATOM     30  N   UNL     1      46.307   4.053   7.324  0.00  0.00    +0.000 NA
ATOM     31  C   UNL     1      45.392   4.285   8.295  0.00  0.00    +0.000 A 
ENDBRANCH  25  26
ENDBRANCH  23  25
ENDBRANCH  22  23
ENDBRANCH   4  22
TORSDOF 8
ENDMDL
