MODEL 1
REMARK VINA RESULT:    -7.285      0.000      0.000
REMARK INTER + INTRA:          -9.665
REMARK INTER:                  -9.201
REMARK INTRA:                  -0.464
REMARK UNBOUND:                -0.464
REMARK  Name = 
REMARK  5 active torsions:
REMARK  status: ('A' for Active; 'I' for Inactive)
REMARK    1  A    between atoms: N_1  and  C_2
REMARK    2  A    between atoms: C_2  and  C_3
REMARK    3  A    between atoms: C_7  and  O_8
REMARK    4  A    between atoms: O_8  and  C_9
REMARK    5  A    between atoms: C_9  and  C_10
REMARK                            x       y       z     vdW  Elec       q    Type
REMARK                         _______ _______ _______ _____ _____    ______ ____
ROOT
ATOM      1  C   UNL     1      45.299   4.486  12.951  0.00  0.00    +0.000 A 
ATOM      2  C   UNL     1      44.154   5.244  13.219  0.00  0.00    +0.000 A 
ATOM      3  C   UNL     1      43.040   5.157  12.381  0.00  0.00    +0.000 A 
ATOM      4  C   UNL     1      43.074   4.337  11.250  0.00  0.00    +0.000 A 
ATOM      5  C   UNL     1      44.221   3.600  10.956  0.00  0.00    +0.000 A 
ATOM      6  C   UNL     1      45.304   3.640  11.834  0.00  0.00    +0.000 A 
ENDROOT
BRANCH   1   7
ATOM      7  C   UNL     1      46.528   4.570  13.818  0.00  0.00    +0.000 C 
BRANCH   7   8
ATOM      8  N   UNL     1      47.157   3.259  13.957  0.00  0.00    +0.000 NA
ATOM      9  H   UNL     1      46.513   2.623  14.421  0.00  0.00    +0.000 HD
ATOM     10  H   UNL     1      47.967   3.350  14.569  0.00  0.00    +0.000 HD
ENDBRANCH   7   8
ENDBRANCH   1   7
BRANCH   5  11
ATOM     11  O   UNL     1      44.203   2.891   9.782  0.00  0.00    +0.000 OA
BRANCH  11  12
ATOM     12  C   UNL     1      44.721   3.612   8.659  0.00  0.00    +0.000 C 
BRANCH  12  13
ATOM     13  C   UNL     1      45.839   2.839   8.016  0.00  0.00    +0.000 A 
ATOM     14  C   UNL     1      45.999   1.474   8.279  0.00  0.00    +0.000 A 
ATOM     15  C   UNL     1      47.013   0.788   7.633  0.00  0.00    +0.000 A 
ATOM     16  N   UNL     1      47.866   1.360   6.758  0.00  0.00    +0.000 NA
ATOM     17  C   UNL     1      47.700   2.681   6.526  0.00  0.00    +0.000 A 
ATOM     18  C   UNL     1      46.716   3.454   7.121  0.00  0.00    +0.000 A 
ENDBRANCH  12  13
ENDBRANCH  11  12
ENDBRANCH   5  11
TORSDOF 5
ENDMDL
MODEL 2
REMARK VINA RESULT:    -7.161      1.824      2.458
REMARK INTER + INTRA:          -9.509
REMARK INTER:                  -9.008
REMARK INTRA:                  -0.501
REMARK UNBOUND:                -0.464
REMARK  Name = 
REMARK  5 active torsions:
REMARK  status: ('A' for Active; 'I' for Inactive)
REMARK    1  A    between atoms: N_1  and  C_2
REMARK    2  A    between atoms: C_2  and  C_3
REMARK    3  A    between atoms: C_7  and  O_8
REMARK    4  A    between atoms: O_8  and  C_9
REMARK    5  A    between atoms: C_9  and  C_10
REMARK                            x       y       z     vdW  Elec       q    Type
REMARK                         _______ _______ _______ _____ _____    ______ ____
ROOT
ATOM      1  C   UNL     1      44.357   4.114  12.062  0.00  0.00    +0.000 A 
ATOM      2  C   UNL     1      45.099   5.044  12.799  0.00  0.00    +0.000 A 
ATOM      3  C   UNL     1      45.921   5.966  12.147  0.00  0.00    +0.000 A 
ATOM      4  C   UNL     1      46.033   5.944  10.754  0.00  0.00    +0.000 A 
ATOM      5  C   UNL     1      45.321   5.003  10.010  0.00  0.00    +0.000 A 
ATOM      6  C   UNL     1      44.451   4.130  10.664  0.00  0.00    +0.000 A 
ENDROOT
BRANCH   1   7
ATOM      7  C   UNL     1      43.478   3.090  12.730  0.00  0.00    +0.000 C 
BRANCH   7   8
ATOM      8  N   UNL     1      43.078   2.050  11.784  0.00  0.00    +0.000 NA
ATOM      9  H   UNL     1      43.285   2.358  10.838  0.00  0.00    +0.000 HD
ATOM     10  H   UNL     1      42.067   1.933  11.837  0.00  0.00    +0.000 HD
ENDBRANCH   7   8
ENDBRANCH   1   7
BRANCH   5  11
ATOM     11  O   UNL     1      45.557   4.993   8.659  0.00  0.00    +0.000 OA
BRANCH  11  12
ATOM     12  C   UNL     1      44.922   3.914   7.966  0.00  0.00    +0.000 C 
BRANCH  12  13
ATOM     13  C   UNL     1      45.955   2.973   7.410  0.00  0.00    +0.000 A 
ATOM     14  C   UNL     1      46.696   3.325   6.277  0.00  0.00    +0.000 A 
ATOM     15  C   UNL     1      47.670   2.452   5.823  0.00  0.00    +0.000 A 
ATOM     16  N   UNL     1      47.951   1.271   6.410  0.00  0.00    +0.000 NA
ATOM     17  C   UNL     1      47.217   0.946   7.498  0.00  0.00    +0.000 A 
ATOM     18  C   UNL     1      46.222   1.751   8.030  0.00  0.00    +0.000 A 
ENDBRANCH  12  13
ENDBRANCH  11  12
ENDBRANCH   5  11
TORSDOF 5
ENDMDL
MODEL 3
REMARK VINA RESULT:    -6.994      1.979      2.129
REMARK INTER + INTRA:          -9.297
REMARK INTER:                  -8.858
REMARK INTRA:                  -0.439
REMARK UNBOUND:                -0.464
REMARK  Name = 
REMARK  5 active torsions:
REMARK  status: ('A' for Active; 'I' for Inactive)
REMARK    1  A    between atoms: N_1  and  C_2
REMARK    2  A    between atoms: C_2  and  C_3
REMARK    3  A    between atoms: C_7  and  O_8
REMARK    4  A    between atoms: O_8  and  C_9
REMARK    5  A    between atoms: C_9  and  C_10
REMARK                            x       y       z     vdW  Elec       q    Type
REMARK                         _______ _______ _______ _____ _____    ______ ____
ROOT
ATOM      1  C   UNL     1      44.462   5.983  11.685  0.00  0.00    +0.000 A 
ATOM      2  C   UNL     1      43.842   5.492  12.839  0.00  0.00    +0.000 A 
ATOM      3  C   UNL     1      43.410   4.165  12.897  0.00  0.00    +0.000 A 
ATOM      4  C   UNL     1      43.566   3.327  11.790  0.00  0.00    +0.000 A 
ATOM      5  C   UNL     1      44.156   3.813  10.623  0.00  0.00    +0.000 A 
ATOM      6  C   UNL     1      44.645   5.119  10.596  0.00  0.00    +0.000 A 
ENDROOT
BRANCH   1   7
ATOM      7  C   UNL     1      44.920   7.414  11.575  0.00  0.00    +0.000 C 
BRANCH   7   8
ATOM      8  N   UNL     1      43.842   8.270  11.087  0.00  0.00    +0.000 NA
ATOM      9  H   UNL     1      43.843   8.268  10.071  0.00  0.00    +0.000 HD
ATOM     10  H   UNL     1      44.030   9.228  11.377  0.00  0.00    +0.000 HD
ENDBRANCH   7   8
ENDBRANCH   1   7
BRANCH   5  11
ATOM     11  O   UNL     1      44.190   2.952   9.556  0.00  0.00    +0.000 OA
BRANCH  11  12
ATOM     12  C   UNL     1      44.655   3.549   8.342  0.00  0.00    +0.000 C 
BRANCH  12  13
ATOM     13  C   UNL     1      45.863   2.813   7.830  0.00  0.00    +0.000 A 
ATOM     14  C   UNL     1      46.035   1.453   8.111  0.00  0.00    +0.000 A 
ATOM     15  C   UNL     1      47.136   0.801   7.584  0.00  0.00    +0.000 A 
ATOM     16  N   UNL     1      48.064   1.400   6.811  0.00  0.00    +0.000 NA
ATOM     17  C   UNL     1      47.885   2.717   6.560  0.00  0.00    +0.000 A 
ATOM     18  C   UNL     1      46.816   3.457   7.039  0.00  0.00    +0.000 A 
ENDBRANCH  12  13
ENDBRANCH  11  12
ENDBRANCH   5  11
TORSDOF 5
ENDMDL
MODEL 4
REMARK VINA RESULT:    -6.866      1.439      5.617
REMARK INTER + INTRA:          -9.136
REMARK INTER:                  -8.578
REMARK INTRA:                  -0.558
REMARK UNBOUND:                -0.464
REMARK  Name = 
REMARK  5 active torsions:
REMARK  status: ('A' for Active; 'I' for Inactive)
REMARK    1  A    between atoms: N_1  and  C_2
REMARK    2  A    between atoms: C_2  and  C_3
REMARK    3  A    between atoms: C_7  and  O_8
REMARK    4  A    between atoms: O_8  and  C_9
REMARK    5  A    between atoms: C_9  and  C_10
REMARK                            x       y       z     vdW  Elec       q    Type
REMARK                         _______ _______ _______ _____ _____    ______ ____
ROOT
ATOM      1  C   UNL     1      46.813   2.658   7.337  0.00  0.00    +0.000 A 
ATOM      2  C   UNL     1      46.515   1.372   7.800  0.00  0.00    +0.000 A 
ATOM      3  C   UNL     1      45.407   1.158   8.622  0.00  0.00    +0.000 A 
ATOM      4  C   UNL     1      44.606   2.233   9.015  0.00  0.00    +0.000 A 
ATOM      5  C   UNL     1      44.910   3.525   8.584  0.00  0.00    +0.000 A 
ATOM      6  C   UNL     1      45.979   3.721   7.709  0.00  0.00    +0.000 A 
ENDROOT
BRANCH   1   7
ATOM      7  C   UNL     1      48.013   2.932   6.468  0.00  0.00    +0.000 C 
BRANCH   7   8
ATOM      8  N   UNL     1      48.478   1.707   5.821  0.00  0.00    +0.000 NA
ATOM      9  H   UNL     1      48.790   1.922   4.877  0.00  0.00    +0.000 HD
ATOM     10  H   UNL     1      47.690   1.068   5.728  0.00  0.00    +0.000 HD
ENDBRANCH   7   8
ENDBRANCH   1   7
BRANCH   5  11
ATOM     11  O   UNL     1      44.127   4.533   9.086  0.00  0.00    +0.000 OA
BRANCH  11  12
ATOM     12  C   UNL     1      43.794   4.376  10.469  0.00  0.00    +0.000 C 
BRANCH  12  13
ATOM     13  C   UNL     1      44.927   4.855  11.334  0.00  0.00    +0.000 A 
ATOM     14  C   UNL     1      45.322   4.117  12.456  0.00  0.00    +0.000 A 
ATOM     15  C   UNL     1      46.399   4.567  13.201  0.00  0.00    +0.000 A 
ATOM     16  N   UNL     1      47.097   5.685  12.911  0.00  0.00    +0.000 NA
ATOM     17  C   UNL     1      46.693   6.388  11.829  0.00  0.00    +0.000 A 
ATOM     18  C   UNL     1      45.629   6.020  11.021  0.00  0.00    +0.000 A 
ENDBRANCH  12  13
ENDBRANCH  11  12
ENDBRANCH   5  11
TORSDOF 5
ENDMDL
MODEL 5
REMARK VINA RESULT:    -6.196      1.526      2.358
REMARK INTER + INTRA:          -8.289
REMARK INTER:                  -7.861
REMARK INTRA:                  -0.429
REMARK UNBOUND:                -0.464
REMARK  Name = 
REMARK  5 active torsions:
REMARK  status: ('A' for Active; 'I' for Inactive)
REMARK    1  A    between atoms: N_1  and  C_2
REMARK    2  A    between atoms: C_2  and  C_3
REMARK    3  A    between atoms: C_7  and  O_8
REMARK    4  A    between atoms: O_8  and  C_9
REMARK    5  A    between atoms: C_9  and  C_10
REMARK                            x       y       z     vdW  Elec       q    Type
REMARK                         _______ _______ _______ _____ _____    ______ ____
ROOT
ATOM      1  C   UNL     1      46.611   4.988  13.735  0.00  0.00    +0.000 A 
ATOM      2  C   UNL     1      47.160   6.124  13.130  0.00  0.00    +0.000 A 
ATOM      3  C   UNL     1      46.695   6.555  11.886  0.00  0.00    +0.000 A 
ATOM      4  C   UNL     1      45.698   5.836  11.221  0.00  0.00    +0.000 A 
ATOM      5  C   UNL     1      45.163   4.685  11.800  0.00  0.00    +0.000 A 
ATOM      6  C   UNL     1      45.585   4.299  13.072  0.00  0.00    +0.000 A 
ENDROOT
BRANCH   1   7
ATOM      7  C   UNL     1      47.102   4.479  15.064  0.00  0.00    +0.000 C 
BRANCH   7   8
ATOM      8  N   UNL     1      48.026   5.430  15.677  0.00  0.00    +0.000 NA
ATOM      9  H   UNL     1      48.982   5.147  15.480  0.00  0.00    +0.000 HD
ATOM     10  H   UNL     1      47.913   5.388  16.689  0.00  0.00    +0.000 HD
ENDBRANCH   7   8
ENDBRANCH   1   7
BRANCH   5  11
ATOM     11  O   UNL     1      44.256   3.990  11.042  0.00  0.00    +0.000 OA
BRANCH  11  12
ATOM     12  C   UNL     1      44.210   4.398   9.671  0.00  0.00    +0.000 C 
BRANCH  12  13
ATOM     13  C   UNL     1      45.116   3.532   8.841  0.00  0.00    +0.000 A 
ATOM     14  C   UNL     1      45.961   4.104   7.883  0.00  0.00    +0.000 A 
ATOM     15  C   UNL     1      46.813   3.278   7.171  0.00  0.00    +0.000 A 
ATOM     16  N   UNL     1      46.880   1.942   7.343  0.00  0.00    +0.000 NA
ATOM     17  C   UNL     1      46.048   1.408   8.266  0.00  0.00    +0.000 A 
ATOM     18  C   UNL     1      45.161   2.149   9.029  0.00  0.00    +0.000 A 
ENDBRANCH  12  13
ENDBRANCH  11  12
ENDBRANCH   5  11
TORSDOF 5
ENDMDL
MODEL 6
REMARK VINA RESULT:    -6.100      1.819      2.170
REMARK INTER + INTRA:          -8.168
REMARK INTER:                  -7.637
REMARK INTRA:                  -0.531
REMARK UNBOUND:                -0.464
REMARK  Name = 
REMARK  5 active torsions:
REMARK  status: ('A' for Active; 'I' for Inactive)
REMARK    1  A    between atoms: N_1  and  C_2
REMARK    2  A    between atoms: C_2  and  C_3
REMARK    3  A    between atoms: C_7  and  O_8
REMARK    4  A    between atoms: O_8  and  C_9
REMARK    5  A    between atoms: C_9  and  C_10
REMARK                            x       y       z     vdW  Elec       q    Type
REMARK                         _______ _______ _______ _____ _____    ______ ____
ROOT
ATOM      1  C   UNL     1      46.991   6.164  12.587  0.00  0.00    +0.000 A 
ATOM      2  C   UNL     1      46.600   5.248  13.570  0.00  0.00    +0.000 A 
ATOM      3  C   UNL     1      45.615   4.297  13.294  0.00  0.00    +0.000 A 
ATOM      4  C   UNL     1      44.990   4.274  12.045  0.00  0.00    +0.000 A 
ATOM      5  C   UNL     1      45.350   5.202  11.067  0.00  0.00    +0.000 A 
ATOM      6  C   UNL     1      46.381   6.105  11.326  0.00  0.00    +0.000 A 
ENDROOT
BRANCH   1   7
ATOM      7  C   UNL     1      48.032   7.219  12.853  0.00  0.00    +0.000 C 
BRANCH   7   8
ATOM      8  N   UNL     1      49.375   6.644  12.827  0.00  0.00    +0.000 NA
ATOM      9  H   UNL     1      49.311   5.633  12.915  0.00  0.00    +0.000 HD
ATOM     10  H   UNL     1      49.887   6.975  13.643  0.00  0.00    +0.000 HD
ENDBRANCH   7   8
ENDBRANCH   1   7
BRANCH   5  11
ATOM     11  O   UNL     1      44.627   5.167   9.902  0.00  0.00    +0.000 OA
BRANCH  11  12
ATOM     12  C   UNL     1      44.212   3.854   9.514  0.00  0.00    +0.000 C 
BRANCH  12  13
ATOM     13  C   UNL     1      45.269   3.205   8.664  0.00  0.00    +0.000 A 
ATOM     14  C   UNL     1      45.519   1.832   8.770  0.00  0.00    +0.000 A 
ATOM     15  C   UNL     1      46.468   1.264   7.938  0.00  0.00    +0.000 A 
ATOM     16  N   UNL     1      47.177   1.959   7.024  0.00  0.00    +0.000 NA
ATOM     17  C   UNL     1      46.927   3.285   6.945  0.00  0.00    +0.000 A 
ATOM     18  C   UNL     1      45.997   3.945   7.731  0.00  0.00    +0.000 A 
ENDBRANCH  12  13
ENDBRANCH  11  12
ENDBRANCH   5  11
TORSDOF 5
ENDMDL
MODEL 7
REMARK VINA RESULT:    -5.290      3.224      5.284
REMARK INTER + INTRA:          -7.145
REMARK INTER:                  -6.741
REMARK INTRA:                  -0.404
REMARK UNBOUND:                -0.464
REMARK  Name = 
REMARK  5 active torsions:
REMARK  status: ('A' for Active; 'I' for Inactive)
REMARK    1  A    between atoms: N_1  and  C_2
REMARK    2  A    between atoms: C_2  and  C_3
REMARK    3  A    between atoms: C_7  and  O_8
REMARK    4  A    between atoms: O_8  and  C_9
REMARK    5  A    between atoms: C_9  and  C_10
REMARK                            x       y       z     vdW  Elec       q    Type
REMARK                         _______ _______ _______ _____ _____    ______ ____
ROOT
ATOM      1  C   UNL     1      48.032   4.653  16.335  0.00  0.00    +0.000 A 
ATOM      2  C   UNL     1      48.860   5.747  16.604  0.00  0.00    +0.000 A 
ATOM      3  C   UNL     1      48.942   6.808  15.698  0.00  0.00    +0.000 A 
ATOM      4  C   UNL     1      48.221   6.768  14.503  0.00  0.00    +0.000 A 
ATOM      5  C   UNL     1      47.414   5.668  14.209  0.00  0.00    +0.000 A 
ATOM      6  C   UNL     1      47.285   4.644  15.148  0.00  0.00    +0.000 A 
ENDROOT
BRANCH   1   7
ATOM      7  C   UNL     1      47.934   3.480  17.275  0.00  0.00    +0.000 C 
BRANCH   7   8
ATOM      8  N   UNL     1      46.540   3.108  17.501  0.00  0.00    +0.000 NA
ATOM      9  H   UNL     1      46.500   2.174  17.901  0.00  0.00    +0.000 HD
ATOM     10  H   UNL     1      46.066   3.059  16.601  0.00  0.00    +0.000 HD
ENDBRANCH   7   8
ENDBRANCH   1   7
BRANCH   5  11
ATOM     11  O   UNL     1      46.812   5.668  12.977  0.00  0.00    +0.000 OA
BRANCH  11  12
ATOM     12  C   UNL     1      45.391   5.824  13.025  0.00  0.00    +0.000 C 
BRANCH  12  13
ATOM     13  C   UNL     1      44.724   4.789  12.161  0.00  0.00    +0.000 A 
ATOM     14  C   UNL     1      44.946   4.771  10.780  0.00  0.00    +0.000 A 
ATOM     15  C   UNL     1      44.351   3.775  10.025  0.00  0.00    +0.000 A 
ATOM     16  N   UNL     1      43.561   2.812  10.543  0.00  0.00    +0.000 NA
ATOM     17  C   UNL     1      43.352   2.853  11.878  0.00  0.00    +0.000 A 
ATOM     18  C   UNL     1      43.903   3.808  12.718  0.00  0.00    +0.000 A 
ENDBRANCH  12  13
ENDBRANCH  11  12
ENDBRANCH   5  11
TORSDOF 5
ENDMDL
MODEL 8
REMARK VINA RESULT:    -5.064      4.118      7.372
REMARK INTER + INTRA:          -6.860
REMARK INTER:                  -6.487
REMARK INTRA:                  -0.373
REMARK UNBOUND:                -0.464
REMARK  Name = 
REMARK  5 active torsions:
REMARK  status: ('A' for Active; 'I' for Inactive)
REMARK    1  A    between atoms: N_1  and  C_2
REMARK    2  A    between atoms: C_2  and  C_3
REMARK    3  A    between atoms: C_7  and  O_8
REMARK    4  A    between atoms: O_8  and  C_9
REMARK    5  A    between atoms: C_9  and  C_10
REMARK                            x       y       z     vdW  Elec       q    Type
REMARK                         _______ _______ _______ _____ _____    ______ ____
ROOT
ATOM      1  C   UNL     1      44.543   4.558  11.953  0.00  0.00    +0.000 A 
ATOM      2  C   UNL     1      44.651   5.768  11.261  0.00  0.00    +0.000 A 
ATOM      3  C   UNL     1      45.706   6.643  11.531  0.00  0.00    +0.000 A 
ATOM      4  C   UNL     1      46.643   6.329  12.518  0.00  0.00    +0.000 A 
ATOM      5  C   UNL     1      46.530   5.139  13.237  0.00  0.00    +0.000 A 
ATOM      6  C   UNL     1      45.512   4.240  12.915  0.00  0.00    +0.000 A 
ENDROOT
BRANCH   1   7
ATOM      7  C   UNL     1      43.407   3.600  11.707  0.00  0.00    +0.000 C 
BRANCH   7   8
ATOM      8  N   UNL     1      43.590   2.368  12.472  0.00  0.00    +0.000 NA
ATOM      9  H   UNL     1      42.841   2.282  13.155  0.00  0.00    +0.000 HD
ATOM     10  H   UNL     1      44.458   2.439  13.000  0.00  0.00    +0.000 HD
ENDBRANCH   7   8
ENDBRANCH   1   7
BRANCH   5  11
ATOM     11  O   UNL     1      47.437   4.950  14.247  0.00  0.00    +0.000 OA
BRANCH  11  12
ATOM     12  C   UNL     1      47.191   3.785  15.041  0.00  0.00    +0.000 C 
BRANCH  12  13
ATOM     13  C   UNL     1      47.825   3.935  16.396  0.00  0.00    +0.000 A 
ATOM     14  C   UNL     1      48.417   5.146  16.770  0.00  0.00    +0.000 A 
ATOM     15  C   UNL     1      48.951   5.259  18.042  0.00  0.00    +0.000 A 
ATOM     16  N   UNL     1      48.936   4.264  18.953  0.00  0.00    +0.000 NA
ATOM     17  C   UNL     1      48.368   3.100  18.568  0.00  0.00    +0.000 A 
ATOM     18  C   UNL     1      47.807   2.888  17.319  0.00  0.00    +0.000 A 
ENDBRANCH  12  13
ENDBRANCH  11  12
ENDBRANCH   5  11
TORSDOF 5
ENDMDL
MODEL 9
REMARK VINA RESULT:    -5.011      3.999      7.356
REMARK INTER + INTRA:          -6.793
REMARK INTER:                  -6.461
REMARK INTRA:                  -0.332
REMARK UNBOUND:                -0.464
REMARK  Name = 
REMARK  5 active torsions:
REMARK  status: ('A' for Active; 'I' for Inactive)
REMARK    1  A    between atoms: N_1  and  C_2
REMARK    2  A    between atoms: C_2  and  C_3
REMARK    3  A    between atoms: C_7  and  O_8
REMARK    4  A    between atoms: O_8  and  C_9
REMARK    5  A    between atoms: C_9  and  C_10
REMARK                            x       y       z     vdW  Elec       q    Type
REMARK                         _______ _______ _______ _____ _____    ______ ____
ROOT
ATOM      1  C   UNL     1      44.802   6.091  11.747  0.00  0.00    +0.000 A 
ATOM      2  C   UNL     1      44.517   5.070  10.834  0.00  0.00    +0.000 A 
ATOM      3  C   UNL     1      44.797   3.740  11.155  0.00  0.00    +0.000 A 
ATOM      4  C   UNL     1      45.394   3.422  12.377  0.00  0.00    +0.000 A 
ATOM      5  C   UNL     1      45.711   4.435  13.284  0.00  0.00    +0.000 A 
ATOM      6  C   UNL     1      45.367   5.753  12.985  0.00  0.00    +0.000 A 
ENDROOT
BRANCH   1   7
ATOM      7  C   UNL     1      44.537   7.539  11.429  0.00  0.00    +0.000 C 
BRANCH   7   8
ATOM      8  N   UNL     1      43.148   7.736  11.019  0.00  0.00    +0.000 NA
ATOM      9  H   UNL     1      43.045   8.660  10.609  0.00  0.00    +0.000 HD
ATOM     10  H   UNL     1      42.558   7.720  11.850  0.00  0.00    +0.000 HD
ENDBRANCH   7   8
ENDBRANCH   1   7
BRANCH   5  11
ATOM     11  O   UNL     1      46.374   4.047  14.419  0.00  0.00    +0.000 OA
BRANCH  11  12
ATOM     12  C   UNL     1      47.294   5.024  14.918  0.00  0.00    +0.000 C 
BRANCH  12  13
ATOM     13  C   UNL     1      47.826   4.600  16.259  0.00  0.00    +0.000 A 
ATOM     14  C   UNL     1      48.609   5.476  17.019  0.00  0.00    +0.000 A 
ATOM     15  C   UNL     1      49.042   5.065  18.268  0.00  0.00    +0.000 A 
ATOM     16  N   UNL     1      48.756   3.860  18.803  0.00  0.00    +0.000 NA
ATOM     17  C   UNL     1      48.006   3.026  18.048  0.00  0.00    +0.000 A 
ATOM     18  C   UNL     1      47.525   3.344  16.788  0.00  0.00    +0.000 A 
ENDBRANCH  12  13
ENDBRANCH  11  12
ENDBRANCH   5  11
TORSDOF 5
ENDMDL
