MODEL 1
REMARK VINA RESULT:    -7.815      0.000      0.000
REMARK INTER + INTRA:         -11.195
REMARK INTER:                 -10.556
REMARK INTRA:                  -0.639
REMARK UNBOUND:                -0.639
REMARK  Name = 
REMARK  7 active torsions:
REMARK  status: ('A' for Active; 'I' for Inactive)
REMARK    1  A    between atoms: C_1  and  C_2
REMARK    2  A    between atoms: C_2  and  C_3
REMARK    3  A    between atoms: C_2  and  C_14
REMARK    4  A    between atoms: C_3  and  N_4
REMARK    5  A    between atoms: N_4  and  C_5
REMARK    6  A    between atoms: C_8  and  C_9
REMARK    7  A    between atoms: C_18  and  C_19
REMARK                            x       y       z     vdW  Elec       q    Type
REMARK                         _______ _______ _______ _____ _____    ______ ____
ROOT
ATOM      1  N   UNL     1      43.784   4.901   9.882  0.00  0.00    +0.000 N 
ATOM      2  H   UNL     1      42.841   4.843   9.505  0.00  0.00    +0.000 HD
ENDROOT
BRANCH   1   3
ATOM      3  C   UNL     1      44.658   3.992   9.259  0.00  0.00    +0.000 A 
ATOM      4  C   UNL     1      45.608   4.370   8.304  0.00  0.00    +0.000 A 
ATOM      5  C   UNL     1      46.408   3.414   7.671  0.00  0.00    +0.000 A 
ATOM      6  C   UNL     1      46.219   2.080   7.994  0.00  0.00    +0.000 A 
ATOM      7  N   UNL     1      45.285   1.646   8.880  0.00  0.00    +0.000 NA
ATOM      8  C   UNL     1      44.527   2.612   9.463  0.00  0.00    +0.000 A 
BRANCH   6   9
ATOM      9  C   UNL     1      47.072   1.034   7.338  0.00  0.00    +0.000 C 
ATOM     10  N   UNL     1      46.763  -0.262   7.653  0.00  0.00    +0.000 N 
ATOM     11  O   UNL     1      47.988   1.311   6.572  0.00  0.00    +0.000 OA
ATOM     12  H   UNL     1      45.991  -0.454   8.280  0.00  0.00    +0.000 HD
ATOM     13  H   UNL     1      47.291  -1.016   7.238  0.00  0.00    +0.000 HD
ENDBRANCH   6   9
ENDBRANCH   1   3
BRANCH   1  14
ATOM     14  C   UNL     1      43.787   4.933  11.341  0.00  0.00    +0.000 C 
BRANCH  14  16
ATOM     15  C   UNL     1      45.648   3.844  12.759  0.00  0.00    +0.000 C 
ATOM     16  C   UNL     1      45.205   4.962  11.858  0.00  0.00    +0.000 C 
BRANCH  16  17
ATOM     17  C   UNL     1      45.799   6.306  12.047  0.00  0.00    +0.000 A 
ATOM     18  C   UNL     1      47.189   6.455  12.147  0.00  0.00    +0.000 A 
ATOM     19  C   UNL     1      47.770   7.726  12.200  0.00  0.00    +0.000 A 
ATOM     20  C   UNL     1      46.967   8.866  12.155  0.00  0.00    +0.000 A 
ATOM     21  C   UNL     1      45.578   8.735  12.089  0.00  0.00    +0.000 A 
ATOM     22  C   UNL     1      44.999   7.459  12.054  0.00  0.00    +0.000 A 
BRANCH  21  23
ATOM     23  C   UNL     1      44.744   9.901  12.015  0.00  0.00    +0.000 C 
ATOM     24  N   UNL     1      44.064  10.838  11.968  0.00  0.00    +0.000 NA
ENDBRANCH  21  23
ENDBRANCH  16  17
ENDBRANCH  14  16
ENDBRANCH   1  14
TORSDOF 6
ENDMDL
MODEL 2
REMARK VINA RESULT:    -7.762      1.978      3.061
REMARK INTER + INTRA:         -11.123
REMARK INTER:                 -10.402
REMARK INTRA:                  -0.720
REMARK UNBOUND:                -0.639
REMARK  Name = 
REMARK  7 active torsions:
REMARK  status: ('A' for Active; 'I' for Inactive)
REMARK    1  A    between atoms: C_1  and  C_2
REMARK    2  A    between atoms: C_2  and  C_3
REMARK    3  A    between atoms: C_2  and  C_14
REMARK    4  A    between atoms: C_3  and  N_4
REMARK    5  A    between atoms: N_4  and  C_5
REMARK    6  A    between atoms: C_8  and  C_9
REMARK    7  A    between atoms: C_18  and  C_19
REMARK                            x       y       z     vdW  Elec       q    Type
REMARK                         _______ _______ _______ _____ _____    ______ ____
ROOT
ATOM      1  N   UNL     1      43.728   4.873   9.813  0.00  0.00    +0.000 N 
ATOM      2  H   UNL     1      42.808   4.848   9.380  0.00  0.00    +0.000 HD
ENDROOT
BRANCH   1   3
ATOM      3  C   UNL     1      44.622   3.970   9.209  0.00  0.00    +0.000 A 
ATOM      4  C   UNL     1      45.575   4.348   8.258  0.00  0.00    +0.000 A 
ATOM      5  C   UNL     1      46.394   3.396   7.645  0.00  0.00    +0.000 A 
ATOM      6  C   UNL     1      46.222   2.064   7.985  0.00  0.00    +0.000 A 
ATOM      7  N   UNL     1      45.286   1.628   8.868  0.00  0.00    +0.000 NA
ATOM      8  C   UNL     1      44.508   2.591   9.431  0.00  0.00    +0.000 A 
BRANCH   6   9
ATOM      9  C   UNL     1      47.095   1.021   7.350  0.00  0.00    +0.000 C 
ATOM     10  N   UNL     1      46.796  -0.275   7.672  0.00  0.00    +0.000 N 
ATOM     11  O   UNL     1      48.020   1.302   6.597  0.00  0.00    +0.000 OA
ATOM     12  H   UNL     1      46.016  -0.470   8.289  0.00  0.00    +0.000 HD
ATOM     13  H   UNL     1      47.338  -1.027   7.271  0.00  0.00    +0.000 HD
ENDBRANCH   6   9
ENDBRANCH   1   3
BRANCH   1  14
ATOM     14  C   UNL     1      43.646   4.856  11.270  0.00  0.00    +0.000 C 
BRANCH  14  16
ATOM     15  C   UNL     1      43.934   7.419  11.188  0.00  0.00    +0.000 C 
ATOM     16  C   UNL     1      44.268   6.108  11.841  0.00  0.00    +0.000 C 
BRANCH  16  17
ATOM     17  C   UNL     1      45.601   5.943  12.465  0.00  0.00    +0.000 A 
ATOM     18  C   UNL     1      46.688   6.708  12.020  0.00  0.00    +0.000 A 
ATOM     19  C   UNL     1      47.919   6.653  12.680  0.00  0.00    +0.000 A 
ATOM     20  C   UNL     1      48.080   5.832  13.796  0.00  0.00    +0.000 A 
ATOM     21  C   UNL     1      47.017   5.038  14.234  0.00  0.00    +0.000 A 
ATOM     22  C   UNL     1      45.790   5.083  13.557  0.00  0.00    +0.000 A 
BRANCH  21  23
ATOM     23  C   UNL     1      47.164   4.211  15.397  0.00  0.00    +0.000 C 
ATOM     24  N   UNL     1      47.290   3.553  16.343  0.00  0.00    +0.000 NA
ENDBRANCH  21  23
ENDBRANCH  16  17
ENDBRANCH  14  16
ENDBRANCH   1  14
TORSDOF 6
ENDMDL
MODEL 3
REMARK VINA RESULT:    -7.670      1.536      2.103
REMARK INTER + INTRA:         -10.999
REMARK INTER:                 -10.246
REMARK INTRA:                  -0.753
REMARK UNBOUND:                -0.639
REMARK  Name = 
REMARK  7 active torsions:
REMARK  status: ('A' for Active; 'I' for Inactive)
REMARK    1  A    between atoms: C_1  and  C_2
REMARK    2  A    between atoms: C_2  and  C_3
REMARK    3  A    between atoms: C_2  and  C_14
REMARK    4  A    between atoms: C_3  and  N_4
REMARK    5  A    between atoms: N_4  and  C_5
REMARK    6  A    between atoms: C_8  and  C_9
REMARK    7  A    between atoms: C_18  and  C_19
REMARK                            x       y       z     vdW  Elec       q    Type
REMARK                         _______ _______ _______ _____ _____    ______ ____
ROOT
ATOM      1  N   UNL     1      43.806   4.901   9.891  0.00  0.00    +0.000 N 
ATOM      2  H   UNL     1      42.860   4.844   9.521  0.00  0.00    +0.000 HD
ENDROOT
BRANCH   1   3
ATOM      3  C   UNL     1      44.674   3.988   9.265  0.00  0.00    +0.000 A 
ATOM      4  C   UNL     1      45.616   4.360   8.300  0.00  0.00    +0.000 A 
ATOM      5  C   UNL     1      46.409   3.400   7.665  0.00  0.00    +0.000 A 
ATOM      6  C   UNL     1      46.223   2.068   7.997  0.00  0.00    +0.000 A 
ATOM      7  N   UNL     1      45.296   1.640   8.893  0.00  0.00    +0.000 NA
ATOM      8  C   UNL     1      44.543   2.610   9.478  0.00  0.00    +0.000 A 
BRANCH   6   9
ATOM      9  C   UNL     1      47.069   1.017   7.339  0.00  0.00    +0.000 C 
ATOM     10  N   UNL     1      46.779  -0.275   7.686  0.00  0.00    +0.000 N 
ATOM     11  O   UNL     1      47.963   1.289   6.547  0.00  0.00    +0.000 OA
ATOM     12  H   UNL     1      46.025  -0.462   8.335  0.00  0.00    +0.000 HD
ATOM     13  H   UNL     1      47.304  -1.032   7.271  0.00  0.00    +0.000 HD
ENDBRANCH   6   9
ENDBRANCH   1   3
BRANCH   1  14
ATOM     14  C   UNL     1      43.820   4.940  11.350  0.00  0.00    +0.000 C 
BRANCH  14  16
ATOM     15  C   UNL     1      45.693   4.009  12.861  0.00  0.00    +0.000 C 
ATOM     16  C   UNL     1      45.240   5.028  11.854  0.00  0.00    +0.000 C 
BRANCH  16  17
ATOM     17  C   UNL     1      45.827   6.388  11.905  0.00  0.00    +0.000 A 
ATOM     18  C   UNL     1      45.032   7.486  12.259  0.00  0.00    +0.000 A 
ATOM     19  C   UNL     1      45.598   8.753  12.432  0.00  0.00    +0.000 A 
ATOM     20  C   UNL     1      46.969   8.938  12.253  0.00  0.00    +0.000 A 
ATOM     21  C   UNL     1      47.771   7.861  11.868  0.00  0.00    +0.000 A 
ATOM     22  C   UNL     1      47.196   6.597  11.678  0.00  0.00    +0.000 A 
BRANCH  21  23
ATOM     23  C   UNL     1      49.187   8.033  11.708  0.00  0.00    +0.000 C 
ATOM     24  N   UNL     1      50.333   8.162  11.589  0.00  0.00    +0.000 NA
ENDBRANCH  21  23
ENDBRANCH  16  17
ENDBRANCH  14  16
ENDBRANCH   1  14
TORSDOF 6
ENDMDL
MODEL 4
REMARK VINA RESULT:    -7.592      3.029      6.628
REMARK INTER + INTRA:         -10.894
REMARK INTER:                  -9.988
REMARK INTRA:                  -0.906
REMARK UNBOUND:                -0.639
REMARK  Name = 
REMARK  7 active torsions:
REMARK  status: ('A' for Active; 'I' for Inactive)
REMARK    1  A    between atoms: C_1  and  C_2
REMARK    2  A    between atoms: C_2  and  C_3
REMARK    3  A    between atoms: C_2  and  C_14
REMARK    4  A    between atoms: C_3  and  N_4
REMARK    5  A    between atoms: N_4  and  C_5
REMARK    6  A    between atoms: C_8  and  C_9
REMARK    7  A    between atoms: C_18  and  C_19
REMARK                            x       y       z     vdW  Elec       q    Type
REMARK                         _______ _______ _______ _____ _____    ______ ____
ROOT
ATOM      1  N   UNL     1      43.548   5.407  12.332  0.00  0.00    +0.000 N 
ATOM      2  H   UNL     1      42.864   6.026  12.760  0.00  0.00    +0.000 HD
ENDROOT
BRANCH   1   3
ATOM      3  C   UNL     1      44.868   5.821  12.585  0.00  0.00    +0.000 A 
ATOM      4  C   UNL     1      45.497   6.856  11.887  0.00  0.00    +0.000 A 
ATOM      5  C   UNL     1      46.833   7.183  12.138  0.00  0.00    +0.000 A 
ATOM      6  C   UNL     1      47.527   6.438  13.079  0.00  0.00    +0.000 A 
ATOM      7  N   UNL     1      46.985   5.394  13.758  0.00  0.00    +0.000 NA
ATOM      8  C   UNL     1      45.686   5.110  13.474  0.00  0.00    +0.000 A 
BRANCH   6   9
ATOM      9  C   UNL     1      48.959   6.774  13.376  0.00  0.00    +0.000 C 
ATOM     10  N   UNL     1      49.723   7.111  12.292  0.00  0.00    +0.000 N 
ATOM     11  O   UNL     1      49.423   6.747  14.510  0.00  0.00    +0.000 OA
ATOM     12  H   UNL     1      49.302   7.133  11.371  0.00  0.00    +0.000 HD
ATOM     13  H   UNL     1      50.693   7.358  12.423  0.00  0.00    +0.000 HD
ENDBRANCH   6   9
ENDBRANCH   1   3
BRANCH   1  14
ATOM     14  C   UNL     1      43.203   5.087  10.950  0.00  0.00    +0.000 C 
BRANCH  14  16
ATOM     15  C   UNL     1      43.550   2.663  11.764  0.00  0.00    +0.000 C 
ATOM     16  C   UNL     1      43.576   3.658  10.638  0.00  0.00    +0.000 C 
BRANCH  16  17
ATOM     17  C   UNL     1      44.557   3.468   9.544  0.00  0.00    +0.000 A 
ATOM     18  C   UNL     1      45.157   4.578   8.934  0.00  0.00    +0.000 A 
ATOM     19  C   UNL     1      46.174   4.412   7.988  0.00  0.00    +0.000 A 
ATOM     20  C   UNL     1      46.605   3.131   7.640  0.00  0.00    +0.000 A 
ATOM     21  C   UNL     1      45.995   2.013   8.214  0.00  0.00    +0.000 A 
ATOM     22  C   UNL     1      44.964   2.185   9.148  0.00  0.00    +0.000 A 
BRANCH  21  23
ATOM     23  C   UNL     1      46.448   0.692   7.884  0.00  0.00    +0.000 C 
ATOM     24  N   UNL     1      46.812  -0.379   7.631  0.00  0.00    +0.000 NA
ENDBRANCH  21  23
ENDBRANCH  16  17
ENDBRANCH  14  16
ENDBRANCH   1  14
TORSDOF 6
ENDMDL
MODEL 5
REMARK VINA RESULT:    -7.140      1.847      2.373
REMARK INTER + INTRA:         -10.283
REMARK INTER:                  -9.642
REMARK INTRA:                  -0.642
REMARK UNBOUND:                -0.639
REMARK  Name = 
REMARK  7 active torsions:
REMARK  status: ('A' for Active; 'I' for Inactive)
REMARK    1  A    between atoms: C_1  and  C_2
REMARK    2  A    between atoms: C_2  and  C_3
REMARK    3  A    between atoms: C_2  and  C_14
REMARK    4  A    between atoms: C_3  and  N_4
REMARK    5  A    between atoms: N_4  and  C_5
REMARK    6  A    between atoms: C_8  and  C_9
REMARK    7  A    between atoms: C_18  and  C_19
REMARK                            x       y       z     vdW  Elec       q    Type
REMARK                         _______ _______ _______ _____ _____    ______ ____
ROOT
ATOM      1  N   UNL     1      43.960   3.565  10.331  0.00  0.00    +0.000 N 
ATOM      2  H   UNL     1      43.974   2.865  11.069  0.00  0.00    +0.000 HD
ENDROOT
BRANCH   1   3
ATOM      3  C   UNL     1      44.927   3.309   9.341  0.00  0.00    +0.000 A 
ATOM      4  C   UNL     1      45.482   4.306   8.533  0.00  0.00    +0.000 A 
ATOM      5  C   UNL     1      46.393   3.985   7.522  0.00  0.00    +0.000 A 
ATOM      6  C   UNL     1      46.713   2.651   7.324  0.00  0.00    +0.000 A 
ATOM      7  N   UNL     1      46.175   1.634   8.047  0.00  0.00    +0.000 NA
ATOM      8  C   UNL     1      45.289   1.997   9.013  0.00  0.00    +0.000 A 
BRANCH   6   9
ATOM      9  C   UNL     1      47.697   2.279   6.254  0.00  0.00    +0.000 C 
ATOM     10  N   UNL     1      47.748   3.126   5.180  0.00  0.00    +0.000 N 
ATOM     11  O   UNL     1      48.408   1.284   6.325  0.00  0.00    +0.000 OA
ATOM     12  H   UNL     1      47.153   3.946   5.160  0.00  0.00    +0.000 HD
ATOM     13  H   UNL     1      48.396   2.939   4.427  0.00  0.00    +0.000 HD
ENDBRANCH   6   9
ENDBRANCH   1   3
BRANCH   1  14
ATOM     14  C   UNL     1      43.898   4.921  10.867  0.00  0.00    +0.000 C 
BRANCH  14  16
ATOM     15  C   UNL     1      42.817   5.076  13.205  0.00  0.00    +0.000 C 
ATOM     16  C   UNL     1      44.052   4.894  12.368  0.00  0.00    +0.000 C 
BRANCH  16  17
ATOM     17  C   UNL     1      45.347   5.384  12.896  0.00  0.00    +0.000 A 
ATOM     18  C   UNL     1      46.003   4.683  13.917  0.00  0.00    +0.000 A 
ATOM     19  C   UNL     1      47.281   5.062  14.338  0.00  0.00    +0.000 A 
ATOM     20  C   UNL     1      47.922   6.148  13.741  0.00  0.00    +0.000 A 
ATOM     21  C   UNL     1      47.269   6.878  12.745  0.00  0.00    +0.000 A 
ATOM     22  C   UNL     1      45.981   6.505  12.339  0.00  0.00    +0.000 A 
BRANCH  21  23
ATOM     23  C   UNL     1      47.930   7.981  12.106  0.00  0.00    +0.000 C 
ATOM     24  N   UNL     1      48.467   8.862  11.578  0.00  0.00    +0.000 NA
ENDBRANCH  21  23
ENDBRANCH  16  17
ENDBRANCH  14  16
ENDBRANCH   1  14
TORSDOF 6
ENDMDL
MODEL 6
REMARK VINA RESULT:    -6.733      2.424      2.966
REMARK INTER + INTRA:          -9.733
REMARK INTER:                  -9.111
REMARK INTRA:                  -0.621
REMARK UNBOUND:                -0.639
REMARK  Name = 
REMARK  7 active torsions:
REMARK  status: ('A' for Active; 'I' for Inactive)
REMARK    1  A    between atoms: C_1  and  C_2
REMARK    2  A    between atoms: C_2  and  C_3
REMARK    3  A    between atoms: C_2  and  C_14
REMARK    4  A    between atoms: C_3  and  N_4
REMARK    5  A    between atoms: N_4  and  C_5
REMARK    6  A    between atoms: C_8  and  C_9
REMARK    7  A    between atoms: C_18  and  C_19
REMARK                            x       y       z     vdW  Elec       q    Type
REMARK                         _______ _______ _______ _____ _____    ______ ____
ROOT
ATOM      1  N   UNL     1      44.000   4.208  10.518  0.00  0.00    +0.000 N 
ATOM      2  H   UNL     1      43.656   3.426  11.070  0.00  0.00    +0.000 HD
ENDROOT
BRANCH   1   3
ATOM      3  C   UNL     1      44.772   3.781   9.421  0.00  0.00    +0.000 A 
ATOM      4  C   UNL     1      45.059   2.438   9.159  0.00  0.00    +0.000 A 
ATOM      5  C   UNL     1      45.884   2.076   8.090  0.00  0.00    +0.000 A 
ATOM      6  C   UNL     1      46.431   3.084   7.311  0.00  0.00    +0.000 A 
ATOM      7  N   UNL     1      46.226   4.407   7.542  0.00  0.00    +0.000 NA
ATOM      8  C   UNL     1      45.423   4.708   8.597  0.00  0.00    +0.000 A 
BRANCH   6   9
ATOM      9  C   UNL     1      47.312   2.724   6.151  0.00  0.00    +0.000 C 
ATOM     10  N   UNL     1      48.603   2.399   6.468  0.00  0.00    +0.000 N 
ATOM     11  O   UNL     1      46.912   2.721   4.993  0.00  0.00    +0.000 OA
ATOM     12  H   UNL     1      48.895   2.401   7.439  0.00  0.00    +0.000 HD
ATOM     13  H   UNL     1      49.247   2.137   5.735  0.00  0.00    +0.000 HD
ENDBRANCH   6   9
ENDBRANCH   1   3
BRANCH   1  14
ATOM     14  C   UNL     1      44.561   5.263  11.356  0.00  0.00    +0.000 C 
BRANCH  14  16
ATOM     15  C   UNL     1      45.659   3.516  12.907  0.00  0.00    +0.000 C 
ATOM     16  C   UNL     1      45.791   4.759  12.073  0.00  0.00    +0.000 C 
BRANCH  16  17
ATOM     17  C   UNL     1      46.769   5.792  12.486  0.00  0.00    +0.000 A 
ATOM     18  C   UNL     1      47.035   6.886  11.651  0.00  0.00    +0.000 A 
ATOM     19  C   UNL     1      47.860   7.930  12.081  0.00  0.00    +0.000 A 
ATOM     20  C   UNL     1      48.431   7.894  13.353  0.00  0.00    +0.000 A 
ATOM     21  C   UNL     1      48.203   6.795  14.186  0.00  0.00    +0.000 A 
ATOM     22  C   UNL     1      47.390   5.743  13.743  0.00  0.00    +0.000 A 
BRANCH  21  23
ATOM     23  C   UNL     1      48.763   6.760  15.507  0.00  0.00    +0.000 C 
ATOM     24  N   UNL     1      49.229   6.731  16.567  0.00  0.00    +0.000 NA
ENDBRANCH  21  23
ENDBRANCH  16  17
ENDBRANCH  14  16
ENDBRANCH   1  14
TORSDOF 6
ENDMDL
MODEL 7
REMARK VINA RESULT:    -6.509      3.998      6.969
REMARK INTER + INTRA:          -9.430
REMARK INTER:                  -8.706
REMARK INTRA:                  -0.725
REMARK UNBOUND:                -0.639
REMARK  Name = 
REMARK  7 active torsions:
REMARK  status: ('A' for Active; 'I' for Inactive)
REMARK    1  A    between atoms: C_1  and  C_2
REMARK    2  A    between atoms: C_2  and  C_3
REMARK    3  A    between atoms: C_2  and  C_14
REMARK    4  A    between atoms: C_3  and  N_4
REMARK    5  A    between atoms: N_4  and  C_5
REMARK    6  A    between atoms: C_8  and  C_9
REMARK    7  A    between atoms: C_18  and  C_19
REMARK                            x       y       z     vdW  Elec       q    Type
REMARK                         _______ _______ _______ _____ _____    ______ ____
ROOT
ATOM      1  N   UNL     1      46.650   7.032  12.654  0.00  0.00    +0.000 N 
ATOM      2  H   UNL     1      47.117   7.921  12.816  0.00  0.00    +0.000 HD
ENDROOT
BRANCH   1   3
ATOM      3  C   UNL     1      46.996   6.069  13.619  0.00  0.00    +0.000 A 
ATOM      4  C   UNL     1      46.292   4.873  13.799  0.00  0.00    +0.000 A 
ATOM      5  C   UNL     1      46.643   3.981  14.816  0.00  0.00    +0.000 A 
ATOM      6  C   UNL     1      47.690   4.321  15.658  0.00  0.00    +0.000 A 
ATOM      7  N   UNL     1      48.383   5.486  15.562  0.00  0.00    +0.000 NA
ATOM      8  C   UNL     1      48.000   6.324  14.562  0.00  0.00    +0.000 A 
BRANCH   6   9
ATOM      9  C   UNL     1      48.095   3.377  16.752  0.00  0.00    +0.000 C 
ATOM     10  N   UNL     1      47.078   2.926  17.548  0.00  0.00    +0.000 N 
ATOM     11  O   UNL     1      49.257   3.031  16.930  0.00  0.00    +0.000 OA
ATOM     12  H   UNL     1      46.127   3.225  17.363  0.00  0.00    +0.000 HD
ATOM     13  H   UNL     1      47.280   2.279  18.297  0.00  0.00    +0.000 HD
ENDBRANCH   6   9
ENDBRANCH   1   3
BRANCH   1  14
ATOM     14  C   UNL     1      46.719   6.627  11.253  0.00  0.00    +0.000 C 
BRANCH  14  16
ATOM     15  C   UNL     1      44.156   6.807  11.485  0.00  0.00    +0.000 C 
ATOM     16  C   UNL     1      45.345   6.257  10.750  0.00  0.00    +0.000 C 
BRANCH  16  17
ATOM     17  C   UNL     1      45.228   4.931  10.099  0.00  0.00    +0.000 A 
ATOM     18  C   UNL     1      44.449   3.924  10.684  0.00  0.00    +0.000 A 
ATOM     19  C   UNL     1      44.229   2.713  10.021  0.00  0.00    +0.000 A 
ATOM     20  C   UNL     1      44.786   2.493   8.761  0.00  0.00    +0.000 A 
ATOM     21  C   UNL     1      45.593   3.473   8.177  0.00  0.00    +0.000 A 
ATOM     22  C   UNL     1      45.825   4.678   8.854  0.00  0.00    +0.000 A 
BRANCH  21  23
ATOM     23  C   UNL     1      46.149   3.268   6.870  0.00  0.00    +0.000 C 
ATOM     24  N   UNL     1      46.602   3.118   5.814  0.00  0.00    +0.000 NA
ENDBRANCH  21  23
ENDBRANCH  16  17
ENDBRANCH  14  16
ENDBRANCH   1  14
TORSDOF 6
ENDMDL
MODEL 8
REMARK VINA RESULT:    -6.193      4.261      6.938
REMARK INTER + INTRA:          -9.004
REMARK INTER:                  -8.402
REMARK INTRA:                  -0.603
REMARK UNBOUND:                -0.639
REMARK  Name = 
REMARK  7 active torsions:
REMARK  status: ('A' for Active; 'I' for Inactive)
REMARK    1  A    between atoms: C_1  and  C_2
REMARK    2  A    between atoms: C_2  and  C_3
REMARK    3  A    between atoms: C_2  and  C_14
REMARK    4  A    between atoms: C_3  and  N_4
REMARK    5  A    between atoms: N_4  and  C_5
REMARK    6  A    between atoms: C_8  and  C_9
REMARK    7  A    between atoms: C_18  and  C_19
REMARK                            x       y       z     vdW  Elec       q    Type
REMARK                         _______ _______ _______ _____ _____    ______ ____
ROOT
ATOM      1  N   UNL     1      47.391   6.552  12.825  0.00  0.00    +0.000 N 
ATOM      2  H   UNL     1      47.346   5.975  11.988  0.00  0.00    +0.000 HD
ENDROOT
BRANCH   1   3
ATOM      3  C   UNL     1      47.448   5.777  13.998  0.00  0.00    +0.000 A 
ATOM      4  C   UNL     1      48.161   6.160  15.139  0.00  0.00    +0.000 A 
ATOM      5  C   UNL     1      48.234   5.321  16.254  0.00  0.00    +0.000 A 
ATOM      6  C   UNL     1      47.604   4.088  16.193  0.00  0.00    +0.000 A 
ATOM      7  N   UNL     1      46.934   3.641  15.099  0.00  0.00    +0.000 NA
ATOM      8  C   UNL     1      46.897   4.490  14.037  0.00  0.00    +0.000 A 
BRANCH   6   9
ATOM      9  C   UNL     1      47.658   3.171  17.379  0.00  0.00    +0.000 C 
ATOM     10  N   UNL     1      48.864   3.111  18.024  0.00  0.00    +0.000 N 
ATOM     11  O   UNL     1      46.693   2.514  17.752  0.00  0.00    +0.000 OA
ATOM     12  H   UNL     1      49.636   3.678  17.695  0.00  0.00    +0.000 HD
ATOM     13  H   UNL     1      48.966   2.520  18.837  0.00  0.00    +0.000 HD
ENDBRANCH   6   9
ENDBRANCH   1   3
BRANCH   1  14
ATOM     14  C   UNL     1      46.417   7.638  12.792  0.00  0.00    +0.000 C 
BRANCH  14  16
ATOM     15  C   UNL     1      44.583   8.538  11.215  0.00  0.00    +0.000 C 
ATOM     16  C   UNL     1      45.377   7.372  11.730  0.00  0.00    +0.000 C 
BRANCH  16  17
ATOM     17  C   UNL     1      44.735   6.037  11.772  0.00  0.00    +0.000 A 
ATOM     18  C   UNL     1      43.753   5.757  12.731  0.00  0.00    +0.000 A 
ATOM     19  C   UNL     1      43.051   4.548  12.704  0.00  0.00    +0.000 A 
ATOM     20  C   UNL     1      43.323   3.602  11.715  0.00  0.00    +0.000 A 
ATOM     21  C   UNL     1      44.321   3.851  10.771  0.00  0.00    +0.000 A 
ATOM     22  C   UNL     1      45.034   5.057  10.813  0.00  0.00    +0.000 A 
BRANCH  21  23
ATOM     23  C   UNL     1      44.590   2.897   9.733  0.00  0.00    +0.000 C 
ATOM     24  N   UNL     1      44.794   2.120   8.897  0.00  0.00    +0.000 NA
ENDBRANCH  21  23
ENDBRANCH  16  17
ENDBRANCH  14  16
ENDBRANCH   1  14
TORSDOF 6
ENDMDL
MODEL 9
REMARK VINA RESULT:    -5.901      5.102      6.772
REMARK INTER + INTRA:          -8.610
REMARK INTER:                  -8.102
REMARK INTRA:                  -0.508
REMARK UNBOUND:                -0.639
REMARK  Name = 
REMARK  7 active torsions:
REMARK  status: ('A' for Active; 'I' for Inactive)
REMARK    1  A    between atoms: C_1  and  C_2
REMARK    2  A    between atoms: C_2  and  C_3
REMARK    3  A    between atoms: C_2  and  C_14
REMARK    4  A    between atoms: C_3  and  N_4
REMARK    5  A    between atoms: N_4  and  C_5
REMARK    6  A    between atoms: C_8  and  C_9
REMARK    7  A    between atoms: C_18  and  C_19
REMARK                            x       y       z     vdW  Elec       q    Type
REMARK                         _______ _______ _______ _____ _____    ______ ____
ROOT
ATOM      1  N   UNL     1      47.126   6.958  13.983  0.00  0.00    +0.000 N 
ATOM      2  H   UNL     1      46.553   7.266  14.766  0.00  0.00    +0.000 HD
ENDROOT
BRANCH   1   3
ATOM      3  C   UNL     1      46.461   6.014  13.180  0.00  0.00    +0.000 A 
ATOM      4  C   UNL     1      46.122   6.244  11.843  0.00  0.00    +0.000 A 
ATOM      5  C   UNL     1      45.405   5.293  11.111  0.00  0.00    +0.000 A 
ATOM      6  C   UNL     1      45.015   4.127  11.751  0.00  0.00    +0.000 A 
ATOM      7  N   UNL     1      45.276   3.865  13.058  0.00  0.00    +0.000 NA
ATOM      8  C   UNL     1      45.969   4.823  13.729  0.00  0.00    +0.000 A 
BRANCH   6   9
ATOM      9  C   UNL     1      44.254   3.085  10.986  0.00  0.00    +0.000 C 
ATOM     10  N   UNL     1      44.960   2.438  10.008  0.00  0.00    +0.000 N 
ATOM     11  O   UNL     1      43.078   2.825  11.212  0.00  0.00    +0.000 OA
ATOM     12  H   UNL     1      45.934   2.670   9.857  0.00  0.00    +0.000 HD
ATOM     13  H   UNL     1      44.510   1.717   9.462  0.00  0.00    +0.000 HD
ENDBRANCH   6   9
ENDBRANCH   1   3
BRANCH   1  14
ATOM     14  C   UNL     1      48.488   6.638  14.398  0.00  0.00    +0.000 C 
BRANCH  14  16
ATOM     15  C   UNL     1      49.159   7.967  16.505  0.00  0.00    +0.000 C 
ATOM     16  C   UNL     1      48.605   6.708  15.901  0.00  0.00    +0.000 C 
BRANCH  16  17
ATOM     17  C   UNL     1      48.846   5.421  16.594  0.00  0.00    +0.000 A 
ATOM     18  C   UNL     1      47.827   4.463  16.678  0.00  0.00    +0.000 A 
ATOM     19  C   UNL     1      48.077   3.198  17.217  0.00  0.00    +0.000 A 
ATOM     20  C   UNL     1      49.353   2.873  17.680  0.00  0.00    +0.000 A 
ATOM     21  C   UNL     1      50.372   3.827  17.634  0.00  0.00    +0.000 A 
ATOM     22  C   UNL     1      50.111   5.100  17.109  0.00  0.00    +0.000 A 
BRANCH  21  23
ATOM     23  C   UNL     1      51.695   3.495  18.082  0.00  0.00    +0.000 C 
ATOM     24  N   UNL     1      52.768   3.239  18.437  0.00  0.00    +0.000 NA
ENDBRANCH  21  23
ENDBRANCH  16  17
ENDBRANCH  14  16
ENDBRANCH   1  14
TORSDOF 6
ENDMDL
