MODEL 1
REMARK VINA RESULT:    -7.987      0.000      0.000
REMARK INTER + INTRA:         -10.495
REMARK INTER:                 -10.088
REMARK INTRA:                  -0.407
REMARK UNBOUND:                -0.407
REMARK  Name = 
REMARK  5 active torsions:
REMARK  status: ('A' for Active; 'I' for Inactive)
REMARK    1  A    between atoms: N_1  and  C_2
REMARK    2  A    between atoms: C_2  and  C_3
REMARK    3  A    between atoms: C_7  and  C_8
REMARK    4  A    between atoms: C_8  and  N_9
REMARK    5  A    between atoms: C_15  and  C_16
REMARK                            x       y       z     vdW  Elec       q    Type
REMARK                         _______ _______ _______ _____ _____    ______ ____
ROOT
ATOM      1  N   UNL     1      44.225   4.220  10.553  0.00  0.00    +0.000 N 
ATOM      2  C   UNL     1      43.412   3.388  11.283  0.00  0.00    +0.000 A 
ATOM      3  C   UNL     1      43.774   3.495  12.608  0.00  0.00    +0.000 A 
ATOM      4  C   UNL     1      44.842   4.428  12.690  0.00  0.00    +0.000 A 
ATOM      5  C   UNL     1      45.623   4.915  13.755  0.00  0.00    +0.000 A 
ATOM      6  C   UNL     1      46.643   5.839  13.498  0.00  0.00    +0.000 A 
ATOM      7  C   UNL     1      46.887   6.303  12.201  0.00  0.00    +0.000 A 
ATOM      8  C   UNL     1      46.097   5.841  11.131  0.00  0.00    +0.000 A 
ATOM      9  C   UNL     1      45.097   4.887  11.396  0.00  0.00    +0.000 A 
ENDROOT
BRANCH   7  10
ATOM     10  C   UNL     1      48.009   7.276  11.926  0.00  0.00    +0.000 C 
ATOM     11  F   UNL     1      48.571   7.131  10.693  0.00  0.00    +0.000 F 
ATOM     12  F   UNL     1      47.598   8.574  11.995  0.00  0.00    +0.000 F 
ATOM     13  F   UNL     1      49.033   7.162  12.818  0.00  0.00    +0.000 F 
ENDBRANCH   7  10
BRANCH   1  14
ATOM     14  C   UNL     1      44.227   4.290   9.093  0.00  0.00    +0.000 C 
BRANCH  14  19
ATOM     15  C   UNL     1      46.678   2.577   6.713  0.00  0.00    +0.000 A 
ATOM     16  C   UNL     1      46.719   1.321   7.321  0.00  0.00    +0.000 A 
ATOM     17  C   UNL     1      45.974   1.116   8.466  0.00  0.00    +0.000 A 
ATOM     18  N   UNL     1      45.183   2.058   9.027  0.00  0.00    +0.000 NA
ATOM     19  C   UNL     1      45.124   3.276   8.427  0.00  0.00    +0.000 A 
ATOM     20  C   UNL     1      45.886   3.572   7.298  0.00  0.00    +0.000 A 
BRANCH  15  21
ATOM     21  C   UNL     1      47.442   2.852   5.445  0.00  0.00    +0.000 C 
BRANCH  21  22
ATOM     22  N   UNL     1      48.511   1.879   5.257  0.00  0.00    +0.000 NA
ATOM     23  H   UNL     1      48.103   0.982   5.003  0.00  0.00    +0.000 HD
ATOM     24  H   UNL     1      48.984   1.735   6.149  0.00  0.00    +0.000 HD
ENDBRANCH  21  22
ENDBRANCH  15  21
ENDBRANCH  14  19
ENDBRANCH   1  14
TORSDOF 5
ENDMDL
MODEL 2
REMARK VINA RESULT:    -7.232      3.124      6.010
REMARK INTER + INTRA:          -9.541
REMARK INTER:                  -8.892
REMARK INTRA:                  -0.648
REMARK UNBOUND:                -0.407
REMARK  Name = 
REMARK  5 active torsions:
REMARK  status: ('A' for Active; 'I' for Inactive)
REMARK    1  A    between atoms: N_1  and  C_2
REMARK    2  A    between atoms: C_2  and  C_3
REMARK    3  A    between atoms: C_7  and  C_8
REMARK    4  A    between atoms: C_8  and  N_9
REMARK    5  A    between atoms: C_15  and  C_16
REMARK                            x       y       z     vdW  Elec       q    Type
REMARK                         _______ _______ _______ _____ _____    ______ ____
ROOT
ATOM      1  N   UNL     1      43.802   5.141  11.063  0.00  0.00    +0.000 N 
ATOM      2  C   UNL     1      43.017   4.470  11.969  0.00  0.00    +0.000 A 
ATOM      3  C   UNL     1      43.120   3.122  11.705  0.00  0.00    +0.000 A 
ATOM      4  C   UNL     1      44.002   2.964  10.602  0.00  0.00    +0.000 A 
ATOM      5  C   UNL     1      44.461   1.845   9.883  0.00  0.00    +0.000 A 
ATOM      6  C   UNL     1      45.332   2.028   8.802  0.00  0.00    +0.000 A 
ATOM      7  C   UNL     1      45.770   3.305   8.436  0.00  0.00    +0.000 A 
ATOM      8  C   UNL     1      45.335   4.430   9.163  0.00  0.00    +0.000 A 
ATOM      9  C   UNL     1      44.434   4.237  10.226  0.00  0.00    +0.000 A 
ENDROOT
BRANCH   7  10
ATOM     10  C   UNL     1      46.685   3.499   7.250  0.00  0.00    +0.000 C 
ATOM     11  F   UNL     1      46.075   3.300   6.048  0.00  0.00    +0.000 F 
ATOM     12  F   UNL     1      47.204   4.758   7.198  0.00  0.00    +0.000 F 
ATOM     13  F   UNL     1      47.756   2.656   7.269  0.00  0.00    +0.000 F 
ENDBRANCH   7  10
BRANCH   1  14
ATOM     14  C   UNL     1      43.857   6.597  10.946  0.00  0.00    +0.000 C 
BRANCH  14  19
ATOM     15  C   UNL     1      47.008   7.158  13.033  0.00  0.00    +0.000 A 
ATOM     16  C   UNL     1      46.946   8.549  13.139  0.00  0.00    +0.000 A 
ATOM     17  C   UNL     1      45.908   9.214  12.515  0.00  0.00    +0.000 A 
ATOM     18  N   UNL     1      44.928   8.593  11.820  0.00  0.00    +0.000 NA
ATOM     19  C   UNL     1      44.974   7.238  11.731  0.00  0.00    +0.000 A 
ATOM     20  C   UNL     1      46.017   6.504  12.293  0.00  0.00    +0.000 A 
BRANCH  15  21
ATOM     21  C   UNL     1      48.096   6.375  13.719  0.00  0.00    +0.000 C 
BRANCH  21  22
ATOM     22  N   UNL     1      49.391   6.626  13.100  0.00  0.00    +0.000 NA
ATOM     23  H   UNL     1      50.100   6.072  13.575  0.00  0.00    +0.000 HD
ATOM     24  H   UNL     1      49.644   7.603  13.252  0.00  0.00    +0.000 HD
ENDBRANCH  21  22
ENDBRANCH  15  21
ENDBRANCH  14  19
ENDBRANCH   1  14
TORSDOF 5
ENDMDL
MODEL 3
REMARK VINA RESULT:    -6.891      3.244      6.269
REMARK INTER + INTRA:          -9.111
REMARK INTER:                  -8.452
REMARK INTRA:                  -0.659
REMARK UNBOUND:                -0.407
REMARK  Name = 
REMARK  5 active torsions:
REMARK  status: ('A' for Active; 'I' for Inactive)
REMARK    1  A    between atoms: N_1  and  C_2
REMARK    2  A    between atoms: C_2  and  C_3
REMARK    3  A    between atoms: C_7  and  C_8
REMARK    4  A    between atoms: C_8  and  N_9
REMARK    5  A    between atoms: C_15  and  C_16
REMARK                            x       y       z     vdW  Elec       q    Type
REMARK                         _______ _______ _______ _____ _____    ______ ____
ROOT
ATOM      1  N   UNL     1      44.781   5.873  11.833  0.00  0.00    +0.000 N 
ATOM      2  C   UNL     1      43.910   5.527  12.838  0.00  0.00    +0.000 A 
ATOM      3  C   UNL     1      43.417   4.271  12.559  0.00  0.00    +0.000 A 
ATOM      4  C   UNL     1      44.011   3.834  11.344  0.00  0.00    +0.000 A 
ATOM      5  C   UNL     1      43.877   2.669  10.565  0.00  0.00    +0.000 A 
ATOM      6  C   UNL     1      44.604   2.546   9.375  0.00  0.00    +0.000 A 
ATOM      7  C   UNL     1      45.479   3.554   8.956  0.00  0.00    +0.000 A 
ATOM      8  C   UNL     1      45.638   4.714   9.738  0.00  0.00    +0.000 A 
ATOM      9  C   UNL     1      44.877   4.842  10.915  0.00  0.00    +0.000 A 
ENDROOT
BRANCH   7  10
ATOM     10  C   UNL     1      46.237   3.430   7.655  0.00  0.00    +0.000 C 
ATOM     11  F   UNL     1      47.075   2.356   7.609  0.00  0.00    +0.000 F 
ATOM     12  F   UNL     1      45.406   3.299   6.583  0.00  0.00    +0.000 F 
ATOM     13  F   UNL     1      47.013   4.520   7.394  0.00  0.00    +0.000 F 
ENDBRANCH   7  10
BRANCH   1  14
ATOM     14  C   UNL     1      45.413   7.186  11.713  0.00  0.00    +0.000 C 
BRANCH  14  19
ATOM     15  C   UNL     1      48.484   6.967  13.977  0.00  0.00    +0.000 A 
ATOM     16  C   UNL     1      49.449   7.397  13.065  0.00  0.00    +0.000 A 
ATOM     17  C   UNL     1      49.052   7.709  11.779  0.00  0.00    +0.000 A 
ATOM     18  N   UNL     1      47.771   7.642  11.352  0.00  0.00    +0.000 NA
ATOM     19  C   UNL     1      46.825   7.242  12.242  0.00  0.00    +0.000 A 
ATOM     20  C   UNL     1      47.158   6.864  13.541  0.00  0.00    +0.000 A 
BRANCH  15  21
ATOM     21  C   UNL     1      48.850   6.644  15.402  0.00  0.00    +0.000 C 
BRANCH  21  22
ATOM     22  N   UNL     1      48.160   5.446  15.862  0.00  0.00    +0.000 NA
ATOM     23  H   UNL     1      48.250   4.718  15.156  0.00  0.00    +0.000 HD
ATOM     24  H   UNL     1      47.163   5.649  15.935  0.00  0.00    +0.000 HD
ENDBRANCH  21  22
ENDBRANCH  15  21
ENDBRANCH  14  19
ENDBRANCH   1  14
TORSDOF 5
ENDMDL
MODEL 4
REMARK VINA RESULT:    -6.803      1.369      2.035
REMARK INTER + INTRA:          -8.999
REMARK INTER:                  -8.676
REMARK INTRA:                  -0.323
REMARK UNBOUND:                -0.407
REMARK  Name = 
REMARK  5 active torsions:
REMARK  status: ('A' for Active; 'I' for Inactive)
REMARK    1  A    between atoms: N_1  and  C_2
REMARK    2  A    between atoms: C_2  and  C_3
REMARK    3  A    between atoms: C_7  and  C_8
REMARK    4  A    between atoms: C_8  and  N_9
REMARK    5  A    between atoms: C_15  and  C_16
REMARK                            x       y       z     vdW  Elec       q    Type
REMARK                         _______ _______ _______ _____ _____    ______ ____
ROOT
ATOM      1  N   UNL     1      45.491   5.428  11.723  0.00  0.00    +0.000 N 
ATOM      2  C   UNL     1      44.967   4.597  12.682  0.00  0.00    +0.000 A 
ATOM      3  C   UNL     1      45.773   4.671  13.796  0.00  0.00    +0.000 A 
ATOM      4  C   UNL     1      46.825   5.582  13.508  0.00  0.00    +0.000 A 
ATOM      5  C   UNL     1      47.941   6.032  14.237  0.00  0.00    +0.000 A 
ATOM      6  C   UNL     1      48.829   6.943  13.649  0.00  0.00    +0.000 A 
ATOM      7  C   UNL     1      48.613   7.428  12.355  0.00  0.00    +0.000 A 
ATOM      8  C   UNL     1      47.487   7.002  11.626  0.00  0.00    +0.000 A 
ATOM      9  C   UNL     1      46.620   6.062  12.213  0.00  0.00    +0.000 A 
ENDROOT
BRANCH   7  10
ATOM     10  C   UNL     1      49.590   8.385  11.715  0.00  0.00    +0.000 C 
ATOM     11  F   UNL     1      48.994   9.399  11.027  0.00  0.00    +0.000 F 
ATOM     12  F   UNL     1      50.402   8.985  12.630  0.00  0.00    +0.000 F 
ATOM     13  F   UNL     1      50.422   7.770  10.827  0.00  0.00    +0.000 F 
ENDBRANCH   7  10
BRANCH   1  14
ATOM     14  C   UNL     1      44.982   5.528  10.356  0.00  0.00    +0.000 C 
BRANCH  14  19
ATOM     15  C   UNL     1      46.270   3.214   7.601  0.00  0.00    +0.000 A 
ATOM     16  C   UNL     1      45.694   2.021   8.041  0.00  0.00    +0.000 A 
ATOM     17  C   UNL     1      44.949   2.036   9.204  0.00  0.00    +0.000 A 
ATOM     18  N   UNL     1      44.723   3.149   9.938  0.00  0.00    +0.000 NA
ATOM     19  C   UNL     1      45.265   4.317   9.502  0.00  0.00    +0.000 A 
ATOM     20  C   UNL     1      46.069   4.369   8.365  0.00  0.00    +0.000 A 
BRANCH  15  21
ATOM     21  C   UNL     1      47.065   3.268   6.323  0.00  0.00    +0.000 C 
BRANCH  21  22
ATOM     22  N   UNL     1      48.389   2.687   6.506  0.00  0.00    +0.000 NA
ATOM     23  H   UNL     1      49.093   3.374   6.241  0.00  0.00    +0.000 HD
ATOM     24  H   UNL     1      48.497   1.906   5.859  0.00  0.00    +0.000 HD
ENDBRANCH  21  22
ENDBRANCH  15  21
ENDBRANCH  14  19
ENDBRANCH   1  14
TORSDOF 5
ENDMDL
MODEL 5
REMARK VINA RESULT:    -6.555      4.814      7.935
REMARK INTER + INTRA:          -8.687
REMARK INTER:                  -8.345
REMARK INTRA:                  -0.341
REMARK UNBOUND:                -0.407
REMARK  Name = 
REMARK  5 active torsions:
REMARK  status: ('A' for Active; 'I' for Inactive)
REMARK    1  A    between atoms: N_1  and  C_2
REMARK    2  A    between atoms: C_2  and  C_3
REMARK    3  A    between atoms: C_7  and  C_8
REMARK    4  A    between atoms: C_8  and  N_9
REMARK    5  A    between atoms: C_15  and  C_16
REMARK                            x       y       z     vdW  Elec       q    Type
REMARK                         _______ _______ _______ _____ _____    ______ ____
ROOT
ATOM      1  N   UNL     1      47.000   5.003  14.426  0.00  0.00    +0.000 N 
ATOM      2  C   UNL     1      48.037   5.887  14.596  0.00  0.00    +0.000 A 
ATOM      3  C   UNL     1      48.121   6.667  13.464  0.00  0.00    +0.000 A 
ATOM      4  C   UNL     1      47.097   6.247  12.573  0.00  0.00    +0.000 A 
ATOM      5  C   UNL     1      46.715   6.648  11.279  0.00  0.00    +0.000 A 
ATOM      6  C   UNL     1      45.646   6.004  10.643  0.00  0.00    +0.000 A 
ATOM      7  C   UNL     1      44.937   4.981  11.281  0.00  0.00    +0.000 A 
ATOM      8  C   UNL     1      45.296   4.587  12.585  0.00  0.00    +0.000 A 
ATOM      9  C   UNL     1      46.392   5.218  13.201  0.00  0.00    +0.000 A 
ENDROOT
BRANCH   7  10
ATOM     10  C   UNL     1      43.805   4.269  10.578  0.00  0.00    +0.000 C 
ATOM     11  F   UNL     1      43.802   2.920  10.771  0.00  0.00    +0.000 F 
ATOM     12  F   UNL     1      42.583   4.705  10.993  0.00  0.00    +0.000 F 
ATOM     13  F   UNL     1      43.828   4.453   9.228  0.00  0.00    +0.000 F 
ENDBRANCH   7  10
BRANCH   1  14
ATOM     14  C   UNL     1      46.676   3.929  15.363  0.00  0.00    +0.000 C 
BRANCH  14  19
ATOM     15  C   UNL     1      48.990   3.856  18.403  0.00  0.00    +0.000 A 
ATOM     16  C   UNL     1      49.876   2.868  17.971  0.00  0.00    +0.000 A 
ATOM     17  C   UNL     1      49.658   2.277  16.741  0.00  0.00    +0.000 A 
ATOM     18  N   UNL     1      48.643   2.615  15.915  0.00  0.00    +0.000 NA
ATOM     19  C   UNL     1      47.790   3.590  16.323  0.00  0.00    +0.000 A 
ATOM     20  C   UNL     1      47.918   4.197  17.572  0.00  0.00    +0.000 A 
BRANCH  15  21
ATOM     21  C   UNL     1      49.194   4.560  19.719  0.00  0.00    +0.000 C 
BRANCH  21  22
ATOM     22  N   UNL     1      48.448   3.904  20.785  0.00  0.00    +0.000 NA
ATOM     23  H   UNL     1      47.959   3.098  20.402  0.00  0.00    +0.000 HD
ATOM     24  H   UNL     1      47.727   4.542  21.122  0.00  0.00    +0.000 HD
ENDBRANCH  21  22
ENDBRANCH  15  21
ENDBRANCH  14  19
ENDBRANCH   1  14
TORSDOF 5
ENDMDL
MODEL 6
REMARK VINA RESULT:    -6.541      2.735      3.823
REMARK INTER + INTRA:          -8.669
REMARK INTER:                  -7.983
REMARK INTRA:                  -0.686
REMARK UNBOUND:                -0.407
REMARK  Name = 
REMARK  5 active torsions:
REMARK  status: ('A' for Active; 'I' for Inactive)
REMARK    1  A    between atoms: N_1  and  C_2
REMARK    2  A    between atoms: C_2  and  C_3
REMARK    3  A    between atoms: C_7  and  C_8
REMARK    4  A    between atoms: C_8  and  N_9
REMARK    5  A    between atoms: C_15  and  C_16
REMARK                            x       y       z     vdW  Elec       q    Type
REMARK                         _______ _______ _______ _____ _____    ______ ____
ROOT
ATOM      1  N   UNL     1      45.143   6.464  11.974  0.00  0.00    +0.000 N 
ATOM      2  C   UNL     1      45.367   7.692  11.401  0.00  0.00    +0.000 A 
ATOM      3  C   UNL     1      46.463   8.255  12.017  0.00  0.00    +0.000 A 
ATOM      4  C   UNL     1      46.926   7.337  12.998  0.00  0.00    +0.000 A 
ATOM      5  C   UNL     1      47.973   7.372  13.937  0.00  0.00    +0.000 A 
ATOM      6  C   UNL     1      48.162   6.286  14.802  0.00  0.00    +0.000 A 
ATOM      7  C   UNL     1      47.338   5.158  14.734  0.00  0.00    +0.000 A 
ATOM      8  C   UNL     1      46.301   5.103  13.783  0.00  0.00    +0.000 A 
ATOM      9  C   UNL     1      46.100   6.213  12.942  0.00  0.00    +0.000 A 
ENDROOT
BRANCH   7  10
ATOM     10  C   UNL     1      47.526   4.004  15.691  0.00  0.00    +0.000 C 
ATOM     11  F   UNL     1      48.647   4.105  16.458  0.00  0.00    +0.000 F 
ATOM     12  F   UNL     1      46.488   3.882  16.565  0.00  0.00    +0.000 F 
ATOM     13  F   UNL     1      47.618   2.803  15.052  0.00  0.00    +0.000 F 
ENDBRANCH   7  10
BRANCH   1  14
ATOM     14  C   UNL     1      43.993   5.615  11.669  0.00  0.00    +0.000 C 
BRANCH  14  19
ATOM     15  C   UNL     1      45.167   3.527   8.692  0.00  0.00    +0.000 A 
ATOM     16  C   UNL     1      44.805   2.264   9.164  0.00  0.00    +0.000 A 
ATOM     17  C   UNL     1      44.227   2.166  10.415  0.00  0.00    +0.000 A 
ATOM     18  N   UNL     1      43.969   3.230  11.209  0.00  0.00    +0.000 NA
ATOM     19  C   UNL     1      44.303   4.463  10.745  0.00  0.00    +0.000 A 
ATOM     20  C   UNL     1      44.934   4.635   9.514  0.00  0.00    +0.000 A 
BRANCH  15  21
ATOM     21  C   UNL     1      45.771   3.700   7.323  0.00  0.00    +0.000 C 
BRANCH  21  22
ATOM     22  N   UNL     1      47.014   4.458   7.391  0.00  0.00    +0.000 NA
ATOM     23  H   UNL     1      47.563   4.126   8.181  0.00  0.00    +0.000 HD
ATOM     24  H   UNL     1      46.793   5.435   7.587  0.00  0.00    +0.000 HD
ENDBRANCH  21  22
ENDBRANCH  15  21
ENDBRANCH  14  19
ENDBRANCH   1  14
TORSDOF 5
ENDMDL
MODEL 7
REMARK VINA RESULT:    -6.510      2.394      3.175
REMARK INTER + INTRA:          -8.630
REMARK INTER:                  -7.999
REMARK INTRA:                  -0.630
REMARK UNBOUND:                -0.407
REMARK  Name = 
REMARK  5 active torsions:
REMARK  status: ('A' for Active; 'I' for Inactive)
REMARK    1  A    between atoms: N_1  and  C_2
REMARK    2  A    between atoms: C_2  and  C_3
REMARK    3  A    between atoms: C_7  and  C_8
REMARK    4  A    between atoms: C_8  and  N_9
REMARK    5  A    between atoms: C_15  and  C_16
REMARK                            x       y       z     vdW  Elec       q    Type
REMARK                         _______ _______ _______ _____ _____    ______ ____
ROOT
ATOM      1  N   UNL     1      44.972   5.440  12.085  0.00  0.00    +0.000 N 
ATOM      2  C   UNL     1      45.800   4.598  12.789  0.00  0.00    +0.000 A 
ATOM      3  C   UNL     1      46.765   5.366  13.402  0.00  0.00    +0.000 A 
ATOM      4  C   UNL     1      46.517   6.724  13.064  0.00  0.00    +0.000 A 
ATOM      5  C   UNL     1      47.171   7.932  13.368  0.00  0.00    +0.000 A 
ATOM      6  C   UNL     1      46.676   9.135  12.850  0.00  0.00    +0.000 A 
ATOM      7  C   UNL     1      45.529   9.159  12.050  0.00  0.00    +0.000 A 
ATOM      8  C   UNL     1      44.853   7.959  11.757  0.00  0.00    +0.000 A 
ATOM      9  C   UNL     1      45.378   6.752  12.256  0.00  0.00    +0.000 A 
ENDROOT
BRANCH   7  10
ATOM     10  C   UNL     1      45.017  10.456  11.468  0.00  0.00    +0.000 C 
ATOM     11  F   UNL     1      44.807  10.408  10.122  0.00  0.00    +0.000 F 
ATOM     12  F   UNL     1      43.829  10.836  12.016  0.00  0.00    +0.000 F 
ATOM     13  F   UNL     1      45.873  11.497  11.675  0.00  0.00    +0.000 F 
ENDBRANCH   7  10
BRANCH   1  14
ATOM     14  C   UNL     1      43.899   4.985  11.204  0.00  0.00    +0.000 C 
BRANCH  14  19
ATOM     15  C   UNL     1      45.509   3.165   8.255  0.00  0.00    +0.000 A 
ATOM     16  C   UNL     1      44.997   1.888   8.490  0.00  0.00    +0.000 A 
ATOM     17  C   UNL     1      44.186   1.693   9.591  0.00  0.00    +0.000 A 
ATOM     18  N   UNL     1      43.838   2.677  10.452  0.00  0.00    +0.000 NA
ATOM     19  C   UNL     1      44.318   3.926  10.215  0.00  0.00    +0.000 A 
ATOM     20  C   UNL     1      45.182   4.187   9.152  0.00  0.00    +0.000 A 
BRANCH  15  21
ATOM     21  C   UNL     1      46.372   3.447   7.053  0.00  0.00    +0.000 C 
BRANCH  21  22
ATOM     22  N   UNL     1      47.152   4.663   7.241  0.00  0.00    +0.000 NA
ATOM     23  H   UNL     1      48.133   4.416   7.350  0.00  0.00    +0.000 HD
ATOM     24  H   UNL     1      46.869   5.102   8.118  0.00  0.00    +0.000 HD
ENDBRANCH  21  22
ENDBRANCH  15  21
ENDBRANCH  14  19
ENDBRANCH   1  14
TORSDOF 5
ENDMDL
MODEL 8
REMARK VINA RESULT:    -6.405      4.683      7.823
REMARK INTER + INTRA:          -8.496
REMARK INTER:                  -7.760
REMARK INTRA:                  -0.736
REMARK UNBOUND:                -0.407
REMARK  Name = 
REMARK  5 active torsions:
REMARK  status: ('A' for Active; 'I' for Inactive)
REMARK    1  A    between atoms: N_1  and  C_2
REMARK    2  A    between atoms: C_2  and  C_3
REMARK    3  A    between atoms: C_7  and  C_8
REMARK    4  A    between atoms: C_8  and  N_9
REMARK    5  A    between atoms: C_15  and  C_16
REMARK                            x       y       z     vdW  Elec       q    Type
REMARK                         _______ _______ _______ _____ _____    ______ ____
ROOT
ATOM      1  N   UNL     1      47.550   7.499  13.625  0.00  0.00    +0.000 N 
ATOM      2  C   UNL     1      47.270   8.831  13.440  0.00  0.00    +0.000 A 
ATOM      3  C   UNL     1      46.098   8.923  12.723  0.00  0.00    +0.000 A 
ATOM      4  C   UNL     1      45.644   7.602  12.464  0.00  0.00    +0.000 A 
ATOM      5  C   UNL     1      44.539   7.077  11.768  0.00  0.00    +0.000 A 
ATOM      6  C   UNL     1      44.379   5.689  11.671  0.00  0.00    +0.000 A 
ATOM      7  C   UNL     1      45.290   4.814  12.273  0.00  0.00    +0.000 A 
ATOM      8  C   UNL     1      46.386   5.328  12.992  0.00  0.00    +0.000 A 
ATOM      9  C   UNL     1      46.555   6.724  13.054  0.00  0.00    +0.000 A 
ENDROOT
BRANCH   7  10
ATOM     10  C   UNL     1      45.129   3.318  12.139  0.00  0.00    +0.000 C 
ATOM     11  F   UNL     1      46.025   2.602  12.875  0.00  0.00    +0.000 F 
ATOM     12  F   UNL     1      43.897   2.892  12.536  0.00  0.00    +0.000 F 
ATOM     13  F   UNL     1      45.275   2.888  10.854  0.00  0.00    +0.000 F 
ENDBRANCH   7  10
BRANCH   1  14
ATOM     14  C   UNL     1      48.778   6.997  14.237  0.00  0.00    +0.000 C 
BRANCH  14  19
ATOM     15  C   UNL     1      48.282   5.144  17.542  0.00  0.00    +0.000 A 
ATOM     16  C   UNL     1      48.436   6.223  18.414  0.00  0.00    +0.000 A 
ATOM     17  C   UNL     1      48.710   7.469  17.883  0.00  0.00    +0.000 A 
ATOM     18  N   UNL     1      48.818   7.713  16.557  0.00  0.00    +0.000 NA
ATOM     19  C   UNL     1      48.649   6.669  15.704  0.00  0.00    +0.000 A 
ATOM     20  C   UNL     1      48.419   5.375  16.169  0.00  0.00    +0.000 A 
BRANCH  15  21
ATOM     21  C   UNL     1      47.950   3.769  18.059  0.00  0.00    +0.000 C 
BRANCH  21  22
ATOM     22  N   UNL     1      46.775   3.227  17.389  0.00  0.00    +0.000 NA
ATOM     23  H   UNL     1      46.036   3.927  17.395  0.00  0.00    +0.000 HD
ATOM     24  H   UNL     1      46.423   2.437  17.931  0.00  0.00    +0.000 HD
ENDBRANCH  21  22
ENDBRANCH  15  21
ENDBRANCH  14  19
ENDBRANCH   1  14
TORSDOF 5
ENDMDL
MODEL 9
REMARK VINA RESULT:    -6.225      2.781      5.175
REMARK INTER + INTRA:          -8.269
REMARK INTER:                  -7.630
REMARK INTRA:                  -0.639
REMARK UNBOUND:                -0.407
REMARK  Name = 
REMARK  5 active torsions:
REMARK  status: ('A' for Active; 'I' for Inactive)
REMARK    1  A    between atoms: N_1  and  C_2
REMARK    2  A    between atoms: C_2  and  C_3
REMARK    3  A    between atoms: C_7  and  C_8
REMARK    4  A    between atoms: C_8  and  N_9
REMARK    5  A    between atoms: C_15  and  C_16
REMARK                            x       y       z     vdW  Elec       q    Type
REMARK                         _______ _______ _______ _____ _____    ______ ____
ROOT
ATOM      1  N   UNL     1      46.345   8.099  12.621  0.00  0.00    +0.000 N 
ATOM      2  C   UNL     1      45.347   9.043  12.604  0.00  0.00    +0.000 A 
ATOM      3  C   UNL     1      45.882  10.218  12.125  0.00  0.00    +0.000 A 
ATOM      4  C   UNL     1      47.253   9.983  11.835  0.00  0.00    +0.000 A 
ATOM      5  C   UNL     1      48.294  10.798  11.354  0.00  0.00    +0.000 A 
ATOM      6  C   UNL     1      49.576  10.259  11.192  0.00  0.00    +0.000 A 
ATOM      7  C   UNL     1      49.836   8.915  11.482  0.00  0.00    +0.000 A 
ATOM      8  C   UNL     1      48.796   8.084  11.942  0.00  0.00    +0.000 A 
ATOM      9  C   UNL     1      47.520   8.645  12.132  0.00  0.00    +0.000 A 
ENDROOT
BRANCH   7  10
ATOM     10  C   UNL     1      51.227   8.346  11.335  0.00  0.00    +0.000 C 
ATOM     11  F   UNL     1      51.258   7.118  10.746  0.00  0.00    +0.000 F 
ATOM     12  F   UNL     1      52.034   9.141  10.578  0.00  0.00    +0.000 F 
ATOM     13  F   UNL     1      51.864   8.202  12.532  0.00  0.00    +0.000 F 
ENDBRANCH   7  10
BRANCH   1  14
ATOM     14  C   UNL     1      46.195   6.757  13.181  0.00  0.00    +0.000 C 
BRANCH  14  19
ATOM     15  C   UNL     1      44.239   4.715  10.610  0.00  0.00    +0.000 A 
ATOM     16  C   UNL     1      43.131   4.394  11.395  0.00  0.00    +0.000 A 
ATOM     17  C   UNL     1      43.096   4.837  12.703  0.00  0.00    +0.000 A 
ATOM     18  N   UNL     1      44.069   5.587  13.268  0.00  0.00    +0.000 NA
ATOM     19  C   UNL     1      45.140   5.919  12.502  0.00  0.00    +0.000 A 
ATOM     20  C   UNL     1      45.268   5.466  11.189  0.00  0.00    +0.000 A 
BRANCH  15  21
ATOM     21  C   UNL     1      44.320   4.289   9.168  0.00  0.00    +0.000 C 
BRANCH  21  22
ATOM     22  N   UNL     1      45.508   4.834   8.526  0.00  0.00    +0.000 NA
ATOM     23  H   UNL     1      45.308   5.777   8.201  0.00  0.00    +0.000 HD
ATOM     24  H   UNL     1      45.713   4.283   7.691  0.00  0.00    +0.000 HD
ENDBRANCH  21  22
ENDBRANCH  15  21
ENDBRANCH  14  19
ENDBRANCH   1  14
TORSDOF 5
ENDMDL
