MODEL 1
REMARK VINA RESULT:    -8.488      0.000      0.000
REMARK INTER + INTRA:         -11.520
REMARK INTER:                 -10.721
REMARK INTRA:                  -0.798
REMARK UNBOUND:                -0.798
REMARK  Name = 
REMARK  5 active torsions:
REMARK  status: ('A' for Active; 'I' for Inactive)
REMARK    1  A    between atoms: C_2  and  C_4
REMARK    2  A    between atoms: C_7  and  N_8
REMARK    3  A    between atoms: N_8  and  C_9
REMARK    4  A    between atoms: C_9  and  C_10
REMARK    5  A    between atoms: C_18  and  O_19
REMARK                            x       y       z     vdW  Elec       q    Type
REMARK                         _______ _______ _______ _____ _____    ______ ____
ROOT
ATOM      1  C   UNL     1      43.721   4.698  11.470  0.00  0.00    +0.000 C 
ENDROOT
BRANCH   1   2
ATOM      2  C   UNL     1      45.050   4.842  12.157  0.00  0.00    +0.000 A 
ATOM      3  C   UNL     1      45.546   3.837  12.987  0.00  0.00    +0.000 A 
ATOM      4  C   UNL     1      46.767   4.043  13.597  0.00  0.00    +0.000 A 
ATOM      5  N   UNL     1      47.519   5.144  13.421  0.00  0.00    +0.000 NA
ATOM      6  C   UNL     1      47.047   6.127  12.619  0.00  0.00    +0.000 A 
ATOM      7  N   UNL     1      47.826   7.248  12.452  0.00  0.00    +0.000 N 
ATOM      8  C   UNL     1      47.269   8.563  12.199  0.00  0.00    +0.000 C 
ATOM      9  C   UNL     1      47.898   9.568  13.163  0.00  0.00    +0.000 C 
ATOM     10  C   UNL     1      49.425   9.485  13.173  0.00  0.00    +0.000 C 
ATOM     11  C   UNL     1      49.932   8.057  13.370  0.00  0.00    +0.000 C 
ATOM     12  C   UNL     1      49.268   7.077  12.412  0.00  0.00    +0.000 C 
ATOM     13  C   UNL     1      45.817   5.995  11.990  0.00  0.00    +0.000 A 
BRANCH  10  14
ATOM     14  O   UNL     1      49.961  10.055  11.978  0.00  0.00    +0.000 OA
ATOM     15  H   UNL     1      49.323  10.692  11.620  0.00  0.00    +0.000 HD
ENDBRANCH  10  14
ENDBRANCH   1   2
BRANCH   1  16
ATOM     16  N   UNL     1      43.838   4.916  10.037  0.00  0.00    +0.000 N 
ATOM     17  H   UNL     1      42.983   5.222   9.577  0.00  0.00    +0.000 HD
BRANCH  16  21
ATOM     18  C   UNL     1      46.337   2.290   7.852  0.00  0.00    +0.000 A 
ATOM     19  C   UNL     1      45.377   1.771   8.721  0.00  0.00    +0.000 A 
ATOM     20  C   UNL     1      44.536   2.634   9.430  0.00  0.00    +0.000 A 
ATOM     21  C   UNL     1      44.597   4.025   9.269  0.00  0.00    +0.000 A 
ATOM     22  C   UNL     1      45.566   4.530   8.387  0.00  0.00    +0.000 A 
ATOM     23  C   UNL     1      46.431   3.674   7.687  0.00  0.00    +0.000 A 
BRANCH  18  25
ATOM     24  N   UNL     1      48.379   2.000   6.557  0.00  0.00    +0.000 N 
ATOM     25  C   UNL     1      47.310   1.401   7.169  0.00  0.00    +0.000 C 
ATOM     26  O   UNL     1      47.175   0.186   7.158  0.00  0.00    +0.000 OA
ATOM     27  H   UNL     1      49.065   1.385   6.137  0.00  0.00    +0.000 HD
ATOM     28  H   UNL     1      48.649   2.955   6.740  0.00  0.00    +0.000 HD
ENDBRANCH  18  25
ENDBRANCH  16  21
ENDBRANCH   1  16
TORSDOF 5
ENDMDL
MODEL 2
REMARK VINA RESULT:    -8.386      2.695      3.635
REMARK INTER + INTRA:         -11.391
REMARK INTER:                 -10.853
REMARK INTRA:                  -0.538
REMARK UNBOUND:                -0.798
REMARK  Name = 
REMARK  5 active torsions:
REMARK  status: ('A' for Active; 'I' for Inactive)
REMARK    1  A    between atoms: C_2  and  C_4
REMARK    2  A    between atoms: C_7  and  N_8
REMARK    3  A    between atoms: N_8  and  C_9
REMARK    4  A    between atoms: C_9  and  C_10
REMARK    5  A    between atoms: C_18  and  O_19
REMARK                            x       y       z     vdW  Elec       q    Type
REMARK                         _______ _______ _______ _____ _____    ______ ____
ROOT
ATOM      1  C   UNL     1      44.500   4.988  11.662  0.00  0.00    +0.000 C 
ENDROOT
BRANCH   1   2
ATOM      2  C   UNL     1      45.781   5.408  12.325  0.00  0.00    +0.000 A 
ATOM      3  C   UNL     1      46.682   6.257  11.681  0.00  0.00    +0.000 A 
ATOM      4  C   UNL     1      47.847   6.589  12.344  0.00  0.00    +0.000 A 
ATOM      5  N   UNL     1      48.155   6.163  13.582  0.00  0.00    +0.000 NA
ATOM      6  C   UNL     1      47.290   5.336  14.214  0.00  0.00    +0.000 A 
ATOM      7  N   UNL     1      47.621   4.907  15.478  0.00  0.00    +0.000 N 
ATOM      8  C   UNL     1      47.202   3.624  16.008  0.00  0.00    +0.000 C 
ATOM      9  C   UNL     1      48.415   2.904  16.597  0.00  0.00    +0.000 C 
ATOM     10  C   UNL     1      49.207   3.791  17.558  0.00  0.00    +0.000 C 
ATOM     11  C   UNL     1      49.545   5.153  16.952  0.00  0.00    +0.000 C 
ATOM     12  C   UNL     1      48.321   5.833  16.353  0.00  0.00    +0.000 C 
ATOM     13  C   UNL     1      46.109   4.946  13.599  0.00  0.00    +0.000 A 
BRANCH  10  14
ATOM     14  O   UNL     1      48.500   3.945  18.789  0.00  0.00    +0.000 OA
ATOM     15  H   UNL     1      47.847   4.656  18.690  0.00  0.00    +0.000 HD
ENDBRANCH  10  14
ENDBRANCH   1   2
BRANCH   1  16
ATOM     16  N   UNL     1      44.532   5.248  10.231  0.00  0.00    +0.000 N 
ATOM     17  H   UNL     1      43.696   5.689   9.856  0.00  0.00    +0.000 HD
BRANCH  16  21
ATOM     18  C   UNL     1      46.455   2.416   7.742  0.00  0.00    +0.000 A 
ATOM     19  C   UNL     1      45.620   1.981   8.771  0.00  0.00    +0.000 A 
ATOM     20  C   UNL     1      44.967   2.912   9.583  0.00  0.00    +0.000 A 
ATOM     21  C   UNL     1      45.093   4.293   9.375  0.00  0.00    +0.000 A 
ATOM     22  C   UNL     1      45.934   4.713   8.332  0.00  0.00    +0.000 A 
ATOM     23  C   UNL     1      46.613   3.787   7.525  0.00  0.00    +0.000 A 
BRANCH  18  25
ATOM     24  N   UNL     1      48.250   1.958   6.162  0.00  0.00    +0.000 N 
ATOM     25  C   UNL     1      47.241   1.449   6.935  0.00  0.00    +0.000 C 
ATOM     26  O   UNL     1      47.008   0.249   6.960  0.00  0.00    +0.000 OA
ATOM     27  H   UNL     1      48.814   1.288   5.653  0.00  0.00    +0.000 HD
ATOM     28  H   UNL     1      48.620   2.888   6.289  0.00  0.00    +0.000 HD
ENDBRANCH  18  25
ENDBRANCH  16  21
ENDBRANCH   1  16
TORSDOF 5
ENDMDL
MODEL 3
REMARK VINA RESULT:    -6.703      4.076      7.929
REMARK INTER + INTRA:          -9.264
REMARK INTER:                  -8.711
REMARK INTRA:                  -0.553
REMARK UNBOUND:                -0.798
REMARK  Name = 
REMARK  5 active torsions:
REMARK  status: ('A' for Active; 'I' for Inactive)
REMARK    1  A    between atoms: C_2  and  C_4
REMARK    2  A    between atoms: C_7  and  N_8
REMARK    3  A    between atoms: N_8  and  C_9
REMARK    4  A    between atoms: C_9  and  C_10
REMARK    5  A    between atoms: C_18  and  O_19
REMARK                            x       y       z     vdW  Elec       q    Type
REMARK                         _______ _______ _______ _____ _____    ______ ____
ROOT
ATOM      1  C   UNL     1      48.715   7.382  14.911  0.00  0.00    +0.000 C 
ENDROOT
BRANCH   1   2
ATOM      2  C   UNL     1      47.589   7.407  13.917  0.00  0.00    +0.000 A 
ATOM      3  C   UNL     1      46.993   8.607  13.532  0.00  0.00    +0.000 A 
ATOM      4  C   UNL     1      45.953   8.554  12.625  0.00  0.00    +0.000 A 
ATOM      5  N   UNL     1      45.496   7.416  12.071  0.00  0.00    +0.000 NA
ATOM      6  C   UNL     1      46.066   6.245  12.439  0.00  0.00    +0.000 A 
ATOM      7  N   UNL     1      45.587   5.090  11.867  0.00  0.00    +0.000 N 
ATOM      8  C   UNL     1      45.602   3.809  12.547  0.00  0.00    +0.000 C 
ATOM      9  C   UNL     1      44.215   3.174  12.450  0.00  0.00    +0.000 C 
ATOM     10  C   UNL     1      43.683   3.157  11.016  0.00  0.00    +0.000 C 
ATOM     11  C   UNL     1      43.771   4.527  10.344  0.00  0.00    +0.000 C 
ATOM     12  C   UNL     1      45.157   5.143  10.480  0.00  0.00    +0.000 C 
ATOM     13  C   UNL     1      47.103   6.224  13.362  0.00  0.00    +0.000 A 
BRANCH  10  14
ATOM     14  O   UNL     1      44.366   2.168  10.245  0.00  0.00    +0.000 OA
ATOM     15  H   UNL     1      45.103   1.815  10.768  0.00  0.00    +0.000 HD
ENDBRANCH  10  14
ENDBRANCH   1   2
BRANCH   1  16
ATOM     16  N   UNL     1      48.306   6.763  16.162  0.00  0.00    +0.000 N 
ATOM     17  H   UNL     1      48.016   7.412  16.889  0.00  0.00    +0.000 HD
BRANCH  16  21
ATOM     18  C   UNL     1      50.481   3.347  17.394  0.00  0.00    +0.000 A 
ATOM     19  C   UNL     1      51.098   4.598  17.390  0.00  0.00    +0.000 A 
ATOM     20  C   UNL     1      50.378   5.732  17.003  0.00  0.00    +0.000 A 
ATOM     21  C   UNL     1      49.024   5.663  16.648  0.00  0.00    +0.000 A 
ATOM     22  C   UNL     1      48.418   4.397  16.660  0.00  0.00    +0.000 A 
ATOM     23  C   UNL     1      49.137   3.248  17.025  0.00  0.00    +0.000 A 
BRANCH  18  25
ATOM     24  N   UNL     1      52.349   2.250  18.507  0.00  0.00    +0.000 N 
ATOM     25  C   UNL     1      51.252   2.115  17.697  0.00  0.00    +0.000 C 
ATOM     26  O   UNL     1      50.924   1.024  17.255  0.00  0.00    +0.000 OA
ATOM     27  H   UNL     1      52.840   1.399  18.750  0.00  0.00    +0.000 HD
ATOM     28  H   UNL     1      52.514   3.069  19.071  0.00  0.00    +0.000 HD
ENDBRANCH  18  25
ENDBRANCH  16  21
ENDBRANCH   1  16
TORSDOF 5
ENDMDL
MODEL 4
REMARK VINA RESULT:    -6.517      3.563      5.437
REMARK INTER + INTRA:          -9.029
REMARK INTER:                  -8.424
REMARK INTRA:                  -0.605
REMARK UNBOUND:                -0.798
REMARK  Name = 
REMARK  5 active torsions:
REMARK  status: ('A' for Active; 'I' for Inactive)
REMARK    1  A    between atoms: C_2  and  C_4
REMARK    2  A    between atoms: C_7  and  N_8
REMARK    3  A    between atoms: N_8  and  C_9
REMARK    4  A    between atoms: C_9  and  C_10
REMARK    5  A    between atoms: C_18  and  O_19
REMARK                            x       y       z     vdW  Elec       q    Type
REMARK                         _______ _______ _______ _____ _____    ______ ____
ROOT
ATOM      1  C   UNL     1      47.169   8.366  12.988  0.00  0.00    +0.000 C 
ENDROOT
BRANCH   1   2
ATOM      2  C   UNL     1      48.266   7.828  13.862  0.00  0.00    +0.000 A 
ATOM      3  C   UNL     1      49.580   8.275  13.728  0.00  0.00    +0.000 A 
ATOM      4  C   UNL     1      50.540   7.725  14.555  0.00  0.00    +0.000 A 
ATOM      5  N   UNL     1      50.280   6.802  15.498  0.00  0.00    +0.000 NA
ATOM      6  C   UNL     1      49.008   6.359  15.635  0.00  0.00    +0.000 A 
ATOM      7  N   UNL     1      48.759   5.413  16.602  0.00  0.00    +0.000 N 
ATOM      8  C   UNL     1      47.708   4.421  16.480  0.00  0.00    +0.000 C 
ATOM      9  C   UNL     1      48.287   3.039  16.781  0.00  0.00    +0.000 C 
ATOM     10  C   UNL     1      49.075   3.012  18.091  0.00  0.00    +0.000 C 
ATOM     11  C   UNL     1      50.110   4.134  18.174  0.00  0.00    +0.000 C 
ATOM     12  C   UNL     1      49.508   5.493  17.845  0.00  0.00    +0.000 C 
ATOM     13  C   UNL     1      47.997   6.854  14.824  0.00  0.00    +0.000 A 
BRANCH  10  14
ATOM     14  O   UNL     1      48.185   3.059  19.207  0.00  0.00    +0.000 OA
ATOM     15  H   UNL     1      47.681   3.888  19.173  0.00  0.00    +0.000 HD
ENDBRANCH  10  14
ENDBRANCH   1   2
BRANCH   1  16
ATOM     16  N   UNL     1      45.889   7.748  13.299  0.00  0.00    +0.000 N 
ATOM     17  H   UNL     1      45.744   7.530  14.282  0.00  0.00    +0.000 HD
BRANCH  16  21
ATOM     18  C   UNL     1      44.515   4.689  10.717  0.00  0.00    +0.000 A 
ATOM     19  C   UNL     1      43.861   4.921  11.927  0.00  0.00    +0.000 A 
ATOM     20  C   UNL     1      44.299   5.943  12.774  0.00  0.00    +0.000 A 
ATOM     21  C   UNL     1      45.367   6.783  12.430  0.00  0.00    +0.000 A 
ATOM     22  C   UNL     1      46.011   6.538  11.207  0.00  0.00    +0.000 A 
ATOM     23  C   UNL     1      45.595   5.500  10.359  0.00  0.00    +0.000 A 
BRANCH  18  25
ATOM     24  N   UNL     1      44.189   3.743   8.497  0.00  0.00    +0.000 N 
ATOM     25  C   UNL     1      44.137   3.544   9.851  0.00  0.00    +0.000 C 
ATOM     26  O   UNL     1      43.801   2.466  10.319  0.00  0.00    +0.000 OA
ATOM     27  H   UNL     1      43.978   2.944   7.912  0.00  0.00    +0.000 HD
ATOM     28  H   UNL     1      44.675   4.521   8.077  0.00  0.00    +0.000 HD
ENDBRANCH  18  25
ENDBRANCH  16  21
ENDBRANCH   1  16
TORSDOF 5
ENDMDL
MODEL 5
REMARK VINA RESULT:    -6.194      4.537      6.078
REMARK INTER + INTRA:          -8.622
REMARK INTER:                  -8.125
REMARK INTRA:                  -0.497
REMARK UNBOUND:                -0.798
REMARK  Name = 
REMARK  5 active torsions:
REMARK  status: ('A' for Active; 'I' for Inactive)
REMARK    1  A    between atoms: C_2  and  C_4
REMARK    2  A    between atoms: C_7  and  N_8
REMARK    3  A    between atoms: N_8  and  C_9
REMARK    4  A    between atoms: C_9  and  C_10
REMARK    5  A    between atoms: C_18  and  O_19
REMARK                            x       y       z     vdW  Elec       q    Type
REMARK                         _______ _______ _______ _____ _____    ______ ____
ROOT
ATOM      1  C   UNL     1      48.609   7.057  13.244  0.00  0.00    +0.000 C 
ENDROOT
BRANCH   1   2
ATOM      2  C   UNL     1      48.577   7.496  14.680  0.00  0.00    +0.000 A 
ATOM      3  C   UNL     1      48.538   8.848  15.020  0.00  0.00    +0.000 A 
ATOM      4  C   UNL     1      48.525   9.179  16.361  0.00  0.00    +0.000 A 
ATOM      5  N   UNL     1      48.523   8.277  17.358  0.00  0.00    +0.000 NA
ATOM      6  C   UNL     1      48.563   6.962  17.039  0.00  0.00    +0.000 A 
ATOM      7  N   UNL     1      48.564   6.051  18.070  0.00  0.00    +0.000 N 
ATOM      8  C   UNL     1      49.210   4.756  17.975  0.00  0.00    +0.000 C 
ATOM      9  C   UNL     1      50.097   4.548  19.202  0.00  0.00    +0.000 C 
ATOM     10  C   UNL     1      49.355   4.825  20.510  0.00  0.00    +0.000 C 
ATOM     11  C   UNL     1      48.639   6.175  20.501  0.00  0.00    +0.000 C 
ATOM     12  C   UNL     1      47.784   6.361  19.256  0.00  0.00    +0.000 C 
ATOM     13  C   UNL     1      48.598   6.558  15.712  0.00  0.00    +0.000 A 
BRANCH  10  14
ATOM     14  O   UNL     1      48.439   3.767  20.795  0.00  0.00    +0.000 OA
ATOM     15  H   UNL     1      48.933   3.010  21.149  0.00  0.00    +0.000 HD
ENDBRANCH  10  14
ENDBRANCH   1   2
BRANCH   1  16
ATOM     16  N   UNL     1      47.327   7.279  12.591  0.00  0.00    +0.000 N 
ATOM     17  H   UNL     1      46.739   7.985  13.027  0.00  0.00    +0.000 HD
BRANCH  16  21
ATOM     18  C   UNL     1      44.968   4.029  11.253  0.00  0.00    +0.000 A 
ATOM     19  C   UNL     1      45.255   5.082  10.384  0.00  0.00    +0.000 A 
ATOM     20  C   UNL     1      46.051   6.148  10.815  0.00  0.00    +0.000 A 
ATOM     21  C   UNL     1      46.611   6.181  12.099  0.00  0.00    +0.000 A 
ATOM     22  C   UNL     1      46.315   5.112  12.960  0.00  0.00    +0.000 A 
ATOM     23  C   UNL     1      45.499   4.048  12.546  0.00  0.00    +0.000 A 
BRANCH  18  25
ATOM     24  N   UNL     1      44.448   2.115   9.841  0.00  0.00    +0.000 N 
ATOM     25  C   UNL     1      44.041   2.940  10.855  0.00  0.00    +0.000 C 
ATOM     26  O   UNL     1      42.964   2.777  11.409  0.00  0.00    +0.000 OA
ATOM     27  H   UNL     1      43.834   1.344   9.609  0.00  0.00    +0.000 HD
ATOM     28  H   UNL     1      45.405   2.068   9.525  0.00  0.00    +0.000 HD
ENDBRANCH  18  25
ENDBRANCH  16  21
ENDBRANCH   1  16
TORSDOF 5
ENDMDL
MODEL 6
REMARK VINA RESULT:    -5.998      5.345      8.410
REMARK INTER + INTRA:          -8.374
REMARK INTER:                  -7.899
REMARK INTRA:                  -0.475
REMARK UNBOUND:                -0.798
REMARK  Name = 
REMARK  5 active torsions:
REMARK  status: ('A' for Active; 'I' for Inactive)
REMARK    1  A    between atoms: C_2  and  C_4
REMARK    2  A    between atoms: C_7  and  N_8
REMARK    3  A    between atoms: N_8  and  C_9
REMARK    4  A    between atoms: C_9  and  C_10
REMARK    5  A    between atoms: C_18  and  O_19
REMARK                            x       y       z     vdW  Elec       q    Type
REMARK                         _______ _______ _______ _____ _____    ______ ____
ROOT
ATOM      1  C   UNL     1      48.212   4.262  17.088  0.00  0.00    +0.000 C 
ENDROOT
BRANCH   1   2
ATOM      2  C   UNL     1      47.957   5.110  15.875  0.00  0.00    +0.000 A 
ATOM      3  C   UNL     1      48.676   6.284  15.651  0.00  0.00    +0.000 A 
ATOM      4  C   UNL     1      48.379   7.022  14.522  0.00  0.00    +0.000 A 
ATOM      5  N   UNL     1      47.453   6.665  13.613  0.00  0.00    +0.000 NA
ATOM      6  C   UNL     1      46.748   5.529  13.822  0.00  0.00    +0.000 A 
ATOM      7  N   UNL     1      45.803   5.180  12.885  0.00  0.00    +0.000 N 
ATOM      8  C   UNL     1      44.601   4.440  13.218  0.00  0.00    +0.000 C 
ATOM      9  C   UNL     1      43.390   5.154  12.619  0.00  0.00    +0.000 C 
ATOM     10  C   UNL     1      43.581   5.477  11.136  0.00  0.00    +0.000 C 
ATOM     11  C   UNL     1      44.904   6.190  10.859  0.00  0.00    +0.000 C 
ATOM     12  C   UNL     1      46.087   5.467  11.489  0.00  0.00    +0.000 C 
ATOM     13  C   UNL     1      46.981   4.749  14.946  0.00  0.00    +0.000 A 
BRANCH  10  14
ATOM     14  O   UNL     1      43.470   4.290  10.351  0.00  0.00    +0.000 OA
ATOM     15  H   UNL     1      43.466   3.520  10.943  0.00  0.00    +0.000 HD
ENDBRANCH  10  14
ENDBRANCH   1   2
BRANCH   1  16
ATOM     16  N   UNL     1      49.513   4.549  17.673  0.00  0.00    +0.000 N 
ATOM     17  H   UNL     1      49.857   5.493  17.514  0.00  0.00    +0.000 HD
BRANCH  16  21
ATOM     18  C   UNL     1      52.537   1.590  17.785  0.00  0.00    +0.000 A 
ATOM     19  C   UNL     1      51.267   1.266  17.308  0.00  0.00    +0.000 A 
ATOM     20  C   UNL     1      50.271   2.245  17.250  0.00  0.00    +0.000 A 
ATOM     21  C   UNL     1      50.515   3.573  17.626  0.00  0.00    +0.000 A 
ATOM     22  C   UNL     1      51.800   3.882  18.101  0.00  0.00    +0.000 A 
ATOM     23  C   UNL     1      52.802   2.903  18.184  0.00  0.00    +0.000 A 
BRANCH  18  25
ATOM     24  N   UNL     1      53.190  -0.637  18.523  0.00  0.00    +0.000 N 
ATOM     25  C   UNL     1      53.579   0.547  17.955  0.00  0.00    +0.000 C 
ATOM     26  O   UNL     1      54.735   0.726  17.598  0.00  0.00    +0.000 OA
ATOM     27  H   UNL     1      53.893  -1.362  18.590  0.00  0.00    +0.000 HD
ATOM     28  H   UNL     1      52.222  -0.908  18.611  0.00  0.00    +0.000 HD
ENDBRANCH  18  25
ENDBRANCH  16  21
ENDBRANCH   1  16
TORSDOF 5
ENDMDL
MODEL 7
REMARK VINA RESULT:    -5.978      4.199      8.602
REMARK INTER + INTRA:          -8.349
REMARK INTER:                  -7.778
REMARK INTRA:                  -0.571
REMARK UNBOUND:                -0.798
REMARK  Name = 
REMARK  5 active torsions:
REMARK  status: ('A' for Active; 'I' for Inactive)
REMARK    1  A    between atoms: C_2  and  C_4
REMARK    2  A    between atoms: C_7  and  N_8
REMARK    3  A    between atoms: N_8  and  C_9
REMARK    4  A    between atoms: C_9  and  C_10
REMARK    5  A    between atoms: C_18  and  O_19
REMARK                            x       y       z     vdW  Elec       q    Type
REMARK                         _______ _______ _______ _____ _____    ______ ____
ROOT
ATOM      1  C   UNL     1      48.803   7.760  14.488  0.00  0.00    +0.000 C 
ENDROOT
BRANCH   1   2
ATOM      2  C   UNL     1      47.578   7.711  13.620  0.00  0.00    +0.000 A 
ATOM      3  C   UNL     1      46.908   8.878  13.251  0.00  0.00    +0.000 A 
ATOM      4  C   UNL     1      45.780   8.757  12.464  0.00  0.00    +0.000 A 
ATOM      5  N   UNL     1      45.302   7.584  12.011  0.00  0.00    +0.000 NA
ATOM      6  C   UNL     1      45.943   6.445  12.365  0.00  0.00    +0.000 A 
ATOM      7  N   UNL     1      45.440   5.254  11.896  0.00  0.00    +0.000 N 
ATOM      8  C   UNL     1      45.566   4.006  12.625  0.00  0.00    +0.000 C 
ATOM      9  C   UNL     1      44.196   3.332  12.704  0.00  0.00    +0.000 C 
ATOM     10  C   UNL     1      43.516   3.237  11.337  0.00  0.00    +0.000 C 
ATOM     11  C   UNL     1      43.491   4.576  10.602  0.00  0.00    +0.000 C 
ATOM     12  C   UNL     1      44.864   5.233  10.562  0.00  0.00    +0.000 C 
ATOM     13  C   UNL     1      47.072   6.492  13.171  0.00  0.00    +0.000 A 
BRANCH  10  14
ATOM     14  O   UNL     1      44.143   2.231  10.540  0.00  0.00    +0.000 OA
ATOM     15  H   UNL     1      44.985   1.982  10.953  0.00  0.00    +0.000 HD
ENDBRANCH  10  14
ENDBRANCH   1   2
BRANCH   1  16
ATOM     16  N   UNL     1      48.481   8.198  15.837  0.00  0.00    +0.000 N 
ATOM     17  H   UNL     1      48.904   9.080  16.116  0.00  0.00    +0.000 HD
BRANCH  16  21
ATOM     18  C   UNL     1      48.577   5.316  18.936  0.00  0.00    +0.000 A 
ATOM     19  C   UNL     1      48.290   6.648  19.236  0.00  0.00    +0.000 A 
ATOM     20  C   UNL     1      48.237   7.599  18.213  0.00  0.00    +0.000 A 
ATOM     21  C   UNL     1      48.429   7.253  16.869  0.00  0.00    +0.000 A 
ATOM     22  C   UNL     1      48.715   5.908  16.585  0.00  0.00    +0.000 A 
ATOM     23  C   UNL     1      48.792   4.948  17.605  0.00  0.00    +0.000 A 
BRANCH  18  25
ATOM     24  N   UNL     1      48.380   3.020  19.723  0.00  0.00    +0.000 N 
ATOM     25  C   UNL     1      48.743   4.308  20.013  0.00  0.00    +0.000 C 
ATOM     26  O   UNL     1      49.191   4.606  21.110  0.00  0.00    +0.000 OA
ATOM     27  H   UNL     1      48.542   2.329  20.444  0.00  0.00    +0.000 HD
ATOM     28  H   UNL     1      48.232   2.693  18.780  0.00  0.00    +0.000 HD
ENDBRANCH  18  25
ENDBRANCH  16  21
ENDBRANCH   1  16
TORSDOF 5
ENDMDL
MODEL 8
REMARK VINA RESULT:    -5.869      4.630      5.754
REMARK INTER + INTRA:          -8.211
REMARK INTER:                  -7.826
REMARK INTRA:                  -0.385
REMARK UNBOUND:                -0.798
REMARK  Name = 
REMARK  5 active torsions:
REMARK  status: ('A' for Active; 'I' for Inactive)
REMARK    1  A    between atoms: C_2  and  C_4
REMARK    2  A    between atoms: C_7  and  N_8
REMARK    3  A    between atoms: N_8  and  C_9
REMARK    4  A    between atoms: C_9  and  C_10
REMARK    5  A    between atoms: C_18  and  O_19
REMARK                            x       y       z     vdW  Elec       q    Type
REMARK                         _______ _______ _______ _____ _____    ______ ____
ROOT
ATOM      1  C   UNL     1      47.148   3.917  15.434  0.00  0.00    +0.000 C 
ENDROOT
BRANCH   1   2
ATOM      2  C   UNL     1      47.741   4.200  16.785  0.00  0.00    +0.000 A 
ATOM      3  C   UNL     1      48.097   3.164  17.647  0.00  0.00    +0.000 A 
ATOM      4  C   UNL     1      48.623   3.497  18.880  0.00  0.00    +0.000 A 
ATOM      5  N   UNL     1      48.836   4.761  19.289  0.00  0.00    +0.000 NA
ATOM      6  C   UNL     1      48.492   5.774  18.461  0.00  0.00    +0.000 A 
ATOM      7  N   UNL     1      48.712   7.061  18.895  0.00  0.00    +0.000 N 
ATOM      8  C   UNL     1      47.888   8.181  18.486  0.00  0.00    +0.000 C 
ATOM      9  C   UNL     1      47.461   8.968  19.725  0.00  0.00    +0.000 C 
ATOM     10  C   UNL     1      48.643   9.310  20.632  0.00  0.00    +0.000 C 
ATOM     11  C   UNL     1      49.504   8.090  20.955  0.00  0.00    +0.000 C 
ATOM     12  C   UNL     1      49.893   7.315  19.703  0.00  0.00    +0.000 C 
ATOM     13  C   UNL     1      47.939   5.511  17.215  0.00  0.00    +0.000 A 
BRANCH  10  14
ATOM     14  O   UNL     1      49.432  10.348  20.049  0.00  0.00    +0.000 OA
ATOM     15  H   UNL     1      49.008  11.203  20.228  0.00  0.00    +0.000 HD
ENDBRANCH  10  14
ENDBRANCH   1   2
BRANCH   1  16
ATOM     16  N   UNL     1      46.792   5.146  14.741  0.00  0.00    +0.000 N 
ATOM     17  H   UNL     1      46.326   5.844  15.315  0.00  0.00    +0.000 HD
BRANCH  16  21
ATOM     18  C   UNL     1      45.532   4.926  10.706  0.00  0.00    +0.000 A 
ATOM     19  C   UNL     1      45.328   3.839  11.557  0.00  0.00    +0.000 A 
ATOM     20  C   UNL     1      45.724   3.915  12.896  0.00  0.00    +0.000 A 
ATOM     21  C   UNL     1      46.296   5.076  13.434  0.00  0.00    +0.000 A 
ATOM     22  C   UNL     1      46.492   6.161  12.564  0.00  0.00    +0.000 A 
ATOM     23  C   UNL     1      46.119   6.088  11.213  0.00  0.00    +0.000 A 
BRANCH  18  25
ATOM     24  N   UNL     1      43.949   4.447   8.920  0.00  0.00    +0.000 N 
ATOM     25  C   UNL     1      45.218   4.833   9.258  0.00  0.00    +0.000 C 
ATOM     26  O   UNL     1      46.049   5.095   8.401  0.00  0.00    +0.000 OA
ATOM     27  H   UNL     1      43.726   4.434   7.932  0.00  0.00    +0.000 HD
ATOM     28  H   UNL     1      43.183   4.450   9.576  0.00  0.00    +0.000 HD
ENDBRANCH  18  25
ENDBRANCH  16  21
ENDBRANCH   1  16
TORSDOF 5
ENDMDL
MODEL 9
REMARK VINA RESULT:    -5.580      4.221      6.939
REMARK INTER + INTRA:          -7.846
REMARK INTER:                  -7.265
REMARK INTRA:                  -0.581
REMARK UNBOUND:                -0.798
REMARK  Name = 
REMARK  5 active torsions:
REMARK  status: ('A' for Active; 'I' for Inactive)
REMARK    1  A    between atoms: C_2  and  C_4
REMARK    2  A    between atoms: C_7  and  N_8
REMARK    3  A    between atoms: N_8  and  C_9
REMARK    4  A    between atoms: C_9  and  C_10
REMARK    5  A    between atoms: C_18  and  O_19
REMARK                            x       y       z     vdW  Elec       q    Type
REMARK                         _______ _______ _______ _____ _____    ______ ____
ROOT
ATOM      1  C   UNL     1      46.748   4.380  15.183  0.00  0.00    +0.000 C 
ENDROOT
BRANCH   1   2
ATOM      2  C   UNL     1      46.893   5.304  14.008  0.00  0.00    +0.000 A 
ATOM      3  C   UNL     1      46.108   5.147  12.866  0.00  0.00    +0.000 A 
ATOM      4  C   UNL     1      46.305   6.024  11.817  0.00  0.00    +0.000 A 
ATOM      5  N   UNL     1      47.191   7.036  11.840  0.00  0.00    +0.000 NA
ATOM      6  C   UNL     1      47.960   7.196  12.942  0.00  0.00    +0.000 A 
ATOM      7  N   UNL     1      48.864   8.232  12.949  0.00  0.00    +0.000 N 
ATOM      8  C   UNL     1      50.116   8.180  13.679  0.00  0.00    +0.000 C 
ATOM      9  C   UNL     1      51.255   8.596  12.749  0.00  0.00    +0.000 C 
ATOM     10  C   UNL     1      50.964   9.912  12.025  0.00  0.00    +0.000 C 
ATOM     11  C   UNL     1      49.595   9.914  11.346  0.00  0.00    +0.000 C 
ATOM     12  C   UNL     1      48.486   9.472  12.291  0.00  0.00    +0.000 C 
ATOM     13  C   UNL     1      47.829   6.338  14.026  0.00  0.00    +0.000 A 
BRANCH  10  14
ATOM     14  O   UNL     1      51.085  11.012  12.928  0.00  0.00    +0.000 OA
ATOM     15  H   UNL     1      52.026  11.197  13.073  0.00  0.00    +0.000 HD
ENDBRANCH  10  14
ENDBRANCH   1   2
BRANCH   1  16
ATOM     16  N   UNL     1      47.525   4.843  16.323  0.00  0.00    +0.000 N 
ATOM     17  H   UNL     1      47.706   5.844  16.342  0.00  0.00    +0.000 HD
BRANCH  16  21
ATOM     18  C   UNL     1      50.842   2.466  17.448  0.00  0.00    +0.000 A 
ATOM     19  C   UNL     1      50.873   3.845  17.660  0.00  0.00    +0.000 A 
ATOM     20  C   UNL     1      49.772   4.631  17.308  0.00  0.00    +0.000 A 
ATOM     21  C   UNL     1      48.602   4.072  16.775  0.00  0.00    +0.000 A 
ATOM     22  C   UNL     1      48.587   2.682  16.572  0.00  0.00    +0.000 A 
ATOM     23  C   UNL     1      49.695   1.886  16.900  0.00  0.00    +0.000 A 
BRANCH  18  25
ATOM     24  N   UNL     1      51.813   0.321  18.070  0.00  0.00    +0.000 N 
ATOM     25  C   UNL     1      52.036   1.625  17.714  0.00  0.00    +0.000 C 
ATOM     26  O   UNL     1      53.171   2.067  17.613  0.00  0.00    +0.000 OA
ATOM     27  H   UNL     1      52.631  -0.259  18.201  0.00  0.00    +0.000 HD
ATOM     28  H   UNL     1      50.924  -0.137  17.938  0.00  0.00    +0.000 HD
ENDBRANCH  18  25
ENDBRANCH  16  21
ENDBRANCH   1  16
TORSDOF 5
ENDMDL
