MODEL 1
REMARK VINA RESULT:    -8.553      0.000      0.000
REMARK INTER + INTRA:         -11.658
REMARK INTER:                 -11.054
REMARK INTRA:                  -0.604
REMARK UNBOUND:                -0.604
REMARK  Name = 
REMARK  5 active torsions:
REMARK  status: ('A' for Active; 'I' for Inactive)
REMARK    1  A    between atoms: C_2  and  C_4
REMARK    2  A    between atoms: C_7  and  O_8
REMARK    3  A    between atoms: O_8  and  C_9
REMARK    4  A    between atoms: C_9  and  C_10
REMARK    5  A    between atoms: C_14  and  C_15
REMARK                            x       y       z     vdW  Elec       q    Type
REMARK                         _______ _______ _______ _____ _____    ______ ____
ROOT
ATOM      1  C   UNL     1      43.930   2.886  11.651  0.00  0.00    +0.000 C 
ENDROOT
BRANCH   1   2
ATOM      2  C   UNL     1      44.940   3.821  12.278  0.00  0.00    +0.000 A 
ATOM      3  N   UNL     1      45.880   3.285  13.081  0.00  0.00    +0.000 NA
ATOM      4  C   UNL     1      46.733   4.141  13.661  0.00  0.00    +0.000 A 
ATOM      5  C   UNL     1      46.693   5.501  13.465  0.00  0.00    +0.000 A 
ATOM      6  C   UNL     1      45.707   5.977  12.620  0.00  0.00    +0.000 A 
ATOM      7  N   UNL     1      44.820   5.144  12.031  0.00  0.00    +0.000 NA
BRANCH   6   8
ATOM      8  C   UNL     1      45.535   7.402  12.323  0.00  0.00    +0.000 A 
ATOM      9  C   UNL     1      44.538   7.905  11.501  0.00  0.00    +0.000 A 
ATOM     10  N   UNL     1      44.377   9.209  11.185  0.00  0.00    +0.000 NA
ATOM     11  C   UNL     1      45.258  10.051  11.742  0.00  0.00    +0.000 A 
ATOM     12  N   UNL     1      46.256   9.707  12.565  0.00  0.00    +0.000 NA
ATOM     13  C   UNL     1      46.363   8.386  12.840  0.00  0.00    +0.000 A 
ENDBRANCH   6   8
ENDBRANCH   1   2
BRANCH   1  14
ATOM     14  O   UNL     1      43.537   3.361  10.357  0.00  0.00    +0.000 OA
BRANCH  14  18
ATOM     15  C   UNL     1      46.428   2.615   7.519  0.00  0.00    +0.000 A 
ATOM     16  C   UNL     1      45.900   3.902   7.644  0.00  0.00    +0.000 A 
ATOM     17  C   UNL     1      44.916   4.144   8.606  0.00  0.00    +0.000 A 
ATOM     18  C   UNL     1      44.499   3.090   9.405  0.00  0.00    +0.000 A 
ATOM     19  N   UNL     1      44.982   1.834   9.293  0.00  0.00    +0.000 NA
ATOM     20  C   UNL     1      45.927   1.621   8.347  0.00  0.00    +0.000 A 
BRANCH  15  22
ATOM     21  N   UNL     1      47.527   2.954   5.380  0.00  0.00    +0.000 N 
ATOM     22  C   UNL     1      47.479   2.249   6.549  0.00  0.00    +0.000 C 
ATOM     23  O   UNL     1      48.302   1.379   6.799  0.00  0.00    +0.000 OA
ATOM     24  H   UNL     1      48.330   2.774   4.789  0.00  0.00    +0.000 HD
ATOM     25  H   UNL     1      47.046   3.833   5.255  0.00  0.00    +0.000 HD
ENDBRANCH  15  22
ENDBRANCH  14  18
ENDBRANCH   1  14
TORSDOF 5
ENDMDL
MODEL 2
REMARK VINA RESULT:    -8.383      0.922      1.256
REMARK INTER + INTRA:         -11.437
REMARK INTER:                 -10.899
REMARK INTRA:                  -0.538
REMARK UNBOUND:                -0.604
REMARK  Name = 
REMARK  5 active torsions:
REMARK  status: ('A' for Active; 'I' for Inactive)
REMARK    1  A    between atoms: C_2  and  C_4
REMARK    2  A    between atoms: C_7  and  O_8
REMARK    3  A    between atoms: O_8  and  C_9
REMARK    4  A    between atoms: C_9  and  C_10
REMARK    5  A    between atoms: C_14  and  C_15
REMARK                            x       y       z     vdW  Elec       q    Type
REMARK                         _______ _______ _______ _____ _____    ______ ____
ROOT
ATOM      1  C   UNL     1      43.792   3.428  11.468  0.00  0.00    +0.000 C 
ENDROOT
BRANCH   1   2
ATOM      2  C   UNL     1      44.967   4.055  12.184  0.00  0.00    +0.000 A 
ATOM      3  N   UNL     1      45.733   3.258  12.955  0.00  0.00    +0.000 NA
ATOM      4  C   UNL     1      46.739   3.849  13.615  0.00  0.00    +0.000 A 
ATOM      5  C   UNL     1      47.016   5.194  13.530  0.00  0.00    +0.000 A 
ATOM      6  C   UNL     1      46.192   5.946  12.713  0.00  0.00    +0.000 A 
ATOM      7  N   UNL     1      45.159   5.385  12.044  0.00  0.00    +0.000 NA
BRANCH   6   8
ATOM      8  C   UNL     1      46.359   7.390  12.531  0.00  0.00    +0.000 A 
ATOM      9  C   UNL     1      45.303   8.280  12.406  0.00  0.00    +0.000 A 
ATOM     10  N   UNL     1      45.428   9.611  12.205  0.00  0.00    +0.000 NA
ATOM     11  C   UNL     1      46.686  10.070  12.146  0.00  0.00    +0.000 A 
ATOM     12  N   UNL     1      47.795   9.330  12.267  0.00  0.00    +0.000 NA
ATOM     13  C   UNL     1      47.599   8.005  12.465  0.00  0.00    +0.000 A 
ENDBRANCH   6   8
ENDBRANCH   1   2
BRANCH   1  14
ATOM     14  O   UNL     1      43.619   4.014  10.172  0.00  0.00    +0.000 OA
BRANCH  14  18
ATOM     15  C   UNL     1      46.462   2.645   7.525  0.00  0.00    +0.000 A 
ATOM     16  C   UNL     1      45.825   1.743   8.380  0.00  0.00    +0.000 A 
ATOM     17  C   UNL     1      44.866   2.217   9.278  0.00  0.00    +0.000 A 
ATOM     18  C   UNL     1      44.581   3.576   9.285  0.00  0.00    +0.000 A 
ATOM     19  N   UNL     1      45.194   4.469   8.480  0.00  0.00    +0.000 NA
ATOM     20  C   UNL     1      46.127   3.987   7.626  0.00  0.00    +0.000 A 
BRANCH  15  22
ATOM     21  N   UNL     1      47.525   2.969   5.365  0.00  0.00    +0.000 N 
ATOM     22  C   UNL     1      47.478   2.254   6.528  0.00  0.00    +0.000 C 
ATOM     23  O   UNL     1      48.276   1.354   6.750  0.00  0.00    +0.000 OA
ATOM     24  H   UNL     1      48.308   2.768   4.754  0.00  0.00    +0.000 HD
ATOM     25  H   UNL     1      47.071   3.866   5.260  0.00  0.00    +0.000 HD
ENDBRANCH  15  22
ENDBRANCH  14  18
ENDBRANCH   1  14
TORSDOF 5
ENDMDL
MODEL 3
REMARK VINA RESULT:    -8.219      1.924      3.886
REMARK INTER + INTRA:         -11.226
REMARK INTER:                 -10.644
REMARK INTRA:                  -0.582
REMARK UNBOUND:                -0.604
REMARK  Name = 
REMARK  5 active torsions:
REMARK  status: ('A' for Active; 'I' for Inactive)
REMARK    1  A    between atoms: C_2  and  C_4
REMARK    2  A    between atoms: C_7  and  O_8
REMARK    3  A    between atoms: O_8  and  C_9
REMARK    4  A    between atoms: C_9  and  C_10
REMARK    5  A    between atoms: C_14  and  C_15
REMARK                            x       y       z     vdW  Elec       q    Type
REMARK                         _______ _______ _______ _____ _____    ______ ____
ROOT
ATOM      1  C   UNL     1      43.787   4.252  11.356  0.00  0.00    +0.000 C 
ENDROOT
BRANCH   1   2
ATOM      2  C   UNL     1      44.863   5.077  12.025  0.00  0.00    +0.000 A 
ATOM      3  N   UNL     1      45.114   6.304  11.529  0.00  0.00    +0.000 NA
ATOM      4  C   UNL     1      46.106   6.995  12.111  0.00  0.00    +0.000 A 
ATOM      5  C   UNL     1      46.845   6.516  13.167  0.00  0.00    +0.000 A 
ATOM      6  C   UNL     1      46.523   5.252  13.626  0.00  0.00    +0.000 A 
ATOM      7  N   UNL     1      45.540   4.522  13.054  0.00  0.00    +0.000 NA
BRANCH   6   8
ATOM      8  C   UNL     1      47.230   4.608  14.737  0.00  0.00    +0.000 A 
ATOM      9  C   UNL     1      47.535   3.256  14.778  0.00  0.00    +0.000 A 
ATOM     10  N   UNL     1      48.156   2.631  15.804  0.00  0.00    +0.000 NA
ATOM     11  C   UNL     1      48.502   3.415  16.833  0.00  0.00    +0.000 A 
ATOM     12  N   UNL     1      48.287   4.734  16.919  0.00  0.00    +0.000 NA
ATOM     13  C   UNL     1      47.660   5.298  15.860  0.00  0.00    +0.000 A 
ENDBRANCH   6   8
ENDBRANCH   1   2
BRANCH   1  14
ATOM     14  O   UNL     1      43.686   4.584   9.965  0.00  0.00    +0.000 OA
BRANCH  14  18
ATOM     15  C   UNL     1      46.388   2.435   7.719  0.00  0.00    +0.000 A 
ATOM     16  C   UNL     1      45.609   1.778   8.674  0.00  0.00    +0.000 A 
ATOM     17  C   UNL     1      44.699   2.517   9.435  0.00  0.00    +0.000 A 
ATOM     18  C   UNL     1      44.604   3.883   9.210  0.00  0.00    +0.000 A 
ATOM     19  N   UNL     1      45.357   4.543   8.303  0.00  0.00    +0.000 NA
ATOM     20  C   UNL     1      46.238   3.807   7.586  0.00  0.00    +0.000 A 
BRANCH  15  22
ATOM     21  N   UNL     1      48.476   2.463   6.478  0.00  0.00    +0.000 N 
ATOM     22  C   UNL     1      47.369   1.754   6.850  0.00  0.00    +0.000 C 
ATOM     23  O   UNL     1      47.220   0.588   6.512  0.00  0.00    +0.000 OA
ATOM     24  H   UNL     1      49.193   1.938   5.991  0.00  0.00    +0.000 HD
ATOM     25  H   UNL     1      48.757   3.315   6.942  0.00  0.00    +0.000 HD
ENDBRANCH  15  22
ENDBRANCH  14  18
ENDBRANCH   1  14
TORSDOF 5
ENDMDL
MODEL 4
REMARK VINA RESULT:    -7.089      3.464      7.590
REMARK INTER + INTRA:          -9.766
REMARK INTER:                  -9.242
REMARK INTRA:                  -0.524
REMARK UNBOUND:                -0.604
REMARK  Name = 
REMARK  5 active torsions:
REMARK  status: ('A' for Active; 'I' for Inactive)
REMARK    1  A    between atoms: C_2  and  C_4
REMARK    2  A    between atoms: C_7  and  O_8
REMARK    3  A    between atoms: O_8  and  C_9
REMARK    4  A    between atoms: C_9  and  C_10
REMARK    5  A    between atoms: C_14  and  C_15
REMARK                            x       y       z     vdW  Elec       q    Type
REMARK                         _______ _______ _______ _____ _____    ______ ____
ROOT
ATOM      1  C   UNL     1      45.451   5.271  13.262  0.00  0.00    +0.000 C 
ENDROOT
BRANCH   1   2
ATOM      2  C   UNL     1      44.850   4.245  12.329  0.00  0.00    +0.000 A 
ATOM      3  N   UNL     1      43.814   3.512  12.784  0.00  0.00    +0.000 NA
ATOM      4  C   UNL     1      43.331   2.576  11.954  0.00  0.00    +0.000 A 
ATOM      5  C   UNL     1      43.829   2.351  10.692  0.00  0.00    +0.000 A 
ATOM      6  C   UNL     1      44.886   3.149  10.292  0.00  0.00    +0.000 A 
ATOM      7  N   UNL     1      45.408   4.091  11.108  0.00  0.00    +0.000 NA
BRANCH   6   8
ATOM      8  C   UNL     1      45.526   3.019   8.980  0.00  0.00    +0.000 A 
ATOM      9  C   UNL     1      45.989   1.819   8.463  0.00  0.00    +0.000 A 
ATOM     10  N   UNL     1      46.612   1.676   7.271  0.00  0.00    +0.000 NA
ATOM     11  C   UNL     1      46.758   2.801   6.557  0.00  0.00    +0.000 A 
ATOM     12  N   UNL     1      46.344   4.020   6.925  0.00  0.00    +0.000 NA
ATOM     13  C   UNL     1      45.730   4.094   8.129  0.00  0.00    +0.000 A 
ENDBRANCH   6   8
ENDBRANCH   1   2
BRANCH   1  14
ATOM     14  O   UNL     1      46.882   5.184  13.255  0.00  0.00    +0.000 OA
BRANCH  14  18
ATOM     15  C   UNL     1      48.366   4.507  17.037  0.00  0.00    +0.000 A 
ATOM     16  C   UNL     1      48.583   5.743  16.422  0.00  0.00    +0.000 A 
ATOM     17  C   UNL     1      48.080   5.961  15.137  0.00  0.00    +0.000 A 
ATOM     18  C   UNL     1      47.380   4.935  14.517  0.00  0.00    +0.000 A 
ATOM     19  N   UNL     1      47.171   3.728  15.085  0.00  0.00    +0.000 NA
ATOM     20  C   UNL     1      47.676   3.536  16.326  0.00  0.00    +0.000 A 
BRANCH  15  22
ATOM     21  N   UNL     1      48.284   3.080  19.000  0.00  0.00    +0.000 N 
ATOM     22  C   UNL     1      48.838   4.172  18.395  0.00  0.00    +0.000 C 
ATOM     23  O   UNL     1      49.720   4.819  18.942  0.00  0.00    +0.000 OA
ATOM     24  H   UNL     1      48.711   2.795  19.874  0.00  0.00    +0.000 HD
ATOM     25  H   UNL     1      47.760   2.383  18.490  0.00  0.00    +0.000 HD
ENDBRANCH  15  22
ENDBRANCH  14  18
ENDBRANCH   1  14
TORSDOF 5
ENDMDL
MODEL 5
REMARK VINA RESULT:    -7.048      2.732      6.436
REMARK INTER + INTRA:          -9.713
REMARK INTER:                  -8.991
REMARK INTRA:                  -0.722
REMARK UNBOUND:                -0.604
REMARK  Name = 
REMARK  5 active torsions:
REMARK  status: ('A' for Active; 'I' for Inactive)
REMARK    1  A    between atoms: C_2  and  C_4
REMARK    2  A    between atoms: C_7  and  O_8
REMARK    3  A    between atoms: O_8  and  C_9
REMARK    4  A    between atoms: C_9  and  C_10
REMARK    5  A    between atoms: C_14  and  C_15
REMARK                            x       y       z     vdW  Elec       q    Type
REMARK                         _______ _______ _______ _____ _____    ______ ____
ROOT
ATOM      1  C   UNL     1      44.006   6.512  11.620  0.00  0.00    +0.000 C 
ENDROOT
BRANCH   1   2
ATOM      2  C   UNL     1      43.990   5.055  11.218  0.00  0.00    +0.000 A 
ATOM      3  N   UNL     1      43.283   4.199  11.983  0.00  0.00    +0.000 NA
ATOM      4  C   UNL     1      43.325   2.906  11.631  0.00  0.00    +0.000 A 
ATOM      5  C   UNL     1      44.030   2.437  10.548  0.00  0.00    +0.000 A 
ATOM      6  C   UNL     1      44.723   3.376   9.806  0.00  0.00    +0.000 A 
ATOM      7  N   UNL     1      44.716   4.685  10.140  0.00  0.00    +0.000 NA
BRANCH   6   8
ATOM      8  C   UNL     1      45.525   3.023   8.631  0.00  0.00    +0.000 A 
ATOM      9  C   UNL     1      46.004   1.747   8.378  0.00  0.00    +0.000 A 
ATOM     10  N   UNL     1      46.773   1.402   7.320  0.00  0.00    +0.000 NA
ATOM     11  C   UNL     1      47.058   2.394   6.465  0.00  0.00    +0.000 A 
ATOM     12  N   UNL     1      46.649   3.664   6.577  0.00  0.00    +0.000 NA
ATOM     13  C   UNL     1      45.884   3.943   7.658  0.00  0.00    +0.000 A 
ENDBRANCH   6   8
ENDBRANCH   1   2
BRANCH   1  14
ATOM     14  O   UNL     1      44.669   6.682  12.881  0.00  0.00    +0.000 OA
BRANCH  14  18
ATOM     15  C   UNL     1      48.672   7.518  12.388  0.00  0.00    +0.000 A 
ATOM     16  C   UNL     1      47.717   8.459  11.997  0.00  0.00    +0.000 A 
ATOM     17  C   UNL     1      46.362   8.165  12.163  0.00  0.00    +0.000 A 
ATOM     18  C   UNL     1      46.014   6.940  12.714  0.00  0.00    +0.000 A 
ATOM     19  N   UNL     1      46.917   6.007  13.087  0.00  0.00    +0.000 NA
ATOM     20  C   UNL     1      48.224   6.311  12.906  0.00  0.00    +0.000 A 
BRANCH  15  22
ATOM     21  N   UNL     1      50.854   7.741  13.430  0.00  0.00    +0.000 N 
ATOM     22  C   UNL     1      50.128   7.728  12.273  0.00  0.00    +0.000 C 
ATOM     23  O   UNL     1      50.672   7.842  11.184  0.00  0.00    +0.000 OA
ATOM     24  H   UNL     1      51.861   7.759  13.320  0.00  0.00    +0.000 HD
ATOM     25  H   UNL     1      50.488   7.394  14.306  0.00  0.00    +0.000 HD
ENDBRANCH  15  22
ENDBRANCH  14  18
ENDBRANCH   1  14
TORSDOF 5
ENDMDL
MODEL 6
REMARK VINA RESULT:    -6.925      4.161      7.981
REMARK INTER + INTRA:          -9.553
REMARK INTER:                  -9.131
REMARK INTRA:                  -0.422
REMARK UNBOUND:                -0.604
REMARK  Name = 
REMARK  5 active torsions:
REMARK  status: ('A' for Active; 'I' for Inactive)
REMARK    1  A    between atoms: C_2  and  C_4
REMARK    2  A    between atoms: C_7  and  O_8
REMARK    3  A    between atoms: O_8  and  C_9
REMARK    4  A    between atoms: C_9  and  C_10
REMARK    5  A    between atoms: C_14  and  C_15
REMARK                            x       y       z     vdW  Elec       q    Type
REMARK                         _______ _______ _______ _____ _____    ______ ____
ROOT
ATOM      1  C   UNL     1      46.289   5.215  14.110  0.00  0.00    +0.000 C 
ENDROOT
BRANCH   1   2
ATOM      2  C   UNL     1      45.247   5.016  13.033  0.00  0.00    +0.000 A 
ATOM      3  N   UNL     1      43.962   5.276  13.345  0.00  0.00    +0.000 NA
ATOM      4  C   UNL     1      43.053   5.046  12.387  0.00  0.00    +0.000 A 
ATOM      5  C   UNL     1      43.374   4.578  11.134  0.00  0.00    +0.000 A 
ATOM      6  C   UNL     1      44.713   4.343  10.884  0.00  0.00    +0.000 A 
ATOM      7  N   UNL     1      45.655   4.550  11.832  0.00  0.00    +0.000 NA
BRANCH   6   8
ATOM      8  C   UNL     1      45.204   3.836   9.600  0.00  0.00    +0.000 A 
ATOM      9  C   UNL     1      45.696   4.646   8.587  0.00  0.00    +0.000 A 
ATOM     10  N   UNL     1      46.124   4.208   7.382  0.00  0.00    +0.000 NA
ATOM     11  C   UNL     1      46.069   2.882   7.197  0.00  0.00    +0.000 A 
ATOM     12  N   UNL     1      45.635   1.984   8.091  0.00  0.00    +0.000 NA
ATOM     13  C   UNL     1      45.219   2.489   9.276  0.00  0.00    +0.000 A 
ENDBRANCH   6   8
ENDBRANCH   1   2
BRANCH   1  14
ATOM     14  O   UNL     1      46.433   4.027  14.900  0.00  0.00    +0.000 OA
BRANCH  14  18
ATOM     15  C   UNL     1      49.179   4.484  17.936  0.00  0.00    +0.000 A 
ATOM     16  C   UNL     1      48.295   3.403  17.963  0.00  0.00    +0.000 A 
ATOM     17  C   UNL     1      47.363   3.259  16.932  0.00  0.00    +0.000 A 
ATOM     18  C   UNL     1      47.353   4.202  15.913  0.00  0.00    +0.000 A 
ATOM     19  N   UNL     1      48.187   5.264  15.873  0.00  0.00    +0.000 NA
ATOM     20  C   UNL     1      49.074   5.387  16.888  0.00  0.00    +0.000 A 
BRANCH  15  22
ATOM     21  N   UNL     1      49.881   4.457  20.261  0.00  0.00    +0.000 N 
ATOM     22  C   UNL     1      50.212   4.726  18.963  0.00  0.00    +0.000 C 
ATOM     23  O   UNL     1      51.333   5.111  18.661  0.00  0.00    +0.000 OA
ATOM     24  H   UNL     1      50.641   4.508  20.929  0.00  0.00    +0.000 HD
ATOM     25  H   UNL     1      49.077   3.901  20.513  0.00  0.00    +0.000 HD
ENDBRANCH  15  22
ENDBRANCH  14  18
ENDBRANCH   1  14
TORSDOF 5
ENDMDL
MODEL 7
REMARK VINA RESULT:    -6.716      5.051      7.762
REMARK INTER + INTRA:          -9.283
REMARK INTER:                  -8.821
REMARK INTRA:                  -0.462
REMARK UNBOUND:                -0.604
REMARK  Name = 
REMARK  5 active torsions:
REMARK  status: ('A' for Active; 'I' for Inactive)
REMARK    1  A    between atoms: C_2  and  C_4
REMARK    2  A    between atoms: C_7  and  O_8
REMARK    3  A    between atoms: O_8  and  C_9
REMARK    4  A    between atoms: C_9  and  C_10
REMARK    5  A    between atoms: C_14  and  C_15
REMARK                            x       y       z     vdW  Elec       q    Type
REMARK                         _______ _______ _______ _____ _____    ______ ____
ROOT
ATOM      1  C   UNL     1      47.155   4.354  15.915  0.00  0.00    +0.000 C 
ENDROOT
BRANCH   1   2
ATOM      2  C   UNL     1      48.349   4.652  16.794  0.00  0.00    +0.000 A 
ATOM      3  N   UNL     1      48.394   5.849  17.410  0.00  0.00    +0.000 NA
ATOM      4  C   UNL     1      49.486   6.106  18.144  0.00  0.00    +0.000 A 
ATOM      5  C   UNL     1      50.524   5.217  18.296  0.00  0.00    +0.000 A 
ATOM      6  C   UNL     1      50.403   4.005  17.641  0.00  0.00    +0.000 A 
ATOM      7  N   UNL     1      49.323   3.719  16.880  0.00  0.00    +0.000 NA
BRANCH   6   8
ATOM      8  C   UNL     1      51.432   2.964  17.702  0.00  0.00    +0.000 A 
ATOM      9  C   UNL     1      52.727   3.183  18.147  0.00  0.00    +0.000 A 
ATOM     10  N   UNL     1      53.704   2.249  18.183  0.00  0.00    +0.000 NA
ATOM     11  C   UNL     1      53.350   1.027  17.764  0.00  0.00    +0.000 A 
ATOM     12  N   UNL     1      52.136   0.671  17.327  0.00  0.00    +0.000 NA
ATOM     13  C   UNL     1      51.204   1.653  17.315  0.00  0.00    +0.000 A 
ENDBRANCH   6   8
ENDBRANCH   1   2
BRANCH   1  14
ATOM     14  O   UNL     1      47.579   3.957  14.604  0.00  0.00    +0.000 OA
BRANCH  14  18
ATOM     15  C   UNL     1      44.729   4.833  11.761  0.00  0.00    +0.000 A 
ATOM     16  C   UNL     1      45.416   5.872  12.392  0.00  0.00    +0.000 A 
ATOM     17  C   UNL     1      46.377   5.566  13.359  0.00  0.00    +0.000 A 
ATOM     18  C   UNL     1      46.614   4.231  13.656  0.00  0.00    +0.000 A 
ATOM     19  N   UNL     1      45.953   3.209  13.071  0.00  0.00    +0.000 NA
ATOM     20  C   UNL     1      45.019   3.532  12.145  0.00  0.00    +0.000 A 
BRANCH  15  22
ATOM     21  N   UNL     1      44.023   4.655   9.444  0.00  0.00    +0.000 N 
ATOM     22  C   UNL     1      43.707   5.039  10.717  0.00  0.00    +0.000 C 
ATOM     23  O   UNL     1      42.604   5.494  10.986  0.00  0.00    +0.000 OA
ATOM     24  H   UNL     1      43.265   4.687   8.773  0.00  0.00    +0.000 HD
ATOM     25  H   UNL     1      44.802   4.047   9.238  0.00  0.00    +0.000 HD
ENDBRANCH  15  22
ENDBRANCH  14  18
ENDBRANCH   1  14
TORSDOF 5
ENDMDL
MODEL 8
REMARK VINA RESULT:    -6.527      5.334      8.121
REMARK INTER + INTRA:          -9.039
REMARK INTER:                  -8.550
REMARK INTRA:                  -0.489
REMARK UNBOUND:                -0.604
REMARK  Name = 
REMARK  5 active torsions:
REMARK  status: ('A' for Active; 'I' for Inactive)
REMARK    1  A    between atoms: C_2  and  C_4
REMARK    2  A    between atoms: C_7  and  O_8
REMARK    3  A    between atoms: O_8  and  C_9
REMARK    4  A    between atoms: C_9  and  C_10
REMARK    5  A    between atoms: C_14  and  C_15
REMARK                            x       y       z     vdW  Elec       q    Type
REMARK                         _______ _______ _______ _____ _____    ______ ____
ROOT
ATOM      1  C   UNL     1      47.665   4.018  16.682  0.00  0.00    +0.000 C 
ENDROOT
BRANCH   1   2
ATOM      2  C   UNL     1      47.472   4.790  15.396  0.00  0.00    +0.000 A 
ATOM      3  N   UNL     1      48.308   5.818  15.148  0.00  0.00    +0.000 NA
ATOM      4  C   UNL     1      48.085   6.514  14.024  0.00  0.00    +0.000 A 
ATOM      5  C   UNL     1      47.075   6.222  13.139  0.00  0.00    +0.000 A 
ATOM      6  C   UNL     1      46.264   5.148  13.455  0.00  0.00    +0.000 A 
ATOM      7  N   UNL     1      46.450   4.433  14.587  0.00  0.00    +0.000 NA
BRANCH   6   8
ATOM      8  C   UNL     1      45.143   4.724  12.612  0.00  0.00    +0.000 A 
ATOM      9  C   UNL     1      44.188   5.591  12.105  0.00  0.00    +0.000 A 
ATOM     10  N   UNL     1      43.126   5.223  11.353  0.00  0.00    +0.000 NA
ATOM     11  C   UNL     1      43.035   3.913  11.085  0.00  0.00    +0.000 A 
ATOM     12  N   UNL     1      43.892   2.969  11.493  0.00  0.00    +0.000 NA
ATOM     13  C   UNL     1      44.932   3.405  12.244  0.00  0.00    +0.000 A 
ENDBRANCH   6   8
ENDBRANCH   1   2
BRANCH   1  14
ATOM     14  O   UNL     1      48.738   4.577  17.451  0.00  0.00    +0.000 OA
BRANCH  14  18
ATOM     15  C   UNL     1      51.993   2.062  17.662  0.00  0.00    +0.000 A 
ATOM     16  C   UNL     1      52.120   3.390  18.075  0.00  0.00    +0.000 A 
ATOM     17  C   UNL     1      51.012   4.237  17.995  0.00  0.00    +0.000 A 
ATOM     18  C   UNL     1      49.820   3.722  17.505  0.00  0.00    +0.000 A 
ATOM     19  N   UNL     1      49.676   2.447  17.085  0.00  0.00    +0.000 NA
ATOM     20  C   UNL     1      50.767   1.648  17.163  0.00  0.00    +0.000 A 
BRANCH  15  22
ATOM     21  N   UNL     1      52.817  -0.139  18.274  0.00  0.00    +0.000 N 
ATOM     22  C   UNL     1      53.091   1.077  17.716  0.00  0.00    +0.000 C 
ATOM     23  O   UNL     1      54.192   1.322  17.241  0.00  0.00    +0.000 OA
ATOM     24  H   UNL     1      53.543  -0.840  18.185  0.00  0.00    +0.000 HD
ATOM     25  H   UNL     1      51.873  -0.465  18.431  0.00  0.00    +0.000 HD
ENDBRANCH  15  22
ENDBRANCH  14  18
ENDBRANCH   1  14
TORSDOF 5
ENDMDL
MODEL 9
REMARK VINA RESULT:    -5.694      5.085      7.632
REMARK INTER + INTRA:          -7.963
REMARK INTER:                  -7.486
REMARK INTRA:                  -0.477
REMARK UNBOUND:                -0.604
REMARK  Name = 
REMARK  5 active torsions:
REMARK  status: ('A' for Active; 'I' for Inactive)
REMARK    1  A    between atoms: C_2  and  C_4
REMARK    2  A    between atoms: C_7  and  O_8
REMARK    3  A    between atoms: O_8  and  C_9
REMARK    4  A    between atoms: C_9  and  C_10
REMARK    5  A    between atoms: C_14  and  C_15
REMARK                            x       y       z     vdW  Elec       q    Type
REMARK                         _______ _______ _______ _____ _____    ______ ____
ROOT
ATOM      1  C   UNL     1      49.104   7.725  12.037  0.00  0.00    +0.000 C 
ENDROOT
BRANCH   1   2
ATOM      2  C   UNL     1      50.525   8.003  11.601  0.00  0.00    +0.000 A 
ATOM      3  N   UNL     1      51.185   9.006  12.213  0.00  0.00    +0.000 NA
ATOM      4  C   UNL     1      52.426   9.261  11.775  0.00  0.00    +0.000 A 
ATOM      5  C   UNL     1      53.034   8.555  10.764  0.00  0.00    +0.000 A 
ATOM      6  C   UNL     1      52.298   7.534  10.191  0.00  0.00    +0.000 A 
ATOM      7  N   UNL     1      51.038   7.259  10.597  0.00  0.00    +0.000 NA
BRANCH   6   8
ATOM      8  C   UNL     1      52.810   6.702   9.099  0.00  0.00    +0.000 A 
ATOM      9  C   UNL     1      52.383   6.806   7.784  0.00  0.00    +0.000 A 
ATOM     10  N   UNL     1      52.815   6.030   6.764  0.00  0.00    +0.000 NA
ATOM     11  C   UNL     1      53.738   5.114   7.086  0.00  0.00    +0.000 A 
ATOM     12  N   UNL     1      54.251   4.916   8.307  0.00  0.00    +0.000 NA
ATOM     13  C   UNL     1      53.775   5.725   9.283  0.00  0.00    +0.000 A 
ENDBRANCH   6   8
ENDBRANCH   1   2
BRANCH   1  14
ATOM     14  O   UNL     1      49.052   6.573  12.890  0.00  0.00    +0.000 OA
BRANCH  14  18
ATOM     15  C   UNL     1      45.325   4.825  12.761  0.00  0.00    +0.000 A 
ATOM     16  C   UNL     1      45.647   5.831  11.847  0.00  0.00    +0.000 A 
ATOM     17  C   UNL     1      46.912   6.423  11.902  0.00  0.00    +0.000 A 
ATOM     18  C   UNL     1      47.806   5.983  12.869  0.00  0.00    +0.000 A 
ATOM     19  N   UNL     1      47.513   5.023  13.772  0.00  0.00    +0.000 NA
ATOM     20  C   UNL     1      46.278   4.473  13.706  0.00  0.00    +0.000 A 
BRANCH  15  22
ATOM     21  N   UNL     1      44.040   2.773  12.578  0.00  0.00    +0.000 N 
ATOM     22  C   UNL     1      44.027   4.123  12.785  0.00  0.00    +0.000 C 
ATOM     23  O   UNL     1      42.985   4.716  13.025  0.00  0.00    +0.000 OA
ATOM     24  H   UNL     1      43.159   2.295  12.725  0.00  0.00    +0.000 HD
ATOM     25  H   UNL     1      44.884   2.221  12.639  0.00  0.00    +0.000 HD
ENDBRANCH  15  22
ENDBRANCH  14  18
ENDBRANCH   1  14
TORSDOF 5
ENDMDL
