MODEL 1
REMARK VINA RESULT:    -7.737      0.000      0.000
REMARK INTER + INTRA:         -11.393
REMARK INTER:                 -10.451
REMARK INTRA:                  -0.942
REMARK UNBOUND:                -0.942
REMARK  Name = 
REMARK  7 active torsions:
REMARK  status: ('A' for Active; 'I' for Inactive)
REMARK    1  A    between atoms: C_1  and  C_2
REMARK    2  A    between atoms: C_5  and  C_6
REMARK    3  A    between atoms: N_8  and  C_9
REMARK    4  A    between atoms: C_9  and  C_10
REMARK    5  A    between atoms: C_13  and  C_14
REMARK    6  A    between atoms: C_14  and  N_15
REMARK    7  A    between atoms: C_16  and  C_18
REMARK                            x       y       z     vdW  Elec       q    Type
REMARK                         _______ _______ _______ _____ _____    ______ ____
ROOT
ATOM      1  C   UNL     1      44.938   6.304  11.387  0.00  0.00    +0.000 A 
ATOM      2  C   UNL     1      44.580   7.612  11.743  0.00  0.00    +0.000 A 
ATOM      3  C   UNL     1      45.398   8.374  12.586  0.00  0.00    +0.000 A 
ATOM      4  C   UNL     1      46.605   7.855  13.074  0.00  0.00    +0.000 A 
ATOM      5  C   UNL     1      46.960   6.546  12.719  0.00  0.00    +0.000 A 
ATOM      6  C   UNL     1      46.144   5.784  11.874  0.00  0.00    +0.000 A 
ENDROOT
BRANCH   1   7
ATOM      7  C   UNL     1      44.050   5.480  10.487  0.00  0.00    +0.000 C 
BRANCH   7  10
ATOM      8  C   UNL     1      44.701   3.341   9.447  0.00  0.00    +0.000 C 
ATOM      9  O   UNL     1      43.930   2.712  10.162  0.00  0.00    +0.000 OA
ATOM     10  N   UNL     1      44.816   4.711   9.539  0.00  0.00    +0.000 N 
ATOM     11  H   UNL     1      45.504   5.186   8.964  0.00  0.00    +0.000 HD
BRANCH   8  16
ATOM     12  C   UNL     1      47.909   2.161   5.416  0.00  0.00    +0.000 C 
ATOM     13  C   UNL     1      47.027   2.124   6.614  0.00  0.00    +0.000 A 
ATOM     14  N   UNL     1      46.733   1.042   7.301  0.00  0.00    +0.000 NA
ATOM     15  C   UNL     1      45.891   1.372   8.352  0.00  0.00    +0.000 A 
ATOM     16  C   UNL     1      45.557   2.709   8.457  0.00  0.00    +0.000 A 
ATOM     17  S   UNL     1      46.317   3.579   7.189  0.00  0.00    +0.000 S 
ENDBRANCH   8  16
ENDBRANCH   7  10
ENDBRANCH   1   7
BRANCH   4  18
ATOM     18  C   UNL     1      47.498   8.670  13.976  0.00  0.00    +0.000 C 
BRANCH  18  19
ATOM     19  N   UNL     1      47.912   7.923  15.138  0.00  0.00    +0.000 N 
ATOM     20  C   UNL     1      49.170   7.380  15.221  0.00  0.00    +0.000 C 
ATOM     21  O   UNL     1      50.010   7.547  14.340  0.00  0.00    +0.000 OA
ATOM     22  H   UNL     1      47.180   7.578  15.751  0.00  0.00    +0.000 HD
BRANCH  20  23
ATOM     23  C   UNL     1      49.487   6.637  16.448  0.00  0.00    +0.000 A 
ATOM     24  C   UNL     1      50.469   7.110  17.310  0.00  0.00    +0.000 A 
ATOM     25  S   UNL     1      50.670   6.156  18.708  0.00  0.00    +0.000 S 
ATOM     26  C   UNL     1      49.491   5.045  18.187  0.00  0.00    +0.000 A 
ATOM     27  N   UNL     1      49.186   3.947  18.930  0.00  0.00    +0.000 NA
ATOM     28  C   UNL     1      48.296   3.176  18.401  0.00  0.00    +0.000 A 
ATOM     29  N   UNL     1      47.681   3.405  17.198  0.00  0.00    +0.000 N 
ATOM     30  C   UNL     1      47.933   4.515  16.429  0.00  0.00    +0.000 A 
ATOM     31  O   UNL     1      47.331   4.714  15.378  0.00  0.00    +0.000 OA
ATOM     32  C   UNL     1      48.937   5.409  16.973  0.00  0.00    +0.000 A 
ATOM     33  H   UNL     1      46.985   2.765  16.843  0.00  0.00    +0.000 HD
ENDBRANCH  20  23
ENDBRANCH  18  19
ENDBRANCH   4  18
TORSDOF 6
ENDMDL
MODEL 2
REMARK VINA RESULT:    -7.383      2.082      2.339
REMARK INTER + INTRA:         -10.916
REMARK INTER:                 -10.123
REMARK INTRA:                  -0.793
REMARK UNBOUND:                -0.942
REMARK  Name = 
REMARK  7 active torsions:
REMARK  status: ('A' for Active; 'I' for Inactive)
REMARK    1  A    between atoms: C_1  and  C_2
REMARK    2  A    between atoms: C_5  and  C_6
REMARK    3  A    between atoms: N_8  and  C_9
REMARK    4  A    between atoms: C_9  and  C_10
REMARK    5  A    between atoms: C_13  and  C_14
REMARK    6  A    between atoms: C_14  and  N_15
REMARK    7  A    between atoms: C_16  and  C_18
REMARK                            x       y       z     vdW  Elec       q    Type
REMARK                         _______ _______ _______ _____ _____    ______ ____
ROOT
ATOM      1  C   UNL     1      45.273   6.734  11.869  0.00  0.00    +0.000 A 
ATOM      2  C   UNL     1      46.472   6.205  12.369  0.00  0.00    +0.000 A 
ATOM      3  C   UNL     1      47.362   7.007  13.095  0.00  0.00    +0.000 A 
ATOM      4  C   UNL     1      47.062   8.350  13.358  0.00  0.00    +0.000 A 
ATOM      5  C   UNL     1      45.865   8.879  12.856  0.00  0.00    +0.000 A 
ATOM      6  C   UNL     1      44.974   8.077  12.133  0.00  0.00    +0.000 A 
ENDROOT
BRANCH   1   7
ATOM      7  C   UNL     1      44.322   5.871  11.078  0.00  0.00    +0.000 C 
BRANCH   7  10
ATOM      8  C   UNL     1      44.580   3.777   9.801  0.00  0.00    +0.000 C 
ATOM      9  O   UNL     1      43.568   3.301  10.300  0.00  0.00    +0.000 OA
ATOM     10  N   UNL     1      45.018   5.043  10.125  0.00  0.00    +0.000 N 
ATOM     11  H   UNL     1      45.889   5.378   9.728  0.00  0.00    +0.000 HD
BRANCH   8  16
ATOM     12  C   UNL     1      47.775   2.272   5.870  0.00  0.00    +0.000 C 
ATOM     13  C   UNL     1      46.864   2.327   7.045  0.00  0.00    +0.000 A 
ATOM     14  N   UNL     1      46.461   1.283   7.736  0.00  0.00    +0.000 NA
ATOM     15  C   UNL     1      45.624   1.699   8.760  0.00  0.00    +0.000 A 
ATOM     16  C   UNL     1      45.403   3.061   8.841  0.00  0.00    +0.000 A 
ATOM     17  S   UNL     1      46.267   3.844   7.583  0.00  0.00    +0.000 S 
ENDBRANCH   8  16
ENDBRANCH   7  10
ENDBRANCH   1   7
BRANCH   4  18
ATOM     18  C   UNL     1      48.010   9.221  14.145  0.00  0.00    +0.000 C 
BRANCH  18  19
ATOM     19  N   UNL     1      47.734   9.174  15.560  0.00  0.00    +0.000 N 
ATOM     20  C   UNL     1      48.629   8.616  16.439  0.00  0.00    +0.000 C 
ATOM     21  O   UNL     1      49.717   8.181  16.071  0.00  0.00    +0.000 OA
ATOM     22  H   UNL     1      46.769   9.303  15.847  0.00  0.00    +0.000 HD
BRANCH  20  23
ATOM     23  C   UNL     1      48.246   8.617  17.857  0.00  0.00    +0.000 A 
ATOM     24  C   UNL     1      48.111   9.822  18.536  0.00  0.00    +0.000 A 
ATOM     25  S   UNL     1      47.611   9.643  20.156  0.00  0.00    +0.000 S 
ATOM     26  C   UNL     1      47.609   7.946  20.025  0.00  0.00    +0.000 A 
ATOM     27  N   UNL     1      47.290   7.162  21.090  0.00  0.00    +0.000 NA
ATOM     28  C   UNL     1      47.359   5.893  20.858  0.00  0.00    +0.000 A 
ATOM     29  N   UNL     1      47.716   5.339  19.657  0.00  0.00    +0.000 N 
ATOM     30  C   UNL     1      48.017   6.090  18.546  0.00  0.00    +0.000 A 
ATOM     31  O   UNL     1      48.288   5.561  17.473  0.00  0.00    +0.000 OA
ATOM     32  C   UNL     1      47.966   7.524  18.758  0.00  0.00    +0.000 A 
ATOM     33  H   UNL     1      47.743   4.336  19.538  0.00  0.00    +0.000 HD
ENDBRANCH  20  23
ENDBRANCH  18  19
ENDBRANCH   4  18
TORSDOF 6
ENDMDL
MODEL 3
REMARK VINA RESULT:    -7.191      5.032      9.614
REMARK INTER + INTRA:         -10.656
REMARK INTER:                  -9.891
REMARK INTRA:                  -0.765
REMARK UNBOUND:                -0.942
REMARK  Name = 
REMARK  7 active torsions:
REMARK  status: ('A' for Active; 'I' for Inactive)
REMARK    1  A    between atoms: C_1  and  C_2
REMARK    2  A    between atoms: C_5  and  C_6
REMARK    3  A    between atoms: N_8  and  C_9
REMARK    4  A    between atoms: C_9  and  C_10
REMARK    5  A    between atoms: C_13  and  C_14
REMARK    6  A    between atoms: C_14  and  N_15
REMARK    7  A    between atoms: C_16  and  C_18
REMARK                            x       y       z     vdW  Elec       q    Type
REMARK                         _______ _______ _______ _____ _____    ______ ____
ROOT
ATOM      1  C   UNL     1      51.498   3.027  17.729  0.00  0.00    +0.000 A 
ATOM      2  C   UNL     1      50.713   1.993  17.198  0.00  0.00    +0.000 A 
ATOM      3  C   UNL     1      49.343   2.178  16.971  0.00  0.00    +0.000 A 
ATOM      4  C   UNL     1      48.731   3.407  17.249  0.00  0.00    +0.000 A 
ATOM      5  C   UNL     1      49.516   4.438  17.782  0.00  0.00    +0.000 A 
ATOM      6  C   UNL     1      50.886   4.256  18.006  0.00  0.00    +0.000 A 
ENDROOT
BRANCH   1   7
ATOM      7  C   UNL     1      52.971   2.822  17.982  0.00  0.00    +0.000 C 
BRANCH   7  10
ATOM      8  C   UNL     1      54.119   0.683  18.420  0.00  0.00    +0.000 C 
ATOM      9  O   UNL     1      54.407   1.026  19.560  0.00  0.00    +0.000 OA
ATOM     10  N   UNL     1      53.405   1.508  17.578  0.00  0.00    +0.000 N 
ATOM     11  H   UNL     1      53.233   1.206  16.625  0.00  0.00    +0.000 HD
BRANCH   8  16
ATOM     12  C   UNL     1      55.152  -4.405  17.437  0.00  0.00    +0.000 C 
ATOM     13  C   UNL     1      54.994  -2.928  17.366  0.00  0.00    +0.000 A 
ATOM     14  N   UNL     1      55.302  -2.186  16.325  0.00  0.00    +0.000 NA
ATOM     15  C   UNL     1      55.025  -0.856  16.603  0.00  0.00    +0.000 A 
ATOM     16  C   UNL     1      54.502  -0.601  17.857  0.00  0.00    +0.000 A 
ATOM     17  S   UNL     1      54.362  -2.078  18.717  0.00  0.00    +0.000 S 
ENDBRANCH   8  16
ENDBRANCH   7  10
ENDBRANCH   1   7
BRANCH   4  18
ATOM     18  C   UNL     1      47.258   3.619  17.002  0.00  0.00    +0.000 C 
BRANCH  18  19
ATOM     19  N   UNL     1      47.022   4.609  15.980  0.00  0.00    +0.000 N 
ATOM     20  C   UNL     1      47.106   4.288  14.648  0.00  0.00    +0.000 C 
ATOM     21  O   UNL     1      47.335   3.142  14.269  0.00  0.00    +0.000 OA
ATOM     22  H   UNL     1      47.069   5.583  16.261  0.00  0.00    +0.000 HD
BRANCH  20  23
ATOM     23  C   UNL     1      46.850   5.372  13.692  0.00  0.00    +0.000 A 
ATOM     24  C   UNL     1      47.861   6.273  13.379  0.00  0.00    +0.000 A 
ATOM     25  S   UNL     1      47.410   7.433  12.214  0.00  0.00    +0.000 S 
ATOM     26  C   UNL     1      45.830   6.808  12.124  0.00  0.00    +0.000 A 
ATOM     27  N   UNL     1      44.899   7.374  11.309  0.00  0.00    +0.000 NA
ATOM     28  C   UNL     1      43.735   6.817  11.364  0.00  0.00    +0.000 A 
ATOM     29  N   UNL     1      43.419   5.744  12.156  0.00  0.00    +0.000 N 
ATOM     30  C   UNL     1      44.334   5.122  12.971  0.00  0.00    +0.000 A 
ATOM     31  O   UNL     1      44.030   4.135  13.633  0.00  0.00    +0.000 OA
ATOM     32  C   UNL     1      45.656   5.717  12.957  0.00  0.00    +0.000 A 
ATOM     33  H   UNL     1      42.489   5.349  12.146  0.00  0.00    +0.000 HD
ENDBRANCH  20  23
ENDBRANCH  18  19
ENDBRANCH   4  18
TORSDOF 6
ENDMDL
MODEL 4
REMARK VINA RESULT:    -6.827      1.739      2.250
REMARK INTER + INTRA:         -10.165
REMARK INTER:                  -9.294
REMARK INTRA:                  -0.871
REMARK UNBOUND:                -0.942
REMARK  Name = 
REMARK  7 active torsions:
REMARK  status: ('A' for Active; 'I' for Inactive)
REMARK    1  A    between atoms: C_1  and  C_2
REMARK    2  A    between atoms: C_5  and  C_6
REMARK    3  A    between atoms: N_8  and  C_9
REMARK    4  A    between atoms: C_9  and  C_10
REMARK    5  A    between atoms: C_13  and  C_14
REMARK    6  A    between atoms: C_14  and  N_15
REMARK    7  A    between atoms: C_16  and  C_18
REMARK                            x       y       z     vdW  Elec       q    Type
REMARK                         _______ _______ _______ _____ _____    ______ ____
ROOT
ATOM      1  C   UNL     1      44.994   5.804  11.202  0.00  0.00    +0.000 A 
ATOM      2  C   UNL     1      44.523   6.294  12.428  0.00  0.00    +0.000 A 
ATOM      3  C   UNL     1      45.310   7.150  13.208  0.00  0.00    +0.000 A 
ATOM      4  C   UNL     1      46.577   7.555  12.769  0.00  0.00    +0.000 A 
ATOM      5  C   UNL     1      47.048   7.063  11.544  0.00  0.00    +0.000 A 
ATOM      6  C   UNL     1      46.261   6.209  10.763  0.00  0.00    +0.000 A 
ENDROOT
BRANCH   1   7
ATOM      7  C   UNL     1      44.148   4.873  10.369  0.00  0.00    +0.000 C 
BRANCH   7  10
ATOM      8  C   UNL     1      45.042   2.876   9.230  0.00  0.00    +0.000 C 
ATOM      9  O   UNL     1      44.493   2.126  10.027  0.00  0.00    +0.000 OA
ATOM     10  N   UNL     1      44.917   4.245   9.322  0.00  0.00    +0.000 N 
ATOM     11  H   UNL     1      45.430   4.831   8.673  0.00  0.00    +0.000 HD
BRANCH   8  16
ATOM     12  C   UNL     1      47.945   2.276   4.854  0.00  0.00    +0.000 C 
ATOM     13  C   UNL     1      47.205   2.081   6.130  0.00  0.00    +0.000 A 
ATOM     14  N   UNL     1      47.132   0.947   6.793  0.00  0.00    +0.000 NA
ATOM     15  C   UNL     1      46.366   1.126   7.935  0.00  0.00    +0.000 A 
ATOM     16  C   UNL     1      45.868   2.400   8.132  0.00  0.00    +0.000 A 
ATOM     17  S   UNL     1      46.369   3.404   6.836  0.00  0.00    +0.000 S 
ENDBRANCH   8  16
ENDBRANCH   7  10
ENDBRANCH   1   7
BRANCH   4  18
ATOM     18  C   UNL     1      47.431   8.483  13.597  0.00  0.00    +0.000 C 
BRANCH  18  19
ATOM     19  N   UNL     1      47.659   7.964  14.923  0.00  0.00    +0.000 N 
ATOM     20  C   UNL     1      48.701   7.107  15.180  0.00  0.00    +0.000 C 
ATOM     21  O   UNL     1      49.509   6.787  14.312  0.00  0.00    +0.000 OA
ATOM     22  H   UNL     1      46.888   8.019  15.580  0.00  0.00    +0.000 HD
BRANCH  20  23
ATOM     23  C   UNL     1      48.839   6.635  16.564  0.00  0.00    +0.000 A 
ATOM     24  C   UNL     1      49.193   5.315  16.812  0.00  0.00    +0.000 A 
ATOM     25  S   UNL     1      49.362   4.951  18.470  0.00  0.00    +0.000 S 
ATOM     26  C   UNL     1      48.915   6.531  18.918  0.00  0.00    +0.000 A 
ATOM     27  N   UNL     1      48.833   6.890  20.227  0.00  0.00    +0.000 NA
ATOM     28  C   UNL     1      48.453   8.109  20.423  0.00  0.00    +0.000 A 
ATOM     29  N   UNL     1      48.151   9.001  19.427  0.00  0.00    +0.000 N 
ATOM     30  C   UNL     1      48.249   8.692  18.092  0.00  0.00    +0.000 A 
ATOM     31  O   UNL     1      48.016   9.529  17.225  0.00  0.00    +0.000 OA
ATOM     32  C   UNL     1      48.660   7.329  17.818  0.00  0.00    +0.000 A 
ATOM     33  H   UNL     1      47.867   9.945  19.647  0.00  0.00    +0.000 HD
ENDBRANCH  20  23
ENDBRANCH  18  19
ENDBRANCH   4  18
TORSDOF 6
ENDMDL
MODEL 5
REMARK VINA RESULT:    -6.693      1.796      2.254
REMARK INTER + INTRA:          -9.983
REMARK INTER:                  -9.014
REMARK INTRA:                  -0.969
REMARK UNBOUND:                -0.942
REMARK  Name = 
REMARK  7 active torsions:
REMARK  status: ('A' for Active; 'I' for Inactive)
REMARK    1  A    between atoms: C_1  and  C_2
REMARK    2  A    between atoms: C_5  and  C_6
REMARK    3  A    between atoms: N_8  and  C_9
REMARK    4  A    between atoms: C_9  and  C_10
REMARK    5  A    between atoms: C_13  and  C_14
REMARK    6  A    between atoms: C_14  and  N_15
REMARK    7  A    between atoms: C_16  and  C_18
REMARK                            x       y       z     vdW  Elec       q    Type
REMARK                         _______ _______ _______ _____ _____    ______ ____
ROOT
ATOM      1  C   UNL     1      45.988   7.231  12.069  0.00  0.00    +0.000 A 
ATOM      2  C   UNL     1      47.020   6.363  12.455  0.00  0.00    +0.000 A 
ATOM      3  C   UNL     1      47.929   6.731  13.454  0.00  0.00    +0.000 A 
ATOM      4  C   UNL     1      47.815   7.965  14.107  0.00  0.00    +0.000 A 
ATOM      5  C   UNL     1      46.785   8.833  13.718  0.00  0.00    +0.000 A 
ATOM      6  C   UNL     1      45.873   8.465  12.722  0.00  0.00    +0.000 A 
ENDROOT
BRANCH   1   7
ATOM      7  C   UNL     1      45.016   6.837  10.984  0.00  0.00    +0.000 C 
BRANCH   7  10
ATOM      8  C   UNL     1      44.795   4.728   9.726  0.00  0.00    +0.000 C 
ATOM      9  O   UNL     1      43.622   4.607  10.056  0.00  0.00    +0.000 OA
ATOM     10  N   UNL     1      45.553   5.803  10.135  0.00  0.00    +0.000 N 
ATOM     11  H   UNL     1      46.534   5.838   9.881  0.00  0.00    +0.000 HD
BRANCH   8  16
ATOM     12  C   UNL     1      46.795   0.414   7.419  0.00  0.00    +0.000 C 
ATOM     13  C   UNL     1      46.431   1.804   7.803  0.00  0.00    +0.000 A 
ATOM     14  N   UNL     1      46.846   2.890   7.188  0.00  0.00    +0.000 NA
ATOM     15  C   UNL     1      46.311   4.009   7.808  0.00  0.00    +0.000 A 
ATOM     16  C   UNL     1      45.488   3.761   8.890  0.00  0.00    +0.000 A 
ATOM     17  S   UNL     1      45.389   2.067   9.142  0.00  0.00    +0.000 S 
ENDBRANCH   8  16
ENDBRANCH   7  10
ENDBRANCH   1   7
BRANCH   4  18
ATOM     18  C   UNL     1      48.784   8.369  15.190  0.00  0.00    +0.000 C 
BRANCH  18  19
ATOM     19  N   UNL     1      49.607   7.263  15.614  0.00  0.00    +0.000 N 
ATOM     20  C   UNL     1      50.171   7.238  16.865  0.00  0.00    +0.000 C 
ATOM     21  O   UNL     1      49.963   8.124  17.691  0.00  0.00    +0.000 OA
ATOM     22  H   UNL     1      49.979   6.659  14.889  0.00  0.00    +0.000 HD
BRANCH  20  23
ATOM     23  C   UNL     1      50.994   6.067  17.193  0.00  0.00    +0.000 A 
ATOM     24  C   UNL     1      52.329   6.234  17.541  0.00  0.00    +0.000 A 
ATOM     25  S   UNL     1      53.120   4.778  17.943  0.00  0.00    +0.000 S 
ATOM     26  C   UNL     1      51.723   3.864  17.614  0.00  0.00    +0.000 A 
ATOM     27  N   UNL     1      51.727   2.510  17.737  0.00  0.00    +0.000 NA
ATOM     28  C   UNL     1      50.609   1.943  17.427  0.00  0.00    +0.000 A 
ATOM     29  N   UNL     1      49.487   2.608  17.007  0.00  0.00    +0.000 N 
ATOM     30  C   UNL     1      49.426   3.976  16.897  0.00  0.00    +0.000 A 
ATOM     31  O   UNL     1      48.391   4.544  16.563  0.00  0.00    +0.000 OA
ATOM     32  C   UNL     1      50.662   4.662  17.223  0.00  0.00    +0.000 A 
ATOM     33  H   UNL     1      48.639   2.105  16.787  0.00  0.00    +0.000 HD
ENDBRANCH  20  23
ENDBRANCH  18  19
ENDBRANCH   4  18
TORSDOF 6
ENDMDL
MODEL 6
REMARK VINA RESULT:    -6.662      3.368      4.728
REMARK INTER + INTRA:          -9.941
REMARK INTER:                  -8.819
REMARK INTRA:                  -1.122
REMARK UNBOUND:                -0.942
REMARK  Name = 
REMARK  7 active torsions:
REMARK  status: ('A' for Active; 'I' for Inactive)
REMARK    1  A    between atoms: C_1  and  C_2
REMARK    2  A    between atoms: C_5  and  C_6
REMARK    3  A    between atoms: N_8  and  C_9
REMARK    4  A    between atoms: C_9  and  C_10
REMARK    5  A    between atoms: C_13  and  C_14
REMARK    6  A    between atoms: C_14  and  N_15
REMARK    7  A    between atoms: C_16  and  C_18
REMARK                            x       y       z     vdW  Elec       q    Type
REMARK                         _______ _______ _______ _____ _____    ______ ____
ROOT
ATOM      1  C   UNL     1      45.430   6.754  11.869  0.00  0.00    +0.000 A 
ATOM      2  C   UNL     1      46.550   6.076  12.371  0.00  0.00    +0.000 A 
ATOM      3  C   UNL     1      47.461   6.724  13.215  0.00  0.00    +0.000 A 
ATOM      4  C   UNL     1      47.261   8.057  13.595  0.00  0.00    +0.000 A 
ATOM      5  C   UNL     1      46.142   8.735  13.091  0.00  0.00    +0.000 A 
ATOM      6  C   UNL     1      45.230   8.087  12.250  0.00  0.00    +0.000 A 
ENDROOT
BRANCH   1   7
ATOM      7  C   UNL     1      44.456   6.058  10.951  0.00  0.00    +0.000 C 
BRANCH   7  10
ATOM      8  C   UNL     1      44.658   3.918   9.741  0.00  0.00    +0.000 C 
ATOM      9  O   UNL     1      43.636   3.483  10.258  0.00  0.00    +0.000 OA
ATOM     10  N   UNL     1      45.129   5.182  10.024  0.00  0.00    +0.000 N 
ATOM     11  H   UNL     1      46.006   5.482   9.614  0.00  0.00    +0.000 HD
BRANCH   8  16
ATOM     12  C   UNL     1      47.804   2.208   5.854  0.00  0.00    +0.000 C 
ATOM     13  C   UNL     1      46.897   2.324   7.028  0.00  0.00    +0.000 A 
ATOM     14  N   UNL     1      46.469   1.313   7.752  0.00  0.00    +0.000 NA
ATOM     15  C   UNL     1      45.646   1.782   8.764  0.00  0.00    +0.000 A 
ATOM     16  C   UNL     1      45.460   3.151   8.802  0.00  0.00    +0.000 A 
ATOM     17  S   UNL     1      46.341   3.872   7.519  0.00  0.00    +0.000 S 
ENDBRANCH   8  16
ENDBRANCH   7  10
ENDBRANCH   1   7
BRANCH   4  18
ATOM     18  C   UNL     1      48.232   8.763  14.509  0.00  0.00    +0.000 C 
BRANCH  18  19
ATOM     19  N   UNL     1      49.509   8.974  13.876  0.00  0.00    +0.000 N 
ATOM     20  C   UNL     1      50.620   8.268  14.266  0.00  0.00    +0.000 C 
ATOM     21  O   UNL     1      50.566   7.395  15.129  0.00  0.00    +0.000 OA
ATOM     22  H   UNL     1      49.626   9.832  13.347  0.00  0.00    +0.000 HD
BRANCH  20  23
ATOM     23  C   UNL     1      51.872   8.564  13.556  0.00  0.00    +0.000 A 
ATOM     24  C   UNL     1      52.948   9.105  14.250  0.00  0.00    +0.000 A 
ATOM     25  S   UNL     1      54.336   9.336  13.287  0.00  0.00    +0.000 S 
ATOM     26  C   UNL     1      53.532   8.774  11.896  0.00  0.00    +0.000 A 
ATOM     27  N   UNL     1      54.162   8.736  10.691  0.00  0.00    +0.000 NA
ATOM     28  C   UNL     1      53.424   8.316   9.717  0.00  0.00    +0.000 A 
ATOM     29  N   UNL     1      52.116   7.928   9.841  0.00  0.00    +0.000 N 
ATOM     30  C   UNL     1      51.449   7.921  11.042  0.00  0.00    +0.000 A 
ATOM     31  O   UNL     1      50.291   7.524  11.127  0.00  0.00    +0.000 OA
ATOM     32  C   UNL     1      52.230   8.396  12.168  0.00  0.00    +0.000 A 
ATOM     33  H   UNL     1      51.595   7.601   9.040  0.00  0.00    +0.000 HD
ENDBRANCH  20  23
ENDBRANCH  18  19
ENDBRANCH   4  18
TORSDOF 6
ENDMDL
MODEL 7
REMARK VINA RESULT:    -6.173      2.812      9.136
REMARK INTER + INTRA:          -9.281
REMARK INTER:                  -8.571
REMARK INTRA:                  -0.710
REMARK UNBOUND:                -0.942
REMARK  Name = 
REMARK  7 active torsions:
REMARK  status: ('A' for Active; 'I' for Inactive)
REMARK    1  A    between atoms: C_1  and  C_2
REMARK    2  A    between atoms: C_5  and  C_6
REMARK    3  A    between atoms: N_8  and  C_9
REMARK    4  A    between atoms: C_9  and  C_10
REMARK    5  A    between atoms: C_13  and  C_14
REMARK    6  A    between atoms: C_14  and  N_15
REMARK    7  A    between atoms: C_16  and  C_18
REMARK                            x       y       z     vdW  Elec       q    Type
REMARK                         _______ _______ _______ _____ _____    ______ ____
ROOT
ATOM      1  C   UNL     1      49.183   7.709  16.348  0.00  0.00    +0.000 A 
ATOM      2  C   UNL     1      48.481   8.853  15.943  0.00  0.00    +0.000 A 
ATOM      3  C   UNL     1      47.843   8.899  14.697  0.00  0.00    +0.000 A 
ATOM      4  C   UNL     1      47.872   7.793  13.837  0.00  0.00    +0.000 A 
ATOM      5  C   UNL     1      48.577   6.651  14.242  0.00  0.00    +0.000 A 
ATOM      6  C   UNL     1      49.212   6.603  15.489  0.00  0.00    +0.000 A 
ENDROOT
BRANCH   1   7
ATOM      7  C   UNL     1      49.878   7.667  17.686  0.00  0.00    +0.000 C 
BRANCH   7  10
ATOM      8  C   UNL     1      50.432   5.427  18.560  0.00  0.00    +0.000 C 
ATOM      9  O   UNL     1      49.373   5.361  19.172  0.00  0.00    +0.000 OA
ATOM     10  N   UNL     1      50.756   6.528  17.796  0.00  0.00    +0.000 N 
ATOM     11  H   UNL     1      51.664   6.564  17.347  0.00  0.00    +0.000 HD
BRANCH   8  16
ATOM     12  C   UNL     1      54.527   2.237  19.550  0.00  0.00    +0.000 C 
ATOM     13  C   UNL     1      53.301   2.881  19.005  0.00  0.00    +0.000 A 
ATOM     14  N   UNL     1      52.575   2.405  18.017  0.00  0.00    +0.000 NA
ATOM     15  C   UNL     1      51.508   3.256  17.773  0.00  0.00    +0.000 A 
ATOM     16  C   UNL     1      51.431   4.372  18.585  0.00  0.00    +0.000 A 
ATOM     17  S   UNL     1      52.746   4.357  19.685  0.00  0.00    +0.000 S 
ENDBRANCH   8  16
ENDBRANCH   7  10
ENDBRANCH   1   7
BRANCH   4  18
ATOM     18  C   UNL     1      47.183   7.828  12.496  0.00  0.00    +0.000 C 
BRANCH  18  19
ATOM     19  N   UNL     1      46.571   6.563  12.173  0.00  0.00    +0.000 N 
ATOM     20  C   UNL     1      45.282   6.497  11.704  0.00  0.00    +0.000 C 
ATOM     21  O   UNL     1      44.615   7.506  11.493  0.00  0.00    +0.000 OA
ATOM     22  H   UNL     1      47.004   5.729  12.556  0.00  0.00    +0.000 HD
BRANCH  20  23
ATOM     23  C   UNL     1      44.756   5.158  11.410  0.00  0.00    +0.000 A 
ATOM     24  C   UNL     1      44.007   4.483  12.366  0.00  0.00    +0.000 A 
ATOM     25  S   UNL     1      43.431   2.967  11.840  0.00  0.00    +0.000 S 
ATOM     26  C   UNL     1      44.207   3.133  10.335  0.00  0.00    +0.000 A 
ATOM     27  N   UNL     1      44.134   2.149   9.398  0.00  0.00    +0.000 NA
ATOM     28  C   UNL     1      44.794   2.395   8.315  0.00  0.00    +0.000 A 
ATOM     29  N   UNL     1      45.517   3.536   8.084  0.00  0.00    +0.000 N 
ATOM     30  C   UNL     1      45.593   4.568   8.988  0.00  0.00    +0.000 A 
ATOM     31  O   UNL     1      46.212   5.596   8.731  0.00  0.00    +0.000 OA
ATOM     32  C   UNL     1      44.879   4.337  10.228  0.00  0.00    +0.000 A 
ATOM     33  H   UNL     1      46.005   3.671   7.211  0.00  0.00    +0.000 HD
ENDBRANCH  20  23
ENDBRANCH  18  19
ENDBRANCH   4  18
TORSDOF 6
ENDMDL
MODEL 8
REMARK VINA RESULT:    -6.005      4.847      7.934
REMARK INTER + INTRA:          -9.053
REMARK INTER:                  -8.205
REMARK INTRA:                  -0.849
REMARK UNBOUND:                -0.942
REMARK  Name = 
REMARK  7 active torsions:
REMARK  status: ('A' for Active; 'I' for Inactive)
REMARK    1  A    between atoms: C_1  and  C_2
REMARK    2  A    between atoms: C_5  and  C_6
REMARK    3  A    between atoms: N_8  and  C_9
REMARK    4  A    between atoms: C_9  and  C_10
REMARK    5  A    between atoms: C_13  and  C_14
REMARK    6  A    between atoms: C_14  and  N_15
REMARK    7  A    between atoms: C_16  and  C_18
REMARK                            x       y       z     vdW  Elec       q    Type
REMARK                         _______ _______ _______ _____ _____    ______ ____
ROOT
ATOM      1  C   UNL     1      50.476   8.742  12.419  0.00  0.00    +0.000 A 
ATOM      2  C   UNL     1      49.531   9.513  11.728  0.00  0.00    +0.000 A 
ATOM      3  C   UNL     1      48.159   9.329  11.944  0.00  0.00    +0.000 A 
ATOM      4  C   UNL     1      47.701   8.386  12.873  0.00  0.00    +0.000 A 
ATOM      5  C   UNL     1      48.647   7.614  13.562  0.00  0.00    +0.000 A 
ATOM      6  C   UNL     1      50.018   7.799  13.349  0.00  0.00    +0.000 A 
ENDROOT
BRANCH   1   7
ATOM      7  C   UNL     1      51.952   8.934  12.177  0.00  0.00    +0.000 C 
BRANCH   7  10
ATOM      8  C   UNL     1      52.816   8.190   9.990  0.00  0.00    +0.000 C 
ATOM      9  O   UNL     1      53.100   7.084  10.433  0.00  0.00    +0.000 OA
ATOM     10  N   UNL     1      52.240   9.159  10.782  0.00  0.00    +0.000 N 
ATOM     11  H   UNL     1      52.069  10.078  10.388  0.00  0.00    +0.000 HD
BRANCH   8  16
ATOM     12  C   UNL     1      53.456   8.454   4.751  0.00  0.00    +0.000 C 
ATOM     13  C   UNL     1      53.370   8.743   6.208  0.00  0.00    +0.000 A 
ATOM     14  N   UNL     1      53.596   9.915   6.759  0.00  0.00    +0.000 NA
ATOM     15  C   UNL     1      53.424   9.824   8.132  0.00  0.00    +0.000 A 
ATOM     16  C   UNL     1      53.062   8.579   8.611  0.00  0.00    +0.000 A 
ATOM     17  S   UNL     1      52.943   7.485   7.296  0.00  0.00    +0.000 S 
ENDBRANCH   8  16
ENDBRANCH   7  10
ENDBRANCH   1   7
BRANCH   4  18
ATOM     18  C   UNL     1      46.227   8.185  13.119  0.00  0.00    +0.000 C 
BRANCH  18  19
ATOM     19  N   UNL     1      45.803   6.848  12.783  0.00  0.00    +0.000 N 
ATOM     20  C   UNL     1      44.873   6.626  11.797  0.00  0.00    +0.000 C 
ATOM     21  O   UNL     1      44.401   7.543  11.129  0.00  0.00    +0.000 OA
ATOM     22  H   UNL     1      45.991   6.119  13.462  0.00  0.00    +0.000 HD
BRANCH  20  23
ATOM     23  C   UNL     1      44.511   5.227  11.538  0.00  0.00    +0.000 A 
ATOM     24  C   UNL     1      43.804   4.506  12.493  0.00  0.00    +0.000 A 
ATOM     25  S   UNL     1      43.421   2.918  12.008  0.00  0.00    +0.000 S 
ATOM     26  C   UNL     1      44.232   3.116  10.525  0.00  0.00    +0.000 A 
ATOM     27  N   UNL     1      44.306   2.098   9.626  0.00  0.00    +0.000 NA
ATOM     28  C   UNL     1      44.977   2.377   8.559  0.00  0.00    +0.000 A 
ATOM     29  N   UNL     1      45.578   3.583   8.308  0.00  0.00    +0.000 N 
ATOM     30  C   UNL     1      45.504   4.649   9.172  0.00  0.00    +0.000 A 
ATOM     31  O   UNL     1      46.014   5.730   8.897  0.00  0.00    +0.000 OA
ATOM     32  C   UNL     1      44.770   4.383  10.395  0.00  0.00    +0.000 A 
ATOM     33  H   UNL     1      46.082   3.741   7.448  0.00  0.00    +0.000 HD
ENDBRANCH  20  23
ENDBRANCH  18  19
ENDBRANCH   4  18
TORSDOF 6
ENDMDL
MODEL 9
REMARK VINA RESULT:    -5.860      5.747     10.287
REMARK INTER + INTRA:          -8.858
REMARK INTER:                  -7.936
REMARK INTRA:                  -0.922
REMARK UNBOUND:                -0.942
REMARK  Name = 
REMARK  7 active torsions:
REMARK  status: ('A' for Active; 'I' for Inactive)
REMARK    1  A    between atoms: C_1  and  C_2
REMARK    2  A    between atoms: C_5  and  C_6
REMARK    3  A    between atoms: N_8  and  C_9
REMARK    4  A    between atoms: C_9  and  C_10
REMARK    5  A    between atoms: C_13  and  C_14
REMARK    6  A    between atoms: C_14  and  N_15
REMARK    7  A    between atoms: C_16  and  C_18
REMARK                            x       y       z     vdW  Elec       q    Type
REMARK                         _______ _______ _______ _____ _____    ______ ____
ROOT
ATOM      1  C   UNL     1      53.225   1.376  17.742  0.00  0.00    +0.000 A 
ATOM      2  C   UNL     1      51.929   1.053  17.314  0.00  0.00    +0.000 A 
ATOM      3  C   UNL     1      50.879   1.968  17.455  0.00  0.00    +0.000 A 
ATOM      4  C   UNL     1      51.105   3.237  18.006  0.00  0.00    +0.000 A 
ATOM      5  C   UNL     1      52.399   3.558  18.436  0.00  0.00    +0.000 A 
ATOM      6  C   UNL     1      53.450   2.644  18.293  0.00  0.00    +0.000 A 
ENDROOT
BRANCH   1   7
ATOM      7  C   UNL     1      54.353   0.384  17.600  0.00  0.00    +0.000 C 
BRANCH   7  10
ATOM      8  C   UNL     1      54.166  -1.497  19.185  0.00  0.00    +0.000 C 
ATOM      9  O   UNL     1      54.730  -0.862  20.067  0.00  0.00    +0.000 OA
ATOM     10  N   UNL     1      53.934  -0.954  17.940  0.00  0.00    +0.000 N 
ATOM     11  H   UNL     1      53.511  -1.532  17.222  0.00  0.00    +0.000 HD
BRANCH   8  16
ATOM     12  C   UNL     1      52.013  -6.028  20.849  0.00  0.00    +0.000 C 
ATOM     13  C   UNL     1      52.732  -4.966  20.093  0.00  0.00    +0.000 A 
ATOM     14  N   UNL     1      53.345  -5.143  18.944  0.00  0.00    +0.000 NA
ATOM     15  C   UNL     1      53.903  -3.945  18.526  0.00  0.00    +0.000 A 
ATOM     16  C   UNL     1      53.702  -2.863  19.363  0.00  0.00    +0.000 A 
ATOM     17  S   UNL     1      52.791  -3.370  20.724  0.00  0.00    +0.000 S 
ENDBRANCH   8  16
ENDBRANCH   7  10
ENDBRANCH   1   7
BRANCH   4  18
ATOM     18  C   UNL     1      49.982   4.234  18.155  0.00  0.00    +0.000 C 
BRANCH  18  19
ATOM     19  N   UNL     1      49.478   4.671  16.877  0.00  0.00    +0.000 N 
ATOM     20  C   UNL     1      48.974   5.937  16.709  0.00  0.00    +0.000 C 
ATOM     21  O   UNL     1      48.977   6.765  17.617  0.00  0.00    +0.000 OA
ATOM     22  H   UNL     1      49.249   3.951  16.200  0.00  0.00    +0.000 HD
BRANCH  20  23
ATOM     23  C   UNL     1      48.484   6.278  15.367  0.00  0.00    +0.000 A 
ATOM     24  C   UNL     1      48.947   7.423  14.731  0.00  0.00    +0.000 A 
ATOM     25  S   UNL     1      48.316   7.638  13.162  0.00  0.00    +0.000 S 
ATOM     26  C   UNL     1      47.359   6.237  13.295  0.00  0.00    +0.000 A 
ATOM     27  N   UNL     1      46.537   5.852  12.283  0.00  0.00    +0.000 NA
ATOM     28  C   UNL     1      45.847   4.788  12.531  0.00  0.00    +0.000 A 
ATOM     29  N   UNL     1      45.908   4.074  13.700  0.00  0.00    +0.000 N 
ATOM     30  C   UNL     1      46.745   4.408  14.736  0.00  0.00    +0.000 A 
ATOM     31  O   UNL     1      46.809   3.721  15.751  0.00  0.00    +0.000 OA
ATOM     32  C   UNL     1      47.534   5.604  14.513  0.00  0.00    +0.000 A 
ATOM     33  H   UNL     1      45.347   3.245  13.828  0.00  0.00    +0.000 HD
ENDBRANCH  20  23
ENDBRANCH  18  19
ENDBRANCH   4  18
TORSDOF 6
ENDMDL
