MODEL 1
REMARK VINA RESULT:    -8.444      0.000      0.000
REMARK INTER + INTRA:         -13.508
REMARK INTER:                 -12.640
REMARK INTRA:                  -0.868
REMARK UNBOUND:                -0.868
REMARK  Name = 
REMARK  9 active torsions:
REMARK  status: ('A' for Active; 'I' for Inactive)
REMARK    1  A    between atoms: N_1  and  C_2
REMARK    2  A    between atoms: C_2  and  C_3
REMARK    3  A    between atoms: C_3  and  N_4
REMARK    4  A    between atoms: C_3  and  C_26
REMARK    5  A    between atoms: N_4  and  C_5
REMARK    6  A    between atoms: C_5  and  C_6
REMARK    7  A    between atoms: C_9  and  C_10
REMARK    8  A    between atoms: C_10  and  N_11
REMARK    9  A    between atoms: C_12  and  C_14
REMARK                            x       y       z     vdW  Elec       q    Type
REMARK                         _______ _______ _______ _____ _____    ______ ____
ROOT
ATOM      1  C   UNL     1      44.236   6.799  11.687  0.00  0.00    +0.000 A 
ATOM      2  C   UNL     1      44.556   8.125  11.375  0.00  0.00    +0.000 A 
ATOM      3  C   UNL     1      45.623   8.751  12.020  0.00  0.00    +0.000 A 
ATOM      4  C   UNL     1      46.357   8.038  12.966  0.00  0.00    +0.000 A 
ATOM      5  N   UNL     1      46.062   6.753  13.290  0.00  0.00    +0.000 NA
ATOM      6  C   UNL     1      45.020   6.170  12.649  0.00  0.00    +0.000 A 
ENDROOT
BRANCH   1   7
ATOM      7  C   UNL     1      43.032   6.116  11.099  0.00  0.00    +0.000 C 
BRANCH   7   8
ATOM      8  N   UNL     1      43.380   5.180  10.027  0.00  0.00    +0.000 NA
ATOM      9  H   UNL     1      43.928   5.689   9.327  0.00  0.00    +0.000 HD
BRANCH   8  10
ATOM     10  C   UNL     1      44.231   4.055  10.499  0.00  0.00    +0.000 C 
BRANCH  10  11
ATOM     11  C   UNL     1      45.075   3.496   9.346  0.00  0.00    +0.000 A 
ATOM     12  C   UNL     1      45.618   4.332   8.366  0.00  0.00    +0.000 A 
ATOM     13  C   UNL     1      46.388   3.775   7.345  0.00  0.00    +0.000 A 
ATOM     14  C   UNL     1      46.594   2.403   7.320  0.00  0.00    +0.000 A 
ATOM     15  C   UNL     1      46.018   1.640   8.321  0.00  0.00    +0.000 A 
ATOM     16  N   UNL     1      45.265   2.148   9.325  0.00  0.00    +0.000 NA
ENDBRANCH  10  11
BRANCH  10  17
ATOM     17  C   UNL     1      43.440   2.901  11.201  0.00  0.00    +0.000 C 
BRANCH  17  18
ATOM     18  N   UNL     1      44.009   2.424  12.474  0.00  0.00    +0.000 NA
ATOM     19  H   UNL     1      44.640   1.639  12.285  0.00  0.00    +0.000 HD
ATOM     20  H   UNL     1      44.598   3.153  12.876  0.00  0.00    +0.000 HD
ENDBRANCH  17  18
ENDBRANCH  10  17
ENDBRANCH   8  10
ENDBRANCH   7   8
ENDBRANCH   1   7
BRANCH   4  21
ATOM     21  C   UNL     1      47.479   8.709  13.725  0.00  0.00    +0.000 C 
BRANCH  21  22
ATOM     22  N   UNL     1      47.796   7.991  14.943  0.00  0.00    +0.000 N 
ATOM     23  C   UNL     1      48.738   6.997  14.971  0.00  0.00    +0.000 C 
ATOM     24  O   UNL     1      49.419   6.718  13.987  0.00  0.00    +0.000 OA
ATOM     25  H   UNL     1      47.102   8.053  15.683  0.00  0.00    +0.000 HD
BRANCH  23  26
ATOM     26  C   UNL     1      48.948   6.315  16.255  0.00  0.00    +0.000 A 
ATOM     27  C   UNL     1      49.801   6.879  17.196  0.00  0.00    +0.000 A 
ATOM     28  S   UNL     1      49.916   5.983  18.642  0.00  0.00    +0.000 S 
ATOM     29  C   UNL     1      48.867   4.783  18.044  0.00  0.00    +0.000 A 
ATOM     30  N   UNL     1      48.565   3.686  18.790  0.00  0.00    +0.000 NA
ATOM     31  C   UNL     1      47.788   2.839  18.200  0.00  0.00    +0.000 A 
ATOM     32  N   UNL     1      47.278   2.996  16.938  0.00  0.00    +0.000 N 
ATOM     33  C   UNL     1      47.525   4.106  16.165  0.00  0.00    +0.000 A 
ATOM     34  O   UNL     1      47.005   4.245  15.063  0.00  0.00    +0.000 OA
ATOM     35  C   UNL     1      48.415   5.076  16.769  0.00  0.00    +0.000 A 
ATOM     36  H   UNL     1      46.665   2.302  16.539  0.00  0.00    +0.000 HD
ENDBRANCH  23  26
ENDBRANCH  21  22
ENDBRANCH   4  21
TORSDOF 9
ENDMDL
MODEL 2
REMARK VINA RESULT:    -8.056      1.806      2.062
REMARK INTER + INTRA:         -12.926
REMARK INTER:                 -12.014
REMARK INTRA:                  -0.912
REMARK UNBOUND:                -0.868
REMARK  Name = 
REMARK  9 active torsions:
REMARK  status: ('A' for Active; 'I' for Inactive)
REMARK    1  A    between atoms: N_1  and  C_2
REMARK    2  A    between atoms: C_2  and  C_3
REMARK    3  A    between atoms: C_3  and  N_4
REMARK    4  A    between atoms: C_3  and  C_26
REMARK    5  A    between atoms: N_4  and  C_5
REMARK    6  A    between atoms: C_5  and  C_6
REMARK    7  A    between atoms: C_9  and  C_10
REMARK    8  A    between atoms: C_10  and  N_11
REMARK    9  A    between atoms: C_12  and  C_14
REMARK                            x       y       z     vdW  Elec       q    Type
REMARK                         _______ _______ _______ _____ _____    ______ ____
ROOT
ATOM      1  C   UNL     1      45.036   5.657  11.634  0.00  0.00    +0.000 A 
ATOM      2  C   UNL     1      45.999   6.484  11.045  0.00  0.00    +0.000 A 
ATOM      3  C   UNL     1      47.165   6.798  11.744  0.00  0.00    +0.000 A 
ATOM      4  C   UNL     1      47.351   6.275  13.022  0.00  0.00    +0.000 A 
ATOM      5  N   UNL     1      46.428   5.476  13.617  0.00  0.00    +0.000 NA
ATOM      6  C   UNL     1      45.305   5.189  12.916  0.00  0.00    +0.000 A 
ENDROOT
BRANCH   1   7
ATOM      7  C   UNL     1      43.717   5.378  10.967  0.00  0.00    +0.000 C 
BRANCH   7   8
ATOM      8  N   UNL     1      43.854   4.534   9.776  0.00  0.00    +0.000 NA
ATOM      9  H   UNL     1      44.379   5.061   9.072  0.00  0.00    +0.000 HD
BRANCH   8  10
ATOM     10  C   UNL     1      44.625   3.289  10.039  0.00  0.00    +0.000 C 
BRANCH  10  11
ATOM     11  C   UNL     1      45.481   2.917   8.821  0.00  0.00    +0.000 A 
ATOM     12  C   UNL     1      45.836   3.868   7.860  0.00  0.00    +0.000 A 
ATOM     13  C   UNL     1      46.625   3.480   6.776  0.00  0.00    +0.000 A 
ATOM     14  C   UNL     1      47.035   2.159   6.672  0.00  0.00    +0.000 A 
ATOM     15  C   UNL     1      46.638   1.275   7.660  0.00  0.00    +0.000 A 
ATOM     16  N   UNL     1      45.872   1.617   8.723  0.00  0.00    +0.000 NA
ENDBRANCH  10  11
BRANCH  10  17
ATOM     17  C   UNL     1      43.748   2.070  10.479  0.00  0.00    +0.000 C 
BRANCH  17  18
ATOM     18  N   UNL     1      43.065   2.216  11.777  0.00  0.00    +0.000 NA
ATOM     19  H   UNL     1      43.256   3.149  12.153  0.00  0.00    +0.000 HD
ATOM     20  H   UNL     1      42.056   2.183  11.635  0.00  0.00    +0.000 HD
ENDBRANCH  17  18
ENDBRANCH  10  17
ENDBRANCH   8  10
ENDBRANCH   7   8
ENDBRANCH   1   7
BRANCH   4  21
ATOM     21  C   UNL     1      48.575   6.647  13.828  0.00  0.00    +0.000 C 
BRANCH  21  22
ATOM     22  N   UNL     1      48.245   6.855  15.223  0.00  0.00    +0.000 N 
ATOM     23  C   UNL     1      49.152   6.623  16.223  0.00  0.00    +0.000 C 
ATOM     24  O   UNL     1      50.315   6.303  15.985  0.00  0.00    +0.000 OA
ATOM     25  H   UNL     1      47.253   6.896  15.439  0.00  0.00    +0.000 HD
BRANCH  23  26
ATOM     26  C   UNL     1      48.692   6.835  17.602  0.00  0.00    +0.000 A 
ATOM     27  C   UNL     1      48.272   8.099  17.994  0.00  0.00    +0.000 A 
ATOM     28  S   UNL     1      47.743   8.175  19.613  0.00  0.00    +0.000 S 
ATOM     29  C   UNL     1      48.103   6.531  19.864  0.00  0.00    +0.000 A 
ATOM     30  N   UNL     1      47.912   5.952  21.080  0.00  0.00    +0.000 NA
ATOM     31  C   UNL     1      48.261   4.709  21.139  0.00  0.00    +0.000 A 
ATOM     32  N   UNL     1      48.773   3.992  20.089  0.00  0.00    +0.000 N 
ATOM     33  C   UNL     1      48.945   4.525  18.833  0.00  0.00    +0.000 A 
ATOM     34  O   UNL     1      49.349   3.842  17.899  0.00  0.00    +0.000 OA
ATOM     35  C   UNL     1      48.595   5.926  18.719  0.00  0.00    +0.000 A 
ATOM     36  H   UNL     1      49.014   3.019  20.197  0.00  0.00    +0.000 HD
ENDBRANCH  23  26
ENDBRANCH  21  22
ENDBRANCH   4  21
TORSDOF 9
ENDMDL
MODEL 3
REMARK VINA RESULT:    -7.877      2.225      2.943
REMARK INTER + INTRA:         -12.659
REMARK INTER:                 -11.528
REMARK INTRA:                  -1.131
REMARK UNBOUND:                -0.868
REMARK  Name = 
REMARK  9 active torsions:
REMARK  status: ('A' for Active; 'I' for Inactive)
REMARK    1  A    between atoms: N_1  and  C_2
REMARK    2  A    between atoms: C_2  and  C_3
REMARK    3  A    between atoms: C_3  and  N_4
REMARK    4  A    between atoms: C_3  and  C_26
REMARK    5  A    between atoms: N_4  and  C_5
REMARK    6  A    between atoms: C_5  and  C_6
REMARK    7  A    between atoms: C_9  and  C_10
REMARK    8  A    between atoms: C_10  and  N_11
REMARK    9  A    between atoms: C_12  and  C_14
REMARK                            x       y       z     vdW  Elec       q    Type
REMARK                         _______ _______ _______ _____ _____    ______ ____
ROOT
ATOM      1  C   UNL     1      44.970   5.871  11.910  0.00  0.00    +0.000 A 
ATOM      2  C   UNL     1      45.963   6.688  11.357  0.00  0.00    +0.000 A 
ATOM      3  C   UNL     1      47.139   6.929  12.069  0.00  0.00    +0.000 A 
ATOM      4  C   UNL     1      47.305   6.345  13.323  0.00  0.00    +0.000 A 
ATOM      5  N   UNL     1      46.353   5.554  13.883  0.00  0.00    +0.000 NA
ATOM      6  C   UNL     1      45.221   5.338  13.170  0.00  0.00    +0.000 A 
ENDROOT
BRANCH   1   7
ATOM      7  C   UNL     1      43.644   5.667  11.231  0.00  0.00    +0.000 C 
BRANCH   7   8
ATOM      8  N   UNL     1      43.730   4.764  10.080  0.00  0.00    +0.000 NA
ATOM      9  H   UNL     1      44.223   5.255   9.328  0.00  0.00    +0.000 HD
BRANCH   8  10
ATOM     10  C   UNL     1      44.515   3.534  10.372  0.00  0.00    +0.000 C 
BRANCH  10  11
ATOM     11  C   UNL     1      45.302   3.089   9.132  0.00  0.00    +0.000 A 
ATOM     12  C   UNL     1      45.667   3.997   8.134  0.00  0.00    +0.000 A 
ATOM     13  C   UNL     1      46.393   3.544   7.032  0.00  0.00    +0.000 A 
ATOM     14  C   UNL     1      46.731   2.201   6.946  0.00  0.00    +0.000 A 
ATOM     15  C   UNL     1      46.327   1.362   7.970  0.00  0.00    +0.000 A 
ATOM     16  N   UNL     1      45.622   1.769   9.052  0.00  0.00    +0.000 NA
ENDBRANCH  10  11
BRANCH  10  17
ATOM     17  C   UNL     1      43.662   2.345  10.929  0.00  0.00    +0.000 C 
BRANCH  17  18
ATOM     18  N   UNL     1      43.584   2.254  12.397  0.00  0.00    +0.000 NA
ATOM     19  H   UNL     1      44.480   1.914  12.760  0.00  0.00    +0.000 HD
ATOM     20  H   UNL     1      43.471   3.188  12.790  0.00  0.00    +0.000 HD
ENDBRANCH  17  18
ENDBRANCH  10  17
ENDBRANCH   8  10
ENDBRANCH   7   8
ENDBRANCH   1   7
BRANCH   4  21
ATOM     21  C   UNL     1      48.540   6.639  14.143  0.00  0.00    +0.000 C 
BRANCH  21  22
ATOM     22  N   UNL     1      48.211   6.833  15.541  0.00  0.00    +0.000 N 
ATOM     23  C   UNL     1      48.935   6.244  16.543  0.00  0.00    +0.000 C 
ATOM     24  O   UNL     1      49.947   5.586  16.313  0.00  0.00    +0.000 OA
ATOM     25  H   UNL     1      47.273   7.176  15.728  0.00  0.00    +0.000 HD
BRANCH  23  26
ATOM     26  C   UNL     1      48.486   6.486  17.920  0.00  0.00    +0.000 A 
ATOM     27  C   UNL     1      48.425   5.425  18.814  0.00  0.00    +0.000 A 
ATOM     28  S   UNL     1      47.912   5.873  20.377  0.00  0.00    +0.000 S 
ATOM     29  C   UNL     1      47.706   7.494  19.903  0.00  0.00    +0.000 A 
ATOM     30  N   UNL     1      47.242   8.425  20.780  0.00  0.00    +0.000 NA
ATOM     31  C   UNL     1      47.098   9.606  20.277  0.00  0.00    +0.000 A 
ATOM     32  N   UNL     1      47.387   9.942  18.980  0.00  0.00    +0.000 N 
ATOM     33  C   UNL     1      47.895   9.044  18.070  0.00  0.00    +0.000 A 
ATOM     34  O   UNL     1      48.200   9.389  16.934  0.00  0.00    +0.000 OA
ATOM     35  C   UNL     1      48.049   7.695  18.577  0.00  0.00    +0.000 A 
ATOM     36  H   UNL     1      47.265  10.888  18.652  0.00  0.00    +0.000 HD
ENDBRANCH  23  26
ENDBRANCH  21  22
ENDBRANCH   4  21
TORSDOF 9
ENDMDL
MODEL 4
REMARK VINA RESULT:    -7.606      2.743      8.060
REMARK INTER + INTRA:         -12.253
REMARK INTER:                 -10.668
REMARK INTRA:                  -1.585
REMARK UNBOUND:                -0.868
REMARK  Name = 
REMARK  9 active torsions:
REMARK  status: ('A' for Active; 'I' for Inactive)
REMARK    1  A    between atoms: N_1  and  C_2
REMARK    2  A    between atoms: C_2  and  C_3
REMARK    3  A    between atoms: C_3  and  N_4
REMARK    4  A    between atoms: C_3  and  C_26
REMARK    5  A    between atoms: N_4  and  C_5
REMARK    6  A    between atoms: C_5  and  C_6
REMARK    7  A    between atoms: C_9  and  C_10
REMARK    8  A    between atoms: C_10  and  N_11
REMARK    9  A    between atoms: C_12  and  C_14
REMARK                            x       y       z     vdW  Elec       q    Type
REMARK                         _______ _______ _______ _____ _____    ______ ____
ROOT
ATOM      1  C   UNL     1      48.916   7.624  16.260  0.00  0.00    +0.000 A 
ATOM      2  C   UNL     1      48.340   8.787  15.735  0.00  0.00    +0.000 A 
ATOM      3  C   UNL     1      47.896   8.805  14.412  0.00  0.00    +0.000 A 
ATOM      4  C   UNL     1      48.032   7.656  13.635  0.00  0.00    +0.000 A 
ATOM      5  N   UNL     1      48.594   6.518  14.121  0.00  0.00    +0.000 NA
ATOM      6  C   UNL     1      49.017   6.530  15.408  0.00  0.00    +0.000 A 
ENDROOT
BRANCH   1   7
ATOM      7  C   UNL     1      49.505   7.588  17.643  0.00  0.00    +0.000 C 
BRANCH   7   8
ATOM      8  N   UNL     1      48.730   6.757  18.567  0.00  0.00    +0.000 NA
ATOM      9  H   UNL     1      47.953   6.341  18.044  0.00  0.00    +0.000 HD
BRANCH   8  10
ATOM     10  C   UNL     1      49.520   5.626  19.126  0.00  0.00    +0.000 C 
BRANCH  10  11
ATOM     11  C   UNL     1      49.365   4.375  18.251  0.00  0.00    +0.000 A 
ATOM     12  C   UNL     1      50.465   3.583  17.907  0.00  0.00    +0.000 A 
ATOM     13  C   UNL     1      50.268   2.449  17.119  0.00  0.00    +0.000 A 
ATOM     14  C   UNL     1      48.987   2.133  16.689  0.00  0.00    +0.000 A 
ATOM     15  C   UNL     1      47.950   2.969  17.066  0.00  0.00    +0.000 A 
ATOM     16  N   UNL     1      48.106   4.077  17.828  0.00  0.00    +0.000 NA
ENDBRANCH  10  11
BRANCH  10  17
ATOM     17  C   UNL     1      49.193   5.289  20.619  0.00  0.00    +0.000 C 
BRANCH  17  18
ATOM     18  N   UNL     1      48.461   4.029  20.838  0.00  0.00    +0.000 NA
ATOM     19  H   UNL     1      47.505   4.131  20.483  0.00  0.00    +0.000 HD
ATOM     20  H   UNL     1      48.880   3.290  20.275  0.00  0.00    +0.000 HD
ENDBRANCH  17  18
ENDBRANCH  10  17
ENDBRANCH   8  10
ENDBRANCH   7   8
ENDBRANCH   1   7
BRANCH   4  21
ATOM     21  C   UNL     1      47.618   7.665  12.182  0.00  0.00    +0.000 C 
BRANCH  21  22
ATOM     22  N   UNL     1      46.898   6.458  11.831  0.00  0.00    +0.000 N 
ATOM     23  C   UNL     1      45.530   6.398  11.858  0.00  0.00    +0.000 C 
ATOM     24  O   UNL     1      44.841   7.386  12.104  0.00  0.00    +0.000 OA
ATOM     25  H   UNL     1      47.443   5.600  11.848  0.00  0.00    +0.000 HD
BRANCH  23  26
ATOM     26  C   UNL     1      44.912   5.110  11.517  0.00  0.00    +0.000 A 
ATOM     27  C   UNL     1      44.161   4.439  12.472  0.00  0.00    +0.000 A 
ATOM     28  S   UNL     1      43.489   2.975  11.913  0.00  0.00    +0.000 S 
ATOM     29  C   UNL     1      44.219   3.160  10.387  0.00  0.00    +0.000 A 
ATOM     30  N   UNL     1      44.070   2.213   9.422  0.00  0.00    +0.000 NA
ATOM     31  C   UNL     1      44.708   2.464   8.327  0.00  0.00    +0.000 A 
ATOM     32  N   UNL     1      45.471   3.581   8.107  0.00  0.00    +0.000 N 
ATOM     33  C   UNL     1      45.617   4.582   9.039  0.00  0.00    +0.000 A 
ATOM     34  O   UNL     1      46.257   5.598   8.790  0.00  0.00    +0.000 OA
ATOM     35  C   UNL     1      44.943   4.337  10.298  0.00  0.00    +0.000 A 
ATOM     36  H   UNL     1      45.935   3.724   7.223  0.00  0.00    +0.000 HD
ENDBRANCH  23  26
ENDBRANCH  21  22
ENDBRANCH   4  21
TORSDOF 9
ENDMDL
MODEL 5
REMARK VINA RESULT:    -7.376      3.022      3.734
REMARK INTER + INTRA:         -11.909
REMARK INTER:                 -11.352
REMARK INTRA:                  -0.557
REMARK UNBOUND:                -0.868
REMARK  Name = 
REMARK  9 active torsions:
REMARK  status: ('A' for Active; 'I' for Inactive)
REMARK    1  A    between atoms: N_1  and  C_2
REMARK    2  A    between atoms: C_2  and  C_3
REMARK    3  A    between atoms: C_3  and  N_4
REMARK    4  A    between atoms: C_3  and  C_26
REMARK    5  A    between atoms: N_4  and  C_5
REMARK    6  A    between atoms: C_5  and  C_6
REMARK    7  A    between atoms: C_9  and  C_10
REMARK    8  A    between atoms: C_10  and  N_11
REMARK    9  A    between atoms: C_12  and  C_14
REMARK                            x       y       z     vdW  Elec       q    Type
REMARK                         _______ _______ _______ _____ _____    ______ ____
ROOT
ATOM      1  C   UNL     1      46.998   5.437  13.448  0.00  0.00    +0.000 A 
ATOM      2  C   UNL     1      47.701   6.640  13.319  0.00  0.00    +0.000 A 
ATOM      3  C   UNL     1      48.527   7.076  14.356  0.00  0.00    +0.000 A 
ATOM      4  C   UNL     1      48.641   6.297  15.505  0.00  0.00    +0.000 A 
ATOM      5  N   UNL     1      47.964   5.129  15.657  0.00  0.00    +0.000 NA
ATOM      6  C   UNL     1      47.168   4.732  14.635  0.00  0.00    +0.000 A 
ENDROOT
BRANCH   1   7
ATOM      7  C   UNL     1      46.014   4.979  12.407  0.00  0.00    +0.000 C 
BRANCH   7   8
ATOM      8  N   UNL     1      45.086   3.965  12.914  0.00  0.00    +0.000 NA
ATOM      9  H   UNL     1      44.683   4.312  13.789  0.00  0.00    +0.000 HD
BRANCH   8  10
ATOM     10  C   UNL     1      43.946   3.717  11.990  0.00  0.00    +0.000 C 
BRANCH  10  11
ATOM     11  C   UNL     1      44.451   3.487  10.559  0.00  0.00    +0.000 A 
ATOM     12  C   UNL     1      44.799   4.556   9.727  0.00  0.00    +0.000 A 
ATOM     13  C   UNL     1      45.263   4.293   8.438  0.00  0.00    +0.000 A 
ATOM     14  C   UNL     1      45.365   2.978   8.007  0.00  0.00    +0.000 A 
ATOM     15  C   UNL     1      44.995   1.975   8.886  0.00  0.00    +0.000 A 
ATOM     16  N   UNL     1      44.539   2.195  10.142  0.00  0.00    +0.000 NA
ENDBRANCH  10  11
BRANCH  10  17
ATOM     17  C   UNL     1      42.850   4.835  12.006  0.00  0.00    +0.000 C 
BRANCH  17  18
ATOM     18  N   UNL     1      42.611   5.469  13.314  0.00  0.00    +0.000 NA
ATOM     19  H   UNL     1      42.301   6.434  13.166  0.00  0.00    +0.000 HD
ATOM     20  H   UNL     1      41.833   5.003  13.780  0.00  0.00    +0.000 HD
ENDBRANCH  17  18
ENDBRANCH  10  17
ENDBRANCH   8  10
ENDBRANCH   7   8
ENDBRANCH   1   7
BRANCH   4  21
ATOM     21  C   UNL     1      49.480   6.774  16.669  0.00  0.00    +0.000 C 
BRANCH  21  22
ATOM     22  N   UNL     1      50.480   5.792  17.036  0.00  0.00    +0.000 N 
ATOM     23  C   UNL     1      50.693   5.429  18.339  0.00  0.00    +0.000 C 
ATOM     24  O   UNL     1      49.995   5.856  19.256  0.00  0.00    +0.000 OA
ATOM     25  H   UNL     1      51.194   5.610  16.336  0.00  0.00    +0.000 HD
BRANCH  23  26
ATOM     26  C   UNL     1      51.759   4.450  18.592  0.00  0.00    +0.000 A 
ATOM     27  C   UNL     1      52.870   4.828  19.335  0.00  0.00    +0.000 A 
ATOM     28  S   UNL     1      54.002   3.574  19.563  0.00  0.00    +0.000 S 
ATOM     29  C   UNL     1      53.071   2.493  18.635  0.00  0.00    +0.000 A 
ATOM     30  N   UNL     1      53.501   1.223  18.403  0.00  0.00    +0.000 NA
ATOM     31  C   UNL     1      52.715   0.523  17.653  0.00  0.00    +0.000 A 
ATOM     32  N   UNL     1      51.534   0.976  17.125  0.00  0.00    +0.000 N 
ATOM     33  C   UNL     1      51.042   2.237  17.366  0.00  0.00    +0.000 A 
ATOM     34  O   UNL     1      49.953   2.592  16.929  0.00  0.00    +0.000 OA
ATOM     35  C   UNL     1      51.900   3.074  18.180  0.00  0.00    +0.000 A 
ATOM     36  H   UNL     1      50.958   0.374  16.557  0.00  0.00    +0.000 HD
ENDBRANCH  23  26
ENDBRANCH  21  22
ENDBRANCH   4  21
TORSDOF 9
ENDMDL
MODEL 6
REMARK VINA RESULT:    -7.290      2.867      7.682
REMARK INTER + INTRA:         -11.780
REMARK INTER:                 -10.239
REMARK INTRA:                  -1.541
REMARK UNBOUND:                -0.868
REMARK  Name = 
REMARK  9 active torsions:
REMARK  status: ('A' for Active; 'I' for Inactive)
REMARK    1  A    between atoms: N_1  and  C_2
REMARK    2  A    between atoms: C_2  and  C_3
REMARK    3  A    between atoms: C_3  and  N_4
REMARK    4  A    between atoms: C_3  and  C_26
REMARK    5  A    between atoms: N_4  and  C_5
REMARK    6  A    between atoms: C_5  and  C_6
REMARK    7  A    between atoms: C_9  and  C_10
REMARK    8  A    between atoms: C_10  and  N_11
REMARK    9  A    between atoms: C_12  and  C_14
REMARK                            x       y       z     vdW  Elec       q    Type
REMARK                         _______ _______ _______ _____ _____    ______ ____
ROOT
ATOM      1  C   UNL     1      48.644   7.811  16.225  0.00  0.00    +0.000 A 
ATOM      2  C   UNL     1      48.890   6.711  15.395  0.00  0.00    +0.000 A 
ATOM      3  C   UNL     1      48.780   6.848  14.011  0.00  0.00    +0.000 A 
ATOM      4  C   UNL     1      48.429   8.086  13.477  0.00  0.00    +0.000 A 
ATOM      5  N   UNL     1      48.179   9.166  14.262  0.00  0.00    +0.000 NA
ATOM      6  C   UNL     1      48.292   9.004  15.603  0.00  0.00    +0.000 A 
ENDROOT
BRANCH   1   7
ATOM      7  C   UNL     1      48.645   7.688  17.723  0.00  0.00    +0.000 C 
BRANCH   7   8
ATOM      8  N   UNL     1      48.048   6.433  18.188  0.00  0.00    +0.000 NA
ATOM      9  H   UNL     1      47.770   5.890  17.365  0.00  0.00    +0.000 HD
BRANCH   8  10
ATOM     10  C   UNL     1      49.005   5.589  18.952  0.00  0.00    +0.000 C 
BRANCH  10  11
ATOM     11  C   UNL     1      49.346   4.314  18.169  0.00  0.00    +0.000 A 
ATOM     12  C   UNL     1      50.661   3.852  18.062  0.00  0.00    +0.000 A 
ATOM     13  C   UNL     1      50.916   2.681  17.348  0.00  0.00    +0.000 A 
ATOM     14  C   UNL     1      49.861   2.003  16.753  0.00  0.00    +0.000 A 
ATOM     15  C   UNL     1      48.588   2.527  16.898  0.00  0.00    +0.000 A 
ATOM     16  N   UNL     1      48.306   3.661  17.583  0.00  0.00    +0.000 NA
ENDBRANCH  10  11
BRANCH  10  17
ATOM     17  C   UNL     1      48.529   5.226  20.398  0.00  0.00    +0.000 C 
BRANCH  17  18
ATOM     18  N   UNL     1      48.285   3.793  20.644  0.00  0.00    +0.000 NA
ATOM     19  H   UNL     1      48.205   3.309  19.746  0.00  0.00    +0.000 HD
ATOM     20  H   UNL     1      49.099   3.383  21.101  0.00  0.00    +0.000 HD
ENDBRANCH  17  18
ENDBRANCH  10  17
ENDBRANCH   8  10
ENDBRANCH   7   8
ENDBRANCH   1   7
BRANCH   4  21
ATOM     21  C   UNL     1      48.242   8.249  11.986  0.00  0.00    +0.000 C 
BRANCH  21  22
ATOM     22  N   UNL     1      47.560   7.107  11.412  0.00  0.00    +0.000 N 
ATOM     23  C   UNL     1      46.193   7.026  11.373  0.00  0.00    +0.000 C 
ATOM     24  O   UNL     1      45.476   7.950  11.749  0.00  0.00    +0.000 OA
ATOM     25  H   UNL     1      48.120   6.265  11.311  0.00  0.00    +0.000 HD
BRANCH  23  26
ATOM     26  C   UNL     1      45.615   5.804  10.799  0.00  0.00    +0.000 A 
ATOM     27  C   UNL     1      45.773   5.545   9.444  0.00  0.00    +0.000 A 
ATOM     28  S   UNL     1      45.069   4.076   8.939  0.00  0.00    +0.000 S 
ATOM     29  C   UNL     1      44.484   3.756  10.505  0.00  0.00    +0.000 A 
ATOM     30  N   UNL     1      43.747   2.642  10.760  0.00  0.00    +0.000 NA
ATOM     31  C   UNL     1      43.336   2.544  11.981  0.00  0.00    +0.000 A 
ATOM     32  N   UNL     1      43.607   3.453  12.971  0.00  0.00    +0.000 N 
ATOM     33  C   UNL     1      44.381   4.571  12.767  0.00  0.00    +0.000 A 
ATOM     34  O   UNL     1      44.656   5.334  13.687  0.00  0.00    +0.000 OA
ATOM     35  C   UNL     1      44.845   4.744  11.405  0.00  0.00    +0.000 A 
ATOM     36  H   UNL     1      43.267   3.310  13.910  0.00  0.00    +0.000 HD
ENDBRANCH  23  26
ENDBRANCH  21  22
ENDBRANCH   4  21
TORSDOF 9
ENDMDL
MODEL 7
REMARK VINA RESULT:    -6.986      3.111      7.767
REMARK INTER + INTRA:         -11.325
REMARK INTER:                  -9.251
REMARK INTRA:                  -2.074
REMARK UNBOUND:                -0.868
REMARK  Name = 
REMARK  9 active torsions:
REMARK  status: ('A' for Active; 'I' for Inactive)
REMARK    1  A    between atoms: N_1  and  C_2
REMARK    2  A    between atoms: C_2  and  C_3
REMARK    3  A    between atoms: C_3  and  N_4
REMARK    4  A    between atoms: C_3  and  C_26
REMARK    5  A    between atoms: N_4  and  C_5
REMARK    6  A    between atoms: C_5  and  C_6
REMARK    7  A    between atoms: C_9  and  C_10
REMARK    8  A    between atoms: C_10  and  N_11
REMARK    9  A    between atoms: C_12  and  C_14
REMARK                            x       y       z     vdW  Elec       q    Type
REMARK                         _______ _______ _______ _____ _____    ______ ____
ROOT
ATOM      1  C   UNL     1      51.778   6.193  17.844  0.00  0.00    +0.000 A 
ATOM      2  C   UNL     1      51.690   6.351  16.456  0.00  0.00    +0.000 A 
ATOM      3  C   UNL     1      50.741   7.220  15.916  0.00  0.00    +0.000 A 
ATOM      4  C   UNL     1      49.897   7.922  16.774  0.00  0.00    +0.000 A 
ATOM      5  N   UNL     1      49.960   7.780  18.124  0.00  0.00    +0.000 NA
ATOM      6  C   UNL     1      50.889   6.929  18.620  0.00  0.00    +0.000 A 
ENDROOT
BRANCH   1   7
ATOM      7  C   UNL     1      52.709   5.191  18.469  0.00  0.00    +0.000 C 
BRANCH   7   8
ATOM      8  N   UNL     1      52.030   3.948  18.848  0.00  0.00    +0.000 NA
ATOM      9  H   UNL     1      51.140   4.196  19.291  0.00  0.00    +0.000 HD
BRANCH   8  10
ATOM     10  C   UNL     1      51.699   3.093  17.675  0.00  0.00    +0.000 C 
BRANCH  10  11
ATOM     11  C   UNL     1      50.178   2.964  17.514  0.00  0.00    +0.000 A 
ATOM     12  C   UNL     1      49.294   3.601  18.389  0.00  0.00    +0.000 A 
ATOM     13  C   UNL     1      47.920   3.461  18.193  0.00  0.00    +0.000 A 
ATOM     14  C   UNL     1      47.460   2.687  17.137  0.00  0.00    +0.000 A 
ATOM     15  C   UNL     1      48.397   2.082  16.317  0.00  0.00    +0.000 A 
ATOM     16  N   UNL     1      49.736   2.196  16.481  0.00  0.00    +0.000 NA
ENDBRANCH  10  11
BRANCH  10  17
ATOM     17  C   UNL     1      52.364   1.677  17.705  0.00  0.00    +0.000 C 
BRANCH  17  18
ATOM     18  N   UNL     1      51.472   0.565  18.079  0.00  0.00    +0.000 NA
ATOM     19  H   UNL     1      51.556   0.393  19.085  0.00  0.00    +0.000 HD
ATOM     20  H   UNL     1      50.502   0.844  17.933  0.00  0.00    +0.000 HD
ENDBRANCH  17  18
ENDBRANCH  10  17
ENDBRANCH   8  10
ENDBRANCH   7   8
ENDBRANCH   1   7
BRANCH   4  21
ATOM     21  C   UNL     1      48.820   8.823  16.216  0.00  0.00    +0.000 C 
BRANCH  21  22
ATOM     22  N   UNL     1      47.918   8.093  15.348  0.00  0.00    +0.000 N 
ATOM     23  C   UNL     1      47.859   8.333  14.001  0.00  0.00    +0.000 C 
ATOM     24  O   UNL     1      48.622   9.122  13.447  0.00  0.00    +0.000 OA
ATOM     25  H   UNL     1      47.149   7.619  15.812  0.00  0.00    +0.000 HD
BRANCH  23  26
ATOM     26  C   UNL     1      46.882   7.555  13.228  0.00  0.00    +0.000 A 
ATOM     27  C   UNL     1      46.025   8.212  12.354  0.00  0.00    +0.000 A 
ATOM     28  S   UNL     1      44.971   7.169  11.512  0.00  0.00    +0.000 S 
ATOM     29  C   UNL     1      45.588   5.805  12.323  0.00  0.00    +0.000 A 
ATOM     30  N   UNL     1      45.083   4.565  12.086  0.00  0.00    +0.000 NA
ATOM     31  C   UNL     1      45.617   3.627  12.796  0.00  0.00    +0.000 A 
ATOM     32  N   UNL     1      46.618   3.818  13.713  0.00  0.00    +0.000 N 
ATOM     33  C   UNL     1      47.186   5.047  13.955  0.00  0.00    +0.000 A 
ATOM     34  O   UNL     1      48.121   5.175  14.737  0.00  0.00    +0.000 OA
ATOM     35  C   UNL     1      46.603   6.139  13.203  0.00  0.00    +0.000 A 
ATOM     36  H   UNL     1      47.003   3.040  14.227  0.00  0.00    +0.000 HD
ENDBRANCH  23  26
ENDBRANCH  21  22
ENDBRANCH   4  21
TORSDOF 9
ENDMDL
MODEL 8
REMARK VINA RESULT:    -6.719      2.436      3.084
REMARK INTER + INTRA:         -10.926
REMARK INTER:                  -9.810
REMARK INTRA:                  -1.116
REMARK UNBOUND:                -0.868
REMARK  Name = 
REMARK  9 active torsions:
REMARK  status: ('A' for Active; 'I' for Inactive)
REMARK    1  A    between atoms: N_1  and  C_2
REMARK    2  A    between atoms: C_2  and  C_3
REMARK    3  A    between atoms: C_3  and  N_4
REMARK    4  A    between atoms: C_3  and  C_26
REMARK    5  A    between atoms: N_4  and  C_5
REMARK    6  A    between atoms: C_5  and  C_6
REMARK    7  A    between atoms: C_9  and  C_10
REMARK    8  A    between atoms: C_10  and  N_11
REMARK    9  A    between atoms: C_12  and  C_14
REMARK                            x       y       z     vdW  Elec       q    Type
REMARK                         _______ _______ _______ _____ _____    ______ ____
ROOT
ATOM      1  C   UNL     1      46.484   6.489  12.782  0.00  0.00    +0.000 A 
ATOM      2  C   UNL     1      46.728   7.727  12.176  0.00  0.00    +0.000 A 
ATOM      3  C   UNL     1      48.025   8.240  12.145  0.00  0.00    +0.000 A 
ATOM      4  C   UNL     1      49.060   7.503  12.718  0.00  0.00    +0.000 A 
ATOM      5  N   UNL     1      48.847   6.303  13.317  0.00  0.00    +0.000 NA
ATOM      6  C   UNL     1      47.577   5.830  13.334  0.00  0.00    +0.000 A 
ENDROOT
BRANCH   1   7
ATOM      7  C   UNL     1      45.091   5.944  12.936  0.00  0.00    +0.000 C 
BRANCH   7   8
ATOM      8  N   UNL     1      44.971   4.559  12.475  0.00  0.00    +0.000 NA
ATOM      9  H   UNL     1      44.625   3.993  13.256  0.00  0.00    +0.000 HD
BRANCH   8  10
ATOM     10  C   UNL     1      43.987   4.403  11.370  0.00  0.00    +0.000 C 
BRANCH  10  11
ATOM     11  C   UNL     1      44.665   3.824  10.121  0.00  0.00    +0.000 A 
ATOM     12  C   UNL     1      45.304   4.648   9.189  0.00  0.00    +0.000 A 
ATOM     13  C   UNL     1      45.915   4.070   8.076  0.00  0.00    +0.000 A 
ATOM     14  C   UNL     1      45.871   2.693   7.913  0.00  0.00    +0.000 A 
ATOM     15  C   UNL     1      45.214   1.945   8.876  0.00  0.00    +0.000 A 
ATOM     16  N   UNL     1      44.610   2.473   9.966  0.00  0.00    +0.000 NA
ENDBRANCH  10  11
BRANCH  10  17
ATOM     17  C   UNL     1      43.214   5.716  11.008  0.00  0.00    +0.000 C 
BRANCH  17  18
ATOM     18  N   UNL     1      41.945   5.923  11.728  0.00  0.00    +0.000 NA
ATOM     19  H   UNL     1      41.533   6.812  11.431  0.00  0.00    +0.000 HD
ATOM     20  H   UNL     1      41.274   5.208  11.446  0.00  0.00    +0.000 HD
ENDBRANCH  17  18
ENDBRANCH  10  17
ENDBRANCH   8  10
ENDBRANCH   7   8
ENDBRANCH   1   7
BRANCH   4  21
ATOM     21  C   UNL     1      50.464   8.062  12.754  0.00  0.00    +0.000 C 
BRANCH  21  22
ATOM     22  N   UNL     1      51.181   7.612  13.930  0.00  0.00    +0.000 N 
ATOM     23  C   UNL     1      51.257   8.372  15.066  0.00  0.00    +0.000 C 
ATOM     24  O   UNL     1      50.655   9.438  15.176  0.00  0.00    +0.000 OA
ATOM     25  H   UNL     1      51.851   6.863  13.776  0.00  0.00    +0.000 HD
BRANCH  23  26
ATOM     26  C   UNL     1      52.041   7.827  16.182  0.00  0.00    +0.000 A 
ATOM     27  C   UNL     1      53.225   8.452  16.553  0.00  0.00    +0.000 A 
ATOM     28  S   UNL     1      54.002   7.716  17.880  0.00  0.00    +0.000 S 
ATOM     29  C   UNL     1      52.810   6.505  17.975  0.00  0.00    +0.000 A 
ATOM     30  N   UNL     1      52.897   5.512  18.900  0.00  0.00    +0.000 NA
ATOM     31  C   UNL     1      51.946   4.639  18.836  0.00  0.00    +0.000 A 
ATOM     32  N   UNL     1      50.911   4.679  17.939  0.00  0.00    +0.000 N 
ATOM     33  C   UNL     1      50.762   5.686  17.014  0.00  0.00    +0.000 A 
ATOM     34  O   UNL     1      49.792   5.726  16.264  0.00  0.00    +0.000 OA
ATOM     35  C   UNL     1      51.819   6.677  17.025  0.00  0.00    +0.000 A 
ATOM     36  H   UNL     1      50.191   3.973  17.949  0.00  0.00    +0.000 HD
ENDBRANCH  23  26
ENDBRANCH  21  22
ENDBRANCH   4  21
TORSDOF 9
ENDMDL
MODEL 9
REMARK VINA RESULT:    -6.501      5.208      7.831
REMARK INTER + INTRA:         -10.598
REMARK INTER:                  -9.419
REMARK INTRA:                  -1.179
REMARK UNBOUND:                -0.868
REMARK  Name = 
REMARK  9 active torsions:
REMARK  status: ('A' for Active; 'I' for Inactive)
REMARK    1  A    between atoms: N_1  and  C_2
REMARK    2  A    between atoms: C_2  and  C_3
REMARK    3  A    between atoms: C_3  and  N_4
REMARK    4  A    between atoms: C_3  and  C_26
REMARK    5  A    between atoms: N_4  and  C_5
REMARK    6  A    between atoms: C_5  and  C_6
REMARK    7  A    between atoms: C_9  and  C_10
REMARK    8  A    between atoms: C_10  and  N_11
REMARK    9  A    between atoms: C_12  and  C_14
REMARK                            x       y       z     vdW  Elec       q    Type
REMARK                         _______ _______ _______ _____ _____    ______ ____
ROOT
ATOM      1  C   UNL     1      50.288   8.705  11.809  0.00  0.00    +0.000 A 
ATOM      2  C   UNL     1      49.329   9.691  11.547  0.00  0.00    +0.000 A 
ATOM      3  C   UNL     1      48.016   9.515  11.985  0.00  0.00    +0.000 A 
ATOM      4  C   UNL     1      47.683   8.356  12.683  0.00  0.00    +0.000 A 
ATOM      5  N   UNL     1      48.594   7.383  12.944  0.00  0.00    +0.000 NA
ATOM      6  C   UNL     1      49.861   7.580  12.506  0.00  0.00    +0.000 A 
ENDROOT
BRANCH   1   7
ATOM      7  C   UNL     1      51.687   8.798  11.267  0.00  0.00    +0.000 C 
BRANCH   7   8
ATOM      8  N   UNL     1      52.326   7.487  11.121  0.00  0.00    +0.000 NA
ATOM      9  H   UNL     1      51.720   6.903  10.536  0.00  0.00    +0.000 HD
BRANCH   8  10
ATOM     10  C   UNL     1      53.641   7.562  10.429  0.00  0.00    +0.000 C 
BRANCH  10  11
ATOM     11  C   UNL     1      53.448   7.788   8.924  0.00  0.00    +0.000 A 
ATOM     12  C   UNL     1      54.025   8.879   8.269  0.00  0.00    +0.000 A 
ATOM     13  C   UNL     1      53.829   9.033   6.896  0.00  0.00    +0.000 A 
ATOM     14  C   UNL     1      53.059   8.104   6.211  0.00  0.00    +0.000 A 
ATOM     15  C   UNL     1      52.515   7.053   6.930  0.00  0.00    +0.000 A 
ATOM     16  N   UNL     1      52.685   6.875   8.261  0.00  0.00    +0.000 NA
ENDBRANCH  10  11
BRANCH  10  17
ATOM     17  C   UNL     1      54.569   6.325  10.677  0.00  0.00    +0.000 C 
BRANCH  17  18
ATOM     18  N   UNL     1      53.900   5.013  10.639  0.00  0.00    +0.000 NA
ATOM     19  H   UNL     1      54.414   4.358  11.235  0.00  0.00    +0.000 HD
ATOM     20  H   UNL     1      52.974   5.091  11.060  0.00  0.00    +0.000 HD
ENDBRANCH  17  18
ENDBRANCH  10  17
ENDBRANCH   8  10
ENDBRANCH   7   8
ENDBRANCH   1   7
BRANCH   4  21
ATOM     21  C   UNL     1      46.256   8.110  13.116  0.00  0.00    +0.000 C 
BRANCH  21  22
ATOM     22  N   UNL     1      45.816   6.779  12.750  0.00  0.00    +0.000 N 
ATOM     23  C   UNL     1      44.976   6.561  11.690  0.00  0.00    +0.000 C 
ATOM     24  O   UNL     1      44.617   7.471  10.947  0.00  0.00    +0.000 OA
ATOM     25  H   UNL     1      45.917   6.069  13.470  0.00  0.00    +0.000 HD
BRANCH  23  26
ATOM     26  C   UNL     1      44.570   5.172  11.437  0.00  0.00    +0.000 A 
ATOM     27  C   UNL     1      43.812   4.499  12.387  0.00  0.00    +0.000 A 
ATOM     28  S   UNL     1      43.398   2.908  11.934  0.00  0.00    +0.000 S 
ATOM     29  C   UNL     1      44.259   3.044  10.472  0.00  0.00    +0.000 A 
ATOM     30  N   UNL     1      44.338   1.996   9.608  0.00  0.00    +0.000 NA
ATOM     31  C   UNL     1      45.053   2.225   8.557  0.00  0.00    +0.000 A 
ATOM     32  N   UNL     1      45.685   3.411   8.287  0.00  0.00    +0.000 N 
ATOM     33  C   UNL     1      45.600   4.508   9.111  0.00  0.00    +0.000 A 
ATOM     34  O   UNL     1      46.127   5.574   8.812  0.00  0.00    +0.000 OA
ATOM     35  C   UNL     1      44.831   4.296  10.320  0.00  0.00    +0.000 A 
ATOM     36  H   UNL     1      46.219   3.530   7.439  0.00  0.00    +0.000 HD
ENDBRANCH  23  26
ENDBRANCH  21  22
ENDBRANCH   4  21
TORSDOF 9
ENDMDL
