MODEL 1
REMARK VINA RESULT:    -7.085      0.000      0.000
REMARK INTER + INTRA:          -9.333
REMARK INTER:                  -8.949
REMARK INTRA:                  -0.383
REMARK UNBOUND:                -0.383
REMARK  Name = 
REMARK  5 active torsions:
REMARK  status: ('A' for Active; 'I' for Inactive)
REMARK    1  A    between atoms: N_1  and  C_2
REMARK    2  A    between atoms: C_2  and  C_3
REMARK    3  A    between atoms: C_6  and  S_7
REMARK    4  A    between atoms: S_7  and  C_8
REMARK    5  A    between atoms: C_8  and  C_9
REMARK                            x       y       z     vdW  Elec       q    Type
REMARK                         _______ _______ _______ _____ _____    ______ ____
ROOT
ATOM      1  C   UNL     1      46.564   2.355   7.548  0.00  0.00    +0.000 A 
ATOM      2  C   UNL     1      45.786   1.641   8.470  0.00  0.00    +0.000 A 
ATOM      3  C   UNL     1      44.941   2.306   9.371  0.00  0.00    +0.000 A 
ATOM      4  C   UNL     1      44.864   3.701   9.379  0.00  0.00    +0.000 A 
ATOM      5  C   UNL     1      45.610   4.411   8.427  0.00  0.00    +0.000 A 
ATOM      6  C   UNL     1      46.456   3.749   7.527  0.00  0.00    +0.000 A 
ENDROOT
BRANCH   1   7
ATOM      7  C   UNL     1      47.533   1.644   6.634  0.00  0.00    +0.000 C 
BRANCH   7   8
ATOM      8  N   UNL     1      48.647   2.499   6.242  0.00  0.00    +0.000 NA
ATOM      9  H   UNL     1      49.069   2.898   7.079  0.00  0.00    +0.000 HD
ATOM     10  H   UNL     1      48.285   3.282   5.703  0.00  0.00    +0.000 HD
ENDBRANCH   7   8
ENDBRANCH   1   7
BRANCH   4  11
ATOM     11  S   UNL     1      43.815   4.644  10.481  0.00  0.00    +0.000 S 
BRANCH  11  12
ATOM     12  C   UNL     1      44.929   5.959  11.085  0.00  0.00    +0.000 C 
BRANCH  12  13
ATOM     13  C   UNL     1      45.722   5.513  12.278  0.00  0.00    +0.000 A 
ATOM     14  C   UNL     1      46.938   6.068  12.627  0.00  0.00    +0.000 A 
ATOM     15  N   UNL     1      47.666   5.678  13.695  0.00  0.00    +0.000 NA
ATOM     16  C   UNL     1      47.144   4.681  14.425  0.00  0.00    +0.000 A 
ATOM     17  N   UNL     1      45.980   4.067  14.192  0.00  0.00    +0.000 NA
ATOM     18  C   UNL     1      45.294   4.497  13.113  0.00  0.00    +0.000 A 
ENDBRANCH  12  13
ENDBRANCH  11  12
ENDBRANCH   4  11
TORSDOF 5
ENDMDL
MODEL 2
REMARK VINA RESULT:    -6.472      1.496      5.977
REMARK INTER + INTRA:          -8.558
REMARK INTER:                  -8.204
REMARK INTRA:                  -0.354
REMARK UNBOUND:                -0.383
REMARK  Name = 
REMARK  5 active torsions:
REMARK  status: ('A' for Active; 'I' for Inactive)
REMARK    1  A    between atoms: N_1  and  C_2
REMARK    2  A    between atoms: C_2  and  C_3
REMARK    3  A    between atoms: C_6  and  S_7
REMARK    4  A    between atoms: S_7  and  C_8
REMARK    5  A    between atoms: C_8  and  C_9
REMARK                            x       y       z     vdW  Elec       q    Type
REMARK                         _______ _______ _______ _____ _____    ______ ____
ROOT
ATOM      1  C   UNL     1      47.011   6.182  13.033  0.00  0.00    +0.000 A 
ATOM      2  C   UNL     1      46.618   6.620  11.761  0.00  0.00    +0.000 A 
ATOM      3  C   UNL     1      45.732   5.864  10.978  0.00  0.00    +0.000 A 
ATOM      4  C   UNL     1      45.229   4.648  11.446  0.00  0.00    +0.000 A 
ATOM      5  C   UNL     1      45.589   4.233  12.736  0.00  0.00    +0.000 A 
ATOM      6  C   UNL     1      46.475   4.986  13.519  0.00  0.00    +0.000 A 
ENDROOT
BRANCH   1   7
ATOM      7  C   UNL     1      48.026   6.954  13.841  0.00  0.00    +0.000 C 
BRANCH   7   8
ATOM      8  N   UNL     1      49.393   6.681  13.414  0.00  0.00    +0.000 NA
ATOM      9  H   UNL     1      49.370   6.237  12.496  0.00  0.00    +0.000 HD
ATOM     10  H   UNL     1      49.805   6.002  14.049  0.00  0.00    +0.000 HD
ENDBRANCH   7   8
ENDBRANCH   1   7
BRANCH   4  11
ATOM     11  S   UNL     1      44.091   3.612  10.530  0.00  0.00    +0.000 S 
BRANCH  11  12
ATOM     12  C   UNL     1      44.481   4.008   8.792  0.00  0.00    +0.000 C 
BRANCH  12  13
ATOM     13  C   UNL     1      45.520   3.083   8.228  0.00  0.00    +0.000 A 
ATOM     14  C   UNL     1      46.485   3.490   7.328  0.00  0.00    +0.000 A 
ATOM     15  N   UNL     1      47.425   2.673   6.809  0.00  0.00    +0.000 NA
ATOM     16  C   UNL     1      47.373   1.394   7.212  0.00  0.00    +0.000 A 
ATOM     17  N   UNL     1      46.491   0.881   8.076  0.00  0.00    +0.000 NA
ATOM     18  C   UNL     1      45.576   1.743   8.564  0.00  0.00    +0.000 A 
ENDBRANCH  12  13
ENDBRANCH  11  12
ENDBRANCH   4  11
TORSDOF 5
ENDMDL
MODEL 3
REMARK VINA RESULT:    -5.227      1.845      2.964
REMARK INTER + INTRA:          -6.986
REMARK INTER:                  -6.658
REMARK INTRA:                  -0.327
REMARK UNBOUND:                -0.383
REMARK  Name = 
REMARK  5 active torsions:
REMARK  status: ('A' for Active; 'I' for Inactive)
REMARK    1  A    between atoms: N_1  and  C_2
REMARK    2  A    between atoms: C_2  and  C_3
REMARK    3  A    between atoms: C_6  and  S_7
REMARK    4  A    between atoms: S_7  and  C_8
REMARK    5  A    between atoms: C_8  and  C_9
REMARK                            x       y       z     vdW  Elec       q    Type
REMARK                         _______ _______ _______ _____ _____    ______ ____
ROOT
ATOM      1  C   UNL     1      45.441   3.814   8.667  0.00  0.00    +0.000 A 
ATOM      2  C   UNL     1      45.785   5.123   9.033  0.00  0.00    +0.000 A 
ATOM      3  C   UNL     1      45.594   5.581  10.345  0.00  0.00    +0.000 A 
ATOM      4  C   UNL     1      45.045   4.743  11.319  0.00  0.00    +0.000 A 
ATOM      5  C   UNL     1      44.742   3.421  10.962  0.00  0.00    +0.000 A 
ATOM      6  C   UNL     1      44.930   2.962   9.651  0.00  0.00    +0.000 A 
ENDROOT
BRANCH   1   7
ATOM      7  C   UNL     1      45.570   3.348   7.237  0.00  0.00    +0.000 C 
BRANCH   7   8
ATOM      8  N   UNL     1      46.682   3.989   6.547  0.00  0.00    +0.000 NA
ATOM      9  H   UNL     1      47.369   4.291   7.236  0.00  0.00    +0.000 HD
ATOM     10  H   UNL     1      46.342   4.834   6.093  0.00  0.00    +0.000 HD
ENDBRANCH   7   8
ENDBRANCH   1   7
BRANCH   4  11
ATOM     11  S   UNL     1      44.767   5.226  13.021  0.00  0.00    +0.000 S 
BRANCH  11  12
ATOM     12  C   UNL     1      46.131   4.401  13.910  0.00  0.00    +0.000 C 
BRANCH  12  13
ATOM     13  C   UNL     1      47.254   5.350  14.212  0.00  0.00    +0.000 A 
ATOM     14  C   UNL     1      47.918   5.373  15.422  0.00  0.00    +0.000 A 
ATOM     15  N   UNL     1      48.928   6.221  15.712  0.00  0.00    +0.000 NA
ATOM     16  C   UNL     1      49.265   7.082  14.740  0.00  0.00    +0.000 A 
ATOM     17  N   UNL     1      48.700   7.156  13.531  0.00  0.00    +0.000 NA
ATOM     18  C   UNL     1      47.698   6.285  13.295  0.00  0.00    +0.000 A 
ENDBRANCH  12  13
ENDBRANCH  11  12
ENDBRANCH   4  11
TORSDOF 5
ENDMDL
MODEL 4
REMARK VINA RESULT:    -5.212      2.681      6.763
REMARK INTER + INTRA:          -6.967
REMARK INTER:                  -6.655
REMARK INTRA:                  -0.311
REMARK UNBOUND:                -0.383
REMARK  Name = 
REMARK  5 active torsions:
REMARK  status: ('A' for Active; 'I' for Inactive)
REMARK    1  A    between atoms: N_1  and  C_2
REMARK    2  A    between atoms: C_2  and  C_3
REMARK    3  A    between atoms: C_6  and  S_7
REMARK    4  A    between atoms: S_7  and  C_8
REMARK    5  A    between atoms: C_8  and  C_9
REMARK                            x       y       z     vdW  Elec       q    Type
REMARK                         _______ _______ _______ _____ _____    ______ ____
ROOT
ATOM      1  C   UNL     1      47.687   4.609  16.163  0.00  0.00    +0.000 A 
ATOM      2  C   UNL     1      48.391   5.796  15.920  0.00  0.00    +0.000 A 
ATOM      3  C   UNL     1      48.282   6.461  14.689  0.00  0.00    +0.000 A 
ATOM      4  C   UNL     1      47.476   5.948  13.671  0.00  0.00    +0.000 A 
ATOM      5  C   UNL     1      46.739   4.784  13.932  0.00  0.00    +0.000 A 
ATOM      6  C   UNL     1      46.847   4.116  15.160  0.00  0.00    +0.000 A 
ENDROOT
BRANCH   1   7
ATOM      7  C   UNL     1      47.868   3.850  17.456  0.00  0.00    +0.000 C 
BRANCH   7   8
ATOM      8  N   UNL     1      46.763   2.935  17.716  0.00  0.00    +0.000 NA
ATOM      9  H   UNL     1      46.781   2.667  18.699  0.00  0.00    +0.000 HD
ATOM     10  H   UNL     1      46.913   2.081  17.184  0.00  0.00    +0.000 HD
ENDBRANCH   7   8
ENDBRANCH   1   7
BRANCH   4  11
ATOM     11  S   UNL     1      47.263   6.722  12.070  0.00  0.00    +0.000 S 
BRANCH  11  12
ATOM     12  C   UNL     1      45.493   6.453  11.715  0.00  0.00    +0.000 C 
BRANCH  12  13
ATOM     13  C   UNL     1      45.291   5.464  10.604  0.00  0.00    +0.000 A 
ATOM     14  C   UNL     1      45.935   5.555   9.386  0.00  0.00    +0.000 A 
ATOM     15  N   UNL     1      45.763   4.678   8.375  0.00  0.00    +0.000 NA
ATOM     16  C   UNL     1      44.898   3.679   8.609  0.00  0.00    +0.000 A 
ATOM     17  N   UNL     1      44.217   3.483   9.742  0.00  0.00    +0.000 NA
ATOM     18  C   UNL     1      44.428   4.389  10.718  0.00  0.00    +0.000 A 
ENDBRANCH  12  13
ENDBRANCH  11  12
ENDBRANCH   4  11
TORSDOF 5
ENDMDL
MODEL 5
REMARK VINA RESULT:    -5.101      2.328      6.350
REMARK INTER + INTRA:          -6.827
REMARK INTER:                  -6.490
REMARK INTRA:                  -0.337
REMARK UNBOUND:                -0.383
REMARK  Name = 
REMARK  5 active torsions:
REMARK  status: ('A' for Active; 'I' for Inactive)
REMARK    1  A    between atoms: N_1  and  C_2
REMARK    2  A    between atoms: C_2  and  C_3
REMARK    3  A    between atoms: C_6  and  S_7
REMARK    4  A    between atoms: S_7  and  C_8
REMARK    5  A    between atoms: C_8  and  C_9
REMARK                            x       y       z     vdW  Elec       q    Type
REMARK                         _______ _______ _______ _____ _____    ______ ____
ROOT
ATOM      1  C   UNL     1      47.842   7.573  13.286  0.00  0.00    +0.000 A 
ATOM      2  C   UNL     1      47.888   6.456  14.131  0.00  0.00    +0.000 A 
ATOM      3  C   UNL     1      47.084   5.332  13.886  0.00  0.00    +0.000 A 
ATOM      4  C   UNL     1      46.209   5.305  12.798  0.00  0.00    +0.000 A 
ATOM      5  C   UNL     1      46.197   6.406  11.929  0.00  0.00    +0.000 A 
ATOM      6  C   UNL     1      46.998   7.531  12.172  0.00  0.00    +0.000 A 
ENDROOT
BRANCH   1   7
ATOM      7  C   UNL     1      48.646   8.813  13.594  0.00  0.00    +0.000 C 
BRANCH   7   8
ATOM      8  N   UNL     1      47.816  10.011  13.635  0.00  0.00    +0.000 NA
ATOM      9  H   UNL     1      46.860   9.760  13.387  0.00  0.00    +0.000 HD
ATOM     10  H   UNL     1      48.138  10.657  12.918  0.00  0.00    +0.000 HD
ENDBRANCH   7   8
ENDBRANCH   1   7
BRANCH   4  11
ATOM     11  S   UNL     1      45.147   3.920  12.395  0.00  0.00    +0.000 S 
BRANCH  11  12
ATOM     12  C   UNL     1      44.371   4.440  10.827  0.00  0.00    +0.000 C 
BRANCH  12  13
ATOM     13  C   UNL     1      45.049   3.825   9.638  0.00  0.00    +0.000 A 
ATOM     14  C   UNL     1      45.153   2.461   9.450  0.00  0.00    +0.000 A 
ATOM     15  N   UNL     1      45.762   1.890   8.390  0.00  0.00    +0.000 NA
ATOM     16  C   UNL     1      46.293   2.737   7.495  0.00  0.00    +0.000 A 
ATOM     17  N   UNL     1      46.256   4.072   7.564  0.00  0.00    +0.000 NA
ATOM     18  C   UNL     1      45.634   4.588   8.643  0.00  0.00    +0.000 A 
ENDBRANCH  12  13
ENDBRANCH  11  12
ENDBRANCH   4  11
TORSDOF 5
ENDMDL
MODEL 6
REMARK VINA RESULT:    -4.530      4.691      8.229
REMARK INTER + INTRA:          -6.105
REMARK INTER:                  -5.817
REMARK INTRA:                  -0.288
REMARK UNBOUND:                -0.383
REMARK  Name = 
REMARK  5 active torsions:
REMARK  status: ('A' for Active; 'I' for Inactive)
REMARK    1  A    between atoms: N_1  and  C_2
REMARK    2  A    between atoms: C_2  and  C_3
REMARK    3  A    between atoms: C_6  and  S_7
REMARK    4  A    between atoms: S_7  and  C_8
REMARK    5  A    between atoms: C_8  and  C_9
REMARK                            x       y       z     vdW  Elec       q    Type
REMARK                         _______ _______ _______ _____ _____    ______ ____
ROOT
ATOM      1  C   UNL     1      51.708   2.340  17.670  0.00  0.00    +0.000 A 
ATOM      2  C   UNL     1      51.803   3.726  17.856  0.00  0.00    +0.000 A 
ATOM      3  C   UNL     1      50.699   4.563  17.633  0.00  0.00    +0.000 A 
ATOM      4  C   UNL     1      49.478   4.033  17.209  0.00  0.00    +0.000 A 
ATOM      5  C   UNL     1      49.373   2.642  17.066  0.00  0.00    +0.000 A 
ATOM      6  C   UNL     1      50.475   1.804  17.286  0.00  0.00    +0.000 A 
ENDROOT
BRANCH   1   7
ATOM      7  C   UNL     1      52.917   1.450  17.831  0.00  0.00    +0.000 C 
BRANCH   7   8
ATOM      8  N   UNL     1      52.550   0.074  18.141  0.00  0.00    +0.000 NA
ATOM      9  H   UNL     1      52.700  -0.503  17.315  0.00  0.00    +0.000 HD
ATOM     10  H   UNL     1      51.552   0.037  18.337  0.00  0.00    +0.000 HD
ENDBRANCH   7   8
ENDBRANCH   1   7
BRANCH   4  11
ATOM     11  S   UNL     1      48.010   5.011  16.903  0.00  0.00    +0.000 S 
BRANCH  11  12
ATOM     12  C   UNL     1      47.135   4.051  15.621  0.00  0.00    +0.000 C 
BRANCH  12  13
ATOM     13  C   UNL     1      46.948   4.844  14.360  0.00  0.00    +0.000 A 
ATOM     14  C   UNL     1      47.734   5.930  14.028  0.00  0.00    +0.000 A 
ATOM     15  N   UNL     1      47.579   6.657  12.902  0.00  0.00    +0.000 NA
ATOM     16  C   UNL     1      46.581   6.272  12.091  0.00  0.00    +0.000 A 
ATOM     17  N   UNL     1      45.757   5.241  12.301  0.00  0.00    +0.000 NA
ATOM     18  C   UNL     1      45.958   4.549  13.441  0.00  0.00    +0.000 A 
ENDBRANCH  12  13
ENDBRANCH  11  12
ENDBRANCH   4  11
TORSDOF 5
ENDMDL
MODEL 7
REMARK VINA RESULT:    -4.411      3.672      5.251
REMARK INTER + INTRA:          -5.955
REMARK INTER:                  -5.639
REMARK INTRA:                  -0.316
REMARK UNBOUND:                -0.383
REMARK  Name = 
REMARK  5 active torsions:
REMARK  status: ('A' for Active; 'I' for Inactive)
REMARK    1  A    between atoms: N_1  and  C_2
REMARK    2  A    between atoms: C_2  and  C_3
REMARK    3  A    between atoms: C_6  and  S_7
REMARK    4  A    between atoms: S_7  and  C_8
REMARK    5  A    between atoms: C_8  and  C_9
REMARK                            x       y       z     vdW  Elec       q    Type
REMARK                         _______ _______ _______ _____ _____    ______ ____
ROOT
ATOM      1  C   UNL     1      44.387   4.243  11.226  0.00  0.00    +0.000 A 
ATOM      2  C   UNL     1      45.238   5.037  10.445  0.00  0.00    +0.000 A 
ATOM      3  C   UNL     1      45.699   6.277  10.912  0.00  0.00    +0.000 A 
ATOM      4  C   UNL     1      45.311   6.756  12.165  0.00  0.00    +0.000 A 
ATOM      5  C   UNL     1      44.495   5.940  12.963  0.00  0.00    +0.000 A 
ATOM      6  C   UNL     1      44.031   4.701  12.498  0.00  0.00    +0.000 A 
ENDROOT
BRANCH   1   7
ATOM      7  C   UNL     1      43.827   2.947  10.691  0.00  0.00    +0.000 C 
BRANCH   7   8
ATOM      8  N   UNL     1      43.221   2.135  11.739  0.00  0.00    +0.000 NA
ATOM      9  H   UNL     1      43.141   1.174  11.408  0.00  0.00    +0.000 HD
ATOM     10  H   UNL     1      42.272   2.462  11.900  0.00  0.00    +0.000 HD
ENDBRANCH   7   8
ENDBRANCH   1   7
BRANCH   4  11
ATOM     11  S   UNL     1      45.846   8.319  12.855  0.00  0.00    +0.000 S 
BRANCH  11  12
ATOM     12  C   UNL     1      47.426   7.892  13.664  0.00  0.00    +0.000 C 
BRANCH  12  13
ATOM     13  C   UNL     1      48.606   8.298  12.831  0.00  0.00    +0.000 A 
ATOM     14  C   UNL     1      49.402   7.392  12.157  0.00  0.00    +0.000 A 
ATOM     15  N   UNL     1      50.468   7.738  11.405  0.00  0.00    +0.000 NA
ATOM     16  C   UNL     1      50.741   9.050  11.348  0.00  0.00    +0.000 A 
ATOM     17  N   UNL     1      50.048  10.021  11.952  0.00  0.00    +0.000 NA
ATOM     18  C   UNL     1      48.992   9.618  12.688  0.00  0.00    +0.000 A 
ENDBRANCH  12  13
ENDBRANCH  11  12
ENDBRANCH   4  11
TORSDOF 5
ENDMDL
MODEL 8
REMARK VINA RESULT:    -4.404      4.513      5.589
REMARK INTER + INTRA:          -5.946
REMARK INTER:                  -5.620
REMARK INTRA:                  -0.326
REMARK UNBOUND:                -0.383
REMARK  Name = 
REMARK  5 active torsions:
REMARK  status: ('A' for Active; 'I' for Inactive)
REMARK    1  A    between atoms: N_1  and  C_2
REMARK    2  A    between atoms: C_2  and  C_3
REMARK    3  A    between atoms: C_6  and  S_7
REMARK    4  A    between atoms: S_7  and  C_8
REMARK    5  A    between atoms: C_8  and  C_9
REMARK                            x       y       z     vdW  Elec       q    Type
REMARK                         _______ _______ _______ _____ _____    ______ ____
ROOT
ATOM      1  C   UNL     1      44.439   5.683  11.716  0.00  0.00    +0.000 A 
ATOM      2  C   UNL     1      44.888   6.975  11.409  0.00  0.00    +0.000 A 
ATOM      3  C   UNL     1      46.174   7.400  11.776  0.00  0.00    +0.000 A 
ATOM      4  C   UNL     1      47.035   6.545  12.468  0.00  0.00    +0.000 A 
ATOM      5  C   UNL     1      46.600   5.239  12.736  0.00  0.00    +0.000 A 
ATOM      6  C   UNL     1      45.315   4.813  12.372  0.00  0.00    +0.000 A 
ENDROOT
BRANCH   1   7
ATOM      7  C   UNL     1      43.028   5.254  11.394  0.00  0.00    +0.000 C 
BRANCH   7   8
ATOM      8  N   UNL     1      42.046   6.267  11.764  0.00  0.00    +0.000 NA
ATOM      9  H   UNL     1      42.282   7.142  11.296  0.00  0.00    +0.000 HD
ATOM     10  H   UNL     1      42.122   6.447  12.762  0.00  0.00    +0.000 HD
ENDBRANCH   7   8
ENDBRANCH   1   7
BRANCH   4  11
ATOM     11  S   UNL     1      48.695   6.986  12.976  0.00  0.00    +0.000 S 
BRANCH  11  12
ATOM     12  C   UNL     1      48.469   7.509  14.710  0.00  0.00    +0.000 C 
BRANCH  12  13
ATOM     13  C   UNL     1      49.008   6.492  15.674  0.00  0.00    +0.000 A 
ATOM     14  C   UNL     1      50.240   6.611  16.287  0.00  0.00    +0.000 A 
ATOM     15  N   UNL     1      50.742   5.705  17.153  0.00  0.00    +0.000 NA
ATOM     16  C   UNL     1      49.967   4.637  17.394  0.00  0.00    +0.000 A 
ATOM     17  N   UNL     1      48.760   4.409  16.866  0.00  0.00    +0.000 NA
ATOM     18  C   UNL     1      48.308   5.347  16.009  0.00  0.00    +0.000 A 
ENDBRANCH  12  13
ENDBRANCH  11  12
ENDBRANCH   4  11
TORSDOF 5
ENDMDL
MODEL 9
REMARK VINA RESULT:    -4.165      4.852      6.083
REMARK INTER + INTRA:          -5.643
REMARK INTER:                  -5.429
REMARK INTRA:                  -0.215
REMARK UNBOUND:                -0.383
REMARK  Name = 
REMARK  5 active torsions:
REMARK  status: ('A' for Active; 'I' for Inactive)
REMARK    1  A    between atoms: N_1  and  C_2
REMARK    2  A    between atoms: C_2  and  C_3
REMARK    3  A    between atoms: C_6  and  S_7
REMARK    4  A    between atoms: S_7  and  C_8
REMARK    5  A    between atoms: C_8  and  C_9
REMARK                            x       y       z     vdW  Elec       q    Type
REMARK                         _______ _______ _______ _____ _____    ______ ____
ROOT
ATOM      1  C   UNL     1      44.327   5.680  11.841  0.00  0.00    +0.000 A 
ATOM      2  C   UNL     1      45.335   6.638  11.665  0.00  0.00    +0.000 A 
ATOM      3  C   UNL     1      46.460   6.666  12.503  0.00  0.00    +0.000 A 
ATOM      4  C   UNL     1      46.597   5.742  13.542  0.00  0.00    +0.000 A 
ATOM      5  C   UNL     1      45.610   4.758  13.689  0.00  0.00    +0.000 A 
ATOM      6  C   UNL     1      44.484   4.729  12.855  0.00  0.00    +0.000 A 
ENDROOT
BRANCH   1   7
ATOM      7  C   UNL     1      43.079   5.701  10.993  0.00  0.00    +0.000 C 
BRANCH   7   8
ATOM      8  N   UNL     1      41.918   6.178  11.734  0.00  0.00    +0.000 NA
ATOM      9  H   UNL     1      41.137   5.544  11.570  0.00  0.00    +0.000 HD
ATOM     10  H   UNL     1      41.637   7.080  11.356  0.00  0.00    +0.000 HD
ENDBRANCH   7   8
ENDBRANCH   1   7
BRANCH   4  11
ATOM     11  S   UNL     1      47.994   5.688  14.661  0.00  0.00    +0.000 S 
BRANCH  11  12
ATOM     12  C   UNL     1      47.503   4.412  15.871  0.00  0.00    +0.000 C 
BRANCH  12  13
ATOM     13  C   UNL     1      48.141   4.638  17.210  0.00  0.00    +0.000 A 
ATOM     14  C   UNL     1      49.459   4.327  17.481  0.00  0.00    +0.000 A 
ATOM     15  N   UNL     1      50.049   4.520  18.679  0.00  0.00    +0.000 NA
ATOM     16  C   UNL     1      49.266   5.038  19.638  0.00  0.00    +0.000 A 
ATOM     17  N   UNL     1      47.982   5.380  19.500  0.00  0.00    +0.000 NA
ATOM     18  C   UNL     1      47.444   5.166  18.282  0.00  0.00    +0.000 A 
ENDBRANCH  12  13
ENDBRANCH  11  12
ENDBRANCH   4  11
TORSDOF 5
ENDMDL
