MODEL 1
REMARK VINA RESULT:    -8.348      0.000      0.000
REMARK INTER + INTRA:         -11.525
REMARK INTER:                 -10.788
REMARK INTRA:                  -0.737
REMARK UNBOUND:                -0.737
REMARK  Name = 
REMARK  6 active torsions:
REMARK  status: ('A' for Active; 'I' for Inactive)
REMARK    1  A    between atoms: C_1  and  C_2
REMARK    2  A    between atoms: C_4  and  O_5
REMARK    3  A    between atoms: O_5  and  C_6
REMARK    4  A    between atoms: C_6  and  C_7
REMARK    5  A    between atoms: C_11  and  C_12
REMARK    6  A    between atoms: C_22  and  C_23
REMARK                            x       y       z     vdW  Elec       q    Type
REMARK                         _______ _______ _______ _____ _____    ______ ____
ROOT
ATOM      1  C   UNL     1      45.062   5.845  13.251  0.00  0.00    +0.000 C 
ENDROOT
BRANCH   1   2
ATOM      2  C   UNL     1      44.579   4.766  12.321  0.00  0.00    +0.000 A 
ATOM      3  C   UNL     1      43.460   4.009  12.630  0.00  0.00    +0.000 A 
ATOM      4  N   UNL     1      43.000   3.000  11.862  0.00  0.00    +0.000 NA
ATOM      5  C   UNL     1      43.693   2.736  10.726  0.00  0.00    +0.000 A 
ATOM      6  C   UNL     1      44.822   3.433  10.286  0.00  0.00    +0.000 A 
ATOM      7  C   UNL     1      45.249   4.476  11.125  0.00  0.00    +0.000 A 
BRANCH   6   8
ATOM      8  C   UNL     1      45.517   3.099   9.023  0.00  0.00    +0.000 A 
ATOM      9  C   UNL     1      45.908   4.099   8.113  0.00  0.00    +0.000 A 
ATOM     10  C   UNL     1      46.586   3.786   6.929  0.00  0.00    +0.000 A 
ATOM     11  C   UNL     1      46.902   2.463   6.627  0.00  0.00    +0.000 A 
ATOM     12 CL   UNL     1      47.766   2.151   5.165  0.00  0.00    +0.000 Cl
ATOM     13  C   UNL     1      46.521   1.449   7.507  0.00  0.00    +0.000 A 
ATOM     14 CL   UNL     1      46.871  -0.217   7.209  0.00  0.00    +0.000 Cl
ATOM     15  C   UNL     1      45.830   1.768   8.686  0.00  0.00    +0.000 A 
ENDBRANCH   6   8
ENDBRANCH   1   2
BRANCH   1  16
ATOM     16  O   UNL     1      46.441   6.136  12.991  0.00  0.00    +0.000 OA
BRANCH  16  20
ATOM     17  C   UNL     1      50.114   7.413  15.936  0.00  0.00    +0.000 C 
ATOM     18  C   UNL     1      49.004   6.501  15.506  0.00  0.00    +0.000 A 
ATOM     19  C   UNL     1      48.229   6.784  14.396  0.00  0.00    +0.000 A 
ATOM     20  C   UNL     1      47.235   5.875  14.095  0.00  0.00    +0.000 A 
ATOM     21  N   UNL     1      47.005   4.769  14.810  0.00  0.00    +0.000 NA
ATOM     22  C   UNL     1      47.806   4.579  15.866  0.00  0.00    +0.000 A 
ATOM     23  N   UNL     1      48.808   5.399  16.261  0.00  0.00    +0.000 NA
BRANCH  22  24
ATOM     24  C   UNL     1      47.571   3.334  16.684  0.00  0.00    +0.000 C 
ATOM     25  N   UNL     1      48.573   2.397  16.654  0.00  0.00    +0.000 N 
ATOM     26  O   UNL     1      46.556   3.142  17.344  0.00  0.00    +0.000 OA
ATOM     27  H   UNL     1      49.409   2.556  16.104  0.00  0.00    +0.000 HD
ATOM     28  H   UNL     1      48.457   1.542  17.180  0.00  0.00    +0.000 HD
ENDBRANCH  22  24
ENDBRANCH  16  20
ENDBRANCH   1  16
TORSDOF 5
ENDMDL
MODEL 2
REMARK VINA RESULT:    -8.300      1.130      1.212
REMARK INTER + INTRA:         -11.463
REMARK INTER:                 -10.946
REMARK INTRA:                  -0.517
REMARK UNBOUND:                -0.737
REMARK  Name = 
REMARK  6 active torsions:
REMARK  status: ('A' for Active; 'I' for Inactive)
REMARK    1  A    between atoms: C_1  and  C_2
REMARK    2  A    between atoms: C_4  and  O_5
REMARK    3  A    between atoms: O_5  and  C_6
REMARK    4  A    between atoms: C_6  and  C_7
REMARK    5  A    between atoms: C_11  and  C_12
REMARK    6  A    between atoms: C_22  and  C_23
REMARK                            x       y       z     vdW  Elec       q    Type
REMARK                         _______ _______ _______ _____ _____    ______ ____
ROOT
ATOM      1  C   UNL     1      44.484   6.571  12.590  0.00  0.00    +0.000 C 
ENDROOT
BRANCH   1   2
ATOM      2  C   UNL     1      44.217   5.270  11.885  0.00  0.00    +0.000 A 
ATOM      3  C   UNL     1      43.255   4.389  12.356  0.00  0.00    +0.000 A 
ATOM      4  N   UNL     1      42.997   3.190  11.796  0.00  0.00    +0.000 NA
ATOM      5  C   UNL     1      43.735   2.854  10.708  0.00  0.00    +0.000 A 
ATOM      6  C   UNL     1      44.718   3.654  10.119  0.00  0.00    +0.000 A 
ATOM      7  C   UNL     1      44.938   4.894  10.743  0.00  0.00    +0.000 A 
BRANCH   6   8
ATOM      8  C   UNL     1      45.473   3.228   8.920  0.00  0.00    +0.000 A 
ATOM      9  C   UNL     1      45.930   4.160   7.970  0.00  0.00    +0.000 A 
ATOM     10  C   UNL     1      46.664   3.761   6.847  0.00  0.00    +0.000 A 
ATOM     11  C   UNL     1      46.970   2.416   6.648  0.00  0.00    +0.000 A 
ATOM     12 CL   UNL     1      47.904   1.997   5.258  0.00  0.00    +0.000 Cl
ATOM     13  C   UNL     1      46.524   1.467   7.569  0.00  0.00    +0.000 A 
ATOM     14 CL   UNL     1      46.858  -0.219   7.397  0.00  0.00    +0.000 Cl
ATOM     15  C   UNL     1      45.778   1.873   8.686  0.00  0.00    +0.000 A 
ENDBRANCH   6   8
ENDBRANCH   1   2
BRANCH   1  16
ATOM     16  O   UNL     1      45.747   7.106  12.171  0.00  0.00    +0.000 OA
BRANCH  16  20
ATOM     17  C   UNL     1      50.230   7.858  13.937  0.00  0.00    +0.000 C 
ATOM     18  C   UNL     1      48.923   7.125  13.883  0.00  0.00    +0.000 A 
ATOM     19  C   UNL     1      47.925   7.497  13.001  0.00  0.00    +0.000 A 
ATOM     20  C   UNL     1      46.764   6.753  13.040  0.00  0.00    +0.000 A 
ATOM     21  N   UNL     1      46.578   5.719  13.867  0.00  0.00    +0.000 NA
ATOM     22  C   UNL     1      47.600   5.432  14.684  0.00  0.00    +0.000 A 
ATOM     23  N   UNL     1      48.781   6.091  14.740  0.00  0.00    +0.000 NA
BRANCH  22  24
ATOM     24  C   UNL     1      47.417   4.265  15.622  0.00  0.00    +0.000 C 
ATOM     25  N   UNL     1      47.067   4.578  16.911  0.00  0.00    +0.000 N 
ATOM     26  O   UNL     1      47.565   3.096  15.282  0.00  0.00    +0.000 OA
ATOM     27  H   UNL     1      46.949   5.546  17.191  0.00  0.00    +0.000 HD
ATOM     28  H   UNL     1      46.941   3.831  17.578  0.00  0.00    +0.000 HD
ENDBRANCH  22  24
ENDBRANCH  16  20
ENDBRANCH   1  16
TORSDOF 5
ENDMDL
MODEL 3
REMARK VINA RESULT:    -8.226      1.794      2.197
REMARK INTER + INTRA:         -11.367
REMARK INTER:                 -10.746
REMARK INTRA:                  -0.622
REMARK UNBOUND:                -0.737
REMARK  Name = 
REMARK  6 active torsions:
REMARK  status: ('A' for Active; 'I' for Inactive)
REMARK    1  A    between atoms: C_1  and  C_2
REMARK    2  A    between atoms: C_4  and  O_5
REMARK    3  A    between atoms: O_5  and  C_6
REMARK    4  A    between atoms: C_6  and  C_7
REMARK    5  A    between atoms: C_11  and  C_12
REMARK    6  A    between atoms: C_22  and  C_23
REMARK                            x       y       z     vdW  Elec       q    Type
REMARK                         _______ _______ _______ _____ _____    ______ ____
ROOT
ATOM      1  C   UNL     1      45.759   4.682  14.245  0.00  0.00    +0.000 C 
ENDROOT
BRANCH   1   2
ATOM      2  C   UNL     1      44.967   4.467  12.985  0.00  0.00    +0.000 A 
ATOM      3  C   UNL     1      43.588   4.608  12.979  0.00  0.00    +0.000 A 
ATOM      4  N   UNL     1      42.815   4.388  11.895  0.00  0.00    +0.000 NA
ATOM      5  C   UNL     1      43.453   4.010  10.759  0.00  0.00    +0.000 A 
ATOM      6  C   UNL     1      44.835   3.851  10.622  0.00  0.00    +0.000 A 
ATOM      7  C   UNL     1      45.587   4.100  11.783  0.00  0.00    +0.000 A 
BRANCH   6   8
ATOM      8  C   UNL     1      45.464   3.453   9.343  0.00  0.00    +0.000 A 
ATOM      9  C   UNL     1      45.823   4.407   8.372  0.00  0.00    +0.000 A 
ATOM     10  C   UNL     1      46.439   4.033   7.172  0.00  0.00    +0.000 A 
ATOM     11  C   UNL     1      46.723   2.693   6.914  0.00  0.00    +0.000 A 
ATOM     12 CL   UNL     1      47.511   2.306   5.427  0.00  0.00    +0.000 Cl
ATOM     13  C   UNL     1      46.371   1.724   7.854  0.00  0.00    +0.000 A 
ATOM     14 CL   UNL     1      46.685   0.042   7.612  0.00  0.00    +0.000 Cl
ATOM     15  C   UNL     1      45.742   2.104   9.049  0.00  0.00    +0.000 A 
ENDBRANCH   6   8
ENDBRANCH   1   2
BRANCH   1  16
ATOM     16  O   UNL     1      46.676   3.596  14.439  0.00  0.00    +0.000 OA
BRANCH  16  20
ATOM     17  C   UNL     1      47.021   5.522  18.906  0.00  0.00    +0.000 C 
ATOM     18  C   UNL     1      47.495   4.632  17.797  0.00  0.00    +0.000 A 
ATOM     19  C   UNL     1      46.813   4.552  16.596  0.00  0.00    +0.000 A 
ATOM     20  C   UNL     1      47.340   3.698  15.648  0.00  0.00    +0.000 A 
ATOM     21  N   UNL     1      48.448   2.975  15.841  0.00  0.00    +0.000 NA
ATOM     22  C   UNL     1      49.040   3.118  17.034  0.00  0.00    +0.000 A 
ATOM     23  N   UNL     1      48.616   3.918  18.040  0.00  0.00    +0.000 NA
BRANCH  22  24
ATOM     24  C   UNL     1      50.295   2.317  17.272  0.00  0.00    +0.000 C 
ATOM     25  N   UNL     1      51.185   2.848  18.171  0.00  0.00    +0.000 N 
ATOM     26  O   UNL     1      50.535   1.255  16.710  0.00  0.00    +0.000 OA
ATOM     27  H   UNL     1      50.987   3.730  18.632  0.00  0.00    +0.000 HD
ATOM     28  H   UNL     1      52.045   2.352  18.357  0.00  0.00    +0.000 HD
ENDBRANCH  22  24
ENDBRANCH  16  20
ENDBRANCH   1  16
TORSDOF 5
ENDMDL
MODEL 4
REMARK VINA RESULT:    -7.775      1.547      2.494
REMARK INTER + INTRA:         -10.784
REMARK INTER:                 -10.109
REMARK INTRA:                  -0.675
REMARK UNBOUND:                -0.737
REMARK  Name = 
REMARK  6 active torsions:
REMARK  status: ('A' for Active; 'I' for Inactive)
REMARK    1  A    between atoms: C_1  and  C_2
REMARK    2  A    between atoms: C_4  and  O_5
REMARK    3  A    between atoms: O_5  and  C_6
REMARK    4  A    between atoms: C_6  and  C_7
REMARK    5  A    between atoms: C_11  and  C_12
REMARK    6  A    between atoms: C_22  and  C_23
REMARK                            x       y       z     vdW  Elec       q    Type
REMARK                         _______ _______ _______ _____ _____    ______ ____
ROOT
ATOM      1  C   UNL     1      45.243   4.760  14.014  0.00  0.00    +0.000 C 
ENDROOT
BRANCH   1   2
ATOM      2  C   UNL     1      44.629   4.679  12.643  0.00  0.00    +0.000 A 
ATOM      3  C   UNL     1      43.315   5.065  12.427  0.00  0.00    +0.000 A 
ATOM      4  N   UNL     1      42.693   4.977  11.234  0.00  0.00    +0.000 NA
ATOM      5  C   UNL     1      43.421   4.482  10.202  0.00  0.00    +0.000 A 
ATOM      6  C   UNL     1      44.757   4.077  10.276  0.00  0.00    +0.000 A 
ATOM      7  C   UNL     1      45.352   4.197  11.543  0.00  0.00    +0.000 A 
BRANCH   6   8
ATOM      8  C   UNL     1      45.495   3.561   9.101  0.00  0.00    +0.000 A 
ATOM      9  C   UNL     1      46.034   4.429   8.133  0.00  0.00    +0.000 A 
ATOM     10  C   UNL     1      46.752   3.943   7.034  0.00  0.00    +0.000 A 
ATOM     11  C   UNL     1      46.959   2.574   6.878  0.00  0.00    +0.000 A 
ATOM     12 CL   UNL     1      47.879   2.046   5.516  0.00  0.00    +0.000 Cl
ATOM     13  C   UNL     1      46.430   1.689   7.818  0.00  0.00    +0.000 A 
ATOM     14 CL   UNL     1      46.640  -0.022   7.699  0.00  0.00    +0.000 Cl
ATOM     15  C   UNL     1      45.700   2.181   8.910  0.00  0.00    +0.000 A 
ENDBRANCH   6   8
ENDBRANCH   1   2
BRANCH   1  16
ATOM     16  O   UNL     1      46.413   3.934  14.076  0.00  0.00    +0.000 OA
BRANCH  16  20
ATOM     17  C   UNL     1      48.883   3.495  18.258  0.00  0.00    +0.000 C 
ATOM     18  C   UNL     1      48.525   4.208  16.989  0.00  0.00    +0.000 A 
ATOM     19  C   UNL     1      47.590   3.690  16.111  0.00  0.00    +0.000 A 
ATOM     20  C   UNL     1      47.341   4.431  14.974  0.00  0.00    +0.000 A 
ATOM     21  N   UNL     1      47.946   5.593  14.703  0.00  0.00    +0.000 NA
ATOM     22  C   UNL     1      48.835   6.015  15.612  0.00  0.00    +0.000 A 
ATOM     23  N   UNL     1      49.164   5.375  16.757  0.00  0.00    +0.000 NA
BRANCH  22  24
ATOM     24  C   UNL     1      49.524   7.327  15.331  0.00  0.00    +0.000 C 
ATOM     25  N   UNL     1      50.320   7.361  14.214  0.00  0.00    +0.000 N 
ATOM     26  O   UNL     1      49.402   8.319  16.040  0.00  0.00    +0.000 OA
ATOM     27  H   UNL     1      50.424   6.537  13.632  0.00  0.00    +0.000 HD
ATOM     28  H   UNL     1      50.810   8.215  13.990  0.00  0.00    +0.000 HD
ENDBRANCH  22  24
ENDBRANCH  16  20
ENDBRANCH   1  16
TORSDOF 5
ENDMDL
MODEL 5
REMARK VINA RESULT:    -7.471      2.269      3.480
REMARK INTER + INTRA:         -10.392
REMARK INTER:                  -9.547
REMARK INTRA:                  -0.845
REMARK UNBOUND:                -0.737
REMARK  Name = 
REMARK  6 active torsions:
REMARK  status: ('A' for Active; 'I' for Inactive)
REMARK    1  A    between atoms: C_1  and  C_2
REMARK    2  A    between atoms: C_4  and  O_5
REMARK    3  A    between atoms: O_5  and  C_6
REMARK    4  A    between atoms: C_6  and  C_7
REMARK    5  A    between atoms: C_11  and  C_12
REMARK    6  A    between atoms: C_22  and  C_23
REMARK                            x       y       z     vdW  Elec       q    Type
REMARK                         _______ _______ _______ _____ _____    ______ ____
ROOT
ATOM      1  C   UNL     1      47.811   8.403  14.021  0.00  0.00    +0.000 C 
ENDROOT
BRANCH   1   2
ATOM      2  C   UNL     1      46.699   8.161  13.038  0.00  0.00    +0.000 A 
ATOM      3  C   UNL     1      45.779   9.156  12.744  0.00  0.00    +0.000 A 
ATOM      4  N   UNL     1      44.735   8.990  11.907  0.00  0.00    +0.000 NA
ATOM      5  C   UNL     1      44.605   7.769  11.332  0.00  0.00    +0.000 A 
ATOM      6  C   UNL     1      45.468   6.687  11.524  0.00  0.00    +0.000 A 
ATOM      7  C   UNL     1      46.540   6.922  12.402  0.00  0.00    +0.000 A 
BRANCH   6   8
ATOM      8  C   UNL     1      45.273   5.385  10.847  0.00  0.00    +0.000 A 
ATOM      9  C   UNL     1      44.634   4.310  11.493  0.00  0.00    +0.000 A 
ATOM     10  C   UNL     1      44.428   3.086  10.846  0.00  0.00    +0.000 A 
ATOM     11  C   UNL     1      44.847   2.907   9.529  0.00  0.00    +0.000 A 
ATOM     12 CL   UNL     1      44.535   1.382   8.781  0.00  0.00    +0.000 Cl
ATOM     13  C   UNL     1      45.490   3.952   8.865  0.00  0.00    +0.000 A 
ATOM     14 CL   UNL     1      46.042   3.814   7.234  0.00  0.00    +0.000 Cl
ATOM     15  C   UNL     1      45.705   5.172   9.523  0.00  0.00    +0.000 A 
ENDBRANCH   6   8
ENDBRANCH   1   2
BRANCH   1  16
ATOM     16  O   UNL     1      48.667   7.255  14.085  0.00  0.00    +0.000 OA
BRANCH  16  20
ATOM     17  C   UNL     1      48.868   7.439  18.955  0.00  0.00    +0.000 C 
ATOM     18  C   UNL     1      48.674   6.719  17.654  0.00  0.00    +0.000 A 
ATOM     19  C   UNL     1      48.775   7.381  16.443  0.00  0.00    +0.000 A 
ATOM     20  C   UNL     1      48.576   6.618  15.310  0.00  0.00    +0.000 A 
ATOM     21  N   UNL     1      48.303   5.310  15.340  0.00  0.00    +0.000 NA
ATOM     22  C   UNL     1      48.226   4.756  16.557  0.00  0.00    +0.000 A 
ATOM     23  N   UNL     1      48.397   5.400  17.735  0.00  0.00    +0.000 NA
BRANCH  22  24
ATOM     24  C   UNL     1      47.926   3.279  16.616  0.00  0.00    +0.000 C 
ATOM     25  N   UNL     1      46.912   2.904  17.461  0.00  0.00    +0.000 N 
ATOM     26  O   UNL     1      48.535   2.440  15.961  0.00  0.00    +0.000 OA
ATOM     27  H   UNL     1      46.414   3.599  18.005  0.00  0.00    +0.000 HD
ATOM     28  H   UNL     1      46.681   1.924  17.541  0.00  0.00    +0.000 HD
ENDBRANCH  22  24
ENDBRANCH  16  20
ENDBRANCH   1  16
TORSDOF 5
ENDMDL
MODEL 6
REMARK VINA RESULT:    -7.377      1.788      2.422
REMARK INTER + INTRA:         -10.270
REMARK INTER:                  -9.674
REMARK INTRA:                  -0.596
REMARK UNBOUND:                -0.737
REMARK  Name = 
REMARK  6 active torsions:
REMARK  status: ('A' for Active; 'I' for Inactive)
REMARK    1  A    between atoms: C_1  and  C_2
REMARK    2  A    between atoms: C_4  and  O_5
REMARK    3  A    between atoms: O_5  and  C_6
REMARK    4  A    between atoms: C_6  and  C_7
REMARK    5  A    between atoms: C_11  and  C_12
REMARK    6  A    between atoms: C_22  and  C_23
REMARK                            x       y       z     vdW  Elec       q    Type
REMARK                         _______ _______ _______ _____ _____    ______ ____
ROOT
ATOM      1  C   UNL     1      46.117   4.670  14.276  0.00  0.00    +0.000 C 
ENDROOT
BRANCH   1   2
ATOM      2  C   UNL     1      45.242   4.486  13.067  0.00  0.00    +0.000 A 
ATOM      3  C   UNL     1      43.869   4.667  13.148  0.00  0.00    +0.000 A 
ATOM      4  N   UNL     1      43.025   4.476  12.114  0.00  0.00    +0.000 NA
ATOM      5  C   UNL     1      43.579   4.087  10.939  0.00  0.00    +0.000 A 
ATOM      6  C   UNL     1      44.944   3.888  10.715  0.00  0.00    +0.000 A 
ATOM      7  C   UNL     1      45.774   4.109  11.827  0.00  0.00    +0.000 A 
BRANCH   6   8
ATOM      8  C   UNL     1      45.480   3.480   9.397  0.00  0.00    +0.000 A 
ATOM      9  C   UNL     1      45.733   4.421   8.382  0.00  0.00    +0.000 A 
ATOM     10  C   UNL     1      46.261   4.039   7.144  0.00  0.00    +0.000 A 
ATOM     11  C   UNL     1      46.561   2.702   6.890  0.00  0.00    +0.000 A 
ATOM     12 CL   UNL     1      47.238   2.303   5.352  0.00  0.00    +0.000 Cl
ATOM     13  C   UNL     1      46.313   1.744   7.874  0.00  0.00    +0.000 A 
ATOM     14 CL   UNL     1      46.655   0.066   7.640  0.00  0.00    +0.000 Cl
ATOM     15  C   UNL     1      45.772   2.132   9.108  0.00  0.00    +0.000 A 
ENDBRANCH   6   8
ENDBRANCH   1   2
BRANCH   1  16
ATOM     16  O   UNL     1      46.772   3.436  14.600  0.00  0.00    +0.000 OA
BRANCH  16  20
ATOM     17  C   UNL     1      50.518   2.016  17.382  0.00  0.00    +0.000 C 
ATOM     18  C   UNL     1      49.296   2.841  17.109  0.00  0.00    +0.000 A 
ATOM     19  C   UNL     1      48.596   2.721  15.922  0.00  0.00    +0.000 A 
ATOM     20  C   UNL     1      47.489   3.532  15.779  0.00  0.00    +0.000 A 
ATOM     21  N   UNL     1      47.081   4.395  16.715  0.00  0.00    +0.000 NA
ATOM     22  C   UNL     1      47.821   4.441  17.831  0.00  0.00    +0.000 A 
ATOM     23  N   UNL     1      48.925   3.701  18.082  0.00  0.00    +0.000 NA
BRANCH  22  24
ATOM     24  C   UNL     1      47.376   5.403  18.904  0.00  0.00    +0.000 C 
ATOM     25  N   UNL     1      48.356   5.852  19.753  0.00  0.00    +0.000 N 
ATOM     26  O   UNL     1      46.216   5.777  19.037  0.00  0.00    +0.000 OA
ATOM     27  H   UNL     1      49.313   5.537  19.645  0.00  0.00    +0.000 HD
ATOM     28  H   UNL     1      48.105   6.491  20.494  0.00  0.00    +0.000 HD
ENDBRANCH  22  24
ENDBRANCH  16  20
ENDBRANCH   1  16
TORSDOF 5
ENDMDL
MODEL 7
REMARK VINA RESULT:    -7.204      5.216      8.873
REMARK INTER + INTRA:         -10.047
REMARK INTER:                  -9.336
REMARK INTRA:                  -0.711
REMARK UNBOUND:                -0.737
REMARK  Name = 
REMARK  6 active torsions:
REMARK  status: ('A' for Active; 'I' for Inactive)
REMARK    1  A    between atoms: C_1  and  C_2
REMARK    2  A    between atoms: C_4  and  O_5
REMARK    3  A    between atoms: O_5  and  C_6
REMARK    4  A    between atoms: C_6  and  C_7
REMARK    5  A    between atoms: C_11  and  C_12
REMARK    6  A    between atoms: C_22  and  C_23
REMARK                            x       y       z     vdW  Elec       q    Type
REMARK                         _______ _______ _______ _____ _____    ______ ____
ROOT
ATOM      1  C   UNL     1      46.999   3.857  16.050  0.00  0.00    +0.000 C 
ENDROOT
BRANCH   1   2
ATOM      2  C   UNL     1      48.185   4.183  16.916  0.00  0.00    +0.000 A 
ATOM      3  C   UNL     1      48.215   5.344  17.673  0.00  0.00    +0.000 A 
ATOM      4  N   UNL     1      49.264   5.716  18.435  0.00  0.00    +0.000 NA
ATOM      5  C   UNL     1      50.335   4.885  18.444  0.00  0.00    +0.000 A 
ATOM      6  C   UNL     1      50.428   3.677  17.746  0.00  0.00    +0.000 A 
ATOM      7  C   UNL     1      49.303   3.341  16.975  0.00  0.00    +0.000 A 
BRANCH   6   8
ATOM      8  C   UNL     1      51.626   2.810  17.817  0.00  0.00    +0.000 A 
ATOM      9  C   UNL     1      51.580   1.461  17.421  0.00  0.00    +0.000 A 
ATOM     10  C   UNL     1      52.718   0.646  17.466  0.00  0.00    +0.000 A 
ATOM     11  C   UNL     1      53.937   1.163  17.900  0.00  0.00    +0.000 A 
ATOM     12 CL   UNL     1      55.306   0.111  17.902  0.00  0.00    +0.000 Cl
ATOM     13  C   UNL     1      54.011   2.496  18.307  0.00  0.00    +0.000 A 
ATOM     14 CL   UNL     1      55.482   3.215  18.859  0.00  0.00    +0.000 Cl
ATOM     15  C   UNL     1      52.865   3.303  18.271  0.00  0.00    +0.000 A 
ENDBRANCH   6   8
ENDBRANCH   1   2
BRANCH   1  16
ATOM     16  O   UNL     1      47.441   3.349  14.785  0.00  0.00    +0.000 OA
BRANCH  16  20
ATOM     17  C   UNL     1      46.555   7.257  12.003  0.00  0.00    +0.000 C 
ATOM     18  C   UNL     1      46.345   5.826  12.400  0.00  0.00    +0.000 A 
ATOM     19  C   UNL     1      47.034   5.264  13.459  0.00  0.00    +0.000 A 
ATOM     20  C   UNL     1      46.762   3.939  13.733  0.00  0.00    +0.000 A 
ATOM     21  N   UNL     1      45.884   3.207  13.039  0.00  0.00    +0.000 NA
ATOM     22  C   UNL     1      45.264   3.837  12.032  0.00  0.00    +0.000 A 
ATOM     23  N   UNL     1      45.451   5.127  11.667  0.00  0.00    +0.000 NA
BRANCH  22  24
ATOM     24  C   UNL     1      44.264   3.034  11.239  0.00  0.00    +0.000 C 
ATOM     25  N   UNL     1      44.765   2.338  10.168  0.00  0.00    +0.000 N 
ATOM     26  O   UNL     1      43.069   2.988  11.509  0.00  0.00    +0.000 OA
ATOM     27  H   UNL     1      45.753   2.382   9.944  0.00  0.00    +0.000 HD
ATOM     28  H   UNL     1      44.132   1.792   9.601  0.00  0.00    +0.000 HD
ENDBRANCH  22  24
ENDBRANCH  16  20
ENDBRANCH   1  16
TORSDOF 5
ENDMDL
MODEL 8
REMARK VINA RESULT:    -6.961      4.129      8.131
REMARK INTER + INTRA:          -9.733
REMARK INTER:                  -8.922
REMARK INTRA:                  -0.811
REMARK UNBOUND:                -0.737
REMARK  Name = 
REMARK  6 active torsions:
REMARK  status: ('A' for Active; 'I' for Inactive)
REMARK    1  A    between atoms: C_1  and  C_2
REMARK    2  A    between atoms: C_4  and  O_5
REMARK    3  A    between atoms: O_5  and  C_6
REMARK    4  A    between atoms: C_6  and  C_7
REMARK    5  A    between atoms: C_11  and  C_12
REMARK    6  A    between atoms: C_22  and  C_23
REMARK                            x       y       z     vdW  Elec       q    Type
REMARK                         _______ _______ _______ _____ _____    ______ ____
ROOT
ATOM      1  C   UNL     1      45.797   7.112  11.730  0.00  0.00    +0.000 C 
ENDROOT
BRANCH   1   2
ATOM      2  C   UNL     1      47.069   7.173  12.530  0.00  0.00    +0.000 A 
ATOM      3  C   UNL     1      48.206   7.774  12.013  0.00  0.00    +0.000 A 
ATOM      4  N   UNL     1      49.389   7.825  12.660  0.00  0.00    +0.000 NA
ATOM      5  C   UNL     1      49.437   7.249  13.887  0.00  0.00    +0.000 A 
ATOM      6  C   UNL     1      48.363   6.630  14.532  0.00  0.00    +0.000 A 
ATOM      7  C   UNL     1      47.157   6.613  13.812  0.00  0.00    +0.000 A 
BRANCH   6   8
ATOM      8  C   UNL     1      48.485   6.036  15.882  0.00  0.00    +0.000 A 
ATOM      9  C   UNL     1      49.182   6.693  16.914  0.00  0.00    +0.000 A 
ATOM     10  C   UNL     1      49.279   6.143  18.198  0.00  0.00    +0.000 A 
ATOM     11  C   UNL     1      48.671   4.923  18.488  0.00  0.00    +0.000 A 
ATOM     12 CL   UNL     1      48.804   4.317  20.099  0.00  0.00    +0.000 Cl
ATOM     13  C   UNL     1      47.980   4.245  17.484  0.00  0.00    +0.000 A 
ATOM     14 CL   UNL     1      47.199   2.728  17.758  0.00  0.00    +0.000 Cl
ATOM     15  C   UNL     1      47.897   4.795  16.196  0.00  0.00    +0.000 A 
ENDBRANCH   6   8
ENDBRANCH   1   2
BRANCH   1  16
ATOM     16  O   UNL     1      46.077   6.663  10.397  0.00  0.00    +0.000 OA
BRANCH  16  20
ATOM     17  C   UNL     1      45.286   2.931   7.358  0.00  0.00    +0.000 C 
ATOM     18  C   UNL     1      45.147   3.630   8.677  0.00  0.00    +0.000 A 
ATOM     19  C   UNL     1      45.711   4.873   8.896  0.00  0.00    +0.000 A 
ATOM     20  C   UNL     1      45.520   5.421  10.149  0.00  0.00    +0.000 A 
ATOM     21  N   UNL     1      44.830   4.815  11.121  0.00  0.00    +0.000 NA
ATOM     22  C   UNL     1      44.320   3.615  10.816  0.00  0.00    +0.000 A 
ATOM     23  N   UNL     1      44.445   2.978   9.629  0.00  0.00    +0.000 NA
BRANCH  22  24
ATOM     24  C   UNL     1      43.532   2.916  11.895  0.00  0.00    +0.000 C 
ATOM     25  N   UNL     1      43.540   3.515  13.130  0.00  0.00    +0.000 N 
ATOM     26  O   UNL     1      42.913   1.874  11.711  0.00  0.00    +0.000 OA
ATOM     27  H   UNL     1      44.057   4.374  13.281  0.00  0.00    +0.000 HD
ATOM     28  H   UNL     1      43.034   3.079  13.887  0.00  0.00    +0.000 HD
ENDBRANCH  22  24
ENDBRANCH  16  20
ENDBRANCH   1  16
TORSDOF 5
ENDMDL
MODEL 9
REMARK VINA RESULT:    -6.564      3.747      5.593
REMARK INTER + INTRA:          -9.220
REMARK INTER:                  -8.395
REMARK INTRA:                  -0.825
REMARK UNBOUND:                -0.737
REMARK  Name = 
REMARK  6 active torsions:
REMARK  status: ('A' for Active; 'I' for Inactive)
REMARK    1  A    between atoms: C_1  and  C_2
REMARK    2  A    between atoms: C_4  and  O_5
REMARK    3  A    between atoms: O_5  and  C_6
REMARK    4  A    between atoms: C_6  and  C_7
REMARK    5  A    between atoms: C_11  and  C_12
REMARK    6  A    between atoms: C_22  and  C_23
REMARK                            x       y       z     vdW  Elec       q    Type
REMARK                         _______ _______ _______ _____ _____    ______ ____
ROOT
ATOM      1  C   UNL     1      50.494   7.720  15.901  0.00  0.00    +0.000 C 
ENDROOT
BRANCH   1   2
ATOM      2  C   UNL     1      50.001   7.712  14.480  0.00  0.00    +0.000 A 
ATOM      3  C   UNL     1      50.798   8.186  13.448  0.00  0.00    +0.000 A 
ATOM      4  N   UNL     1      50.401   8.246  12.160  0.00  0.00    +0.000 NA
ATOM      5  C   UNL     1      49.147   7.808  11.889  0.00  0.00    +0.000 A 
ATOM      6  C   UNL     1      48.250   7.289  12.827  0.00  0.00    +0.000 A 
ATOM      7  C   UNL     1      48.722   7.246  14.150  0.00  0.00    +0.000 A 
BRANCH   6   8
ATOM      8  C   UNL     1      46.899   6.813  12.454  0.00  0.00    +0.000 A 
ATOM      9  C   UNL     1      45.913   7.698  11.979  0.00  0.00    +0.000 A 
ATOM     10  C   UNL     1      44.642   7.245  11.604  0.00  0.00    +0.000 A 
ATOM     11  C   UNL     1      44.326   5.890  11.685  0.00  0.00    +0.000 A 
ATOM     12 CL   UNL     1      42.751   5.397  11.179  0.00  0.00    +0.000 Cl
ATOM     13  C   UNL     1      45.280   4.990  12.160  0.00  0.00    +0.000 A 
ATOM     14 CL   UNL     1      44.970   3.296  12.294  0.00  0.00    +0.000 Cl
ATOM     15  C   UNL     1      46.548   5.452  12.546  0.00  0.00    +0.000 A 
ENDBRANCH   6   8
ENDBRANCH   1   2
BRANCH   1  16
ATOM     16  O   UNL     1      51.070   6.449  16.227  0.00  0.00    +0.000 OA
BRANCH  16  20
ATOM     17  C   UNL     1      49.905   5.055  20.753  0.00  0.00    +0.000 C 
ATOM     18  C   UNL     1      49.707   5.062  19.267  0.00  0.00    +0.000 A 
ATOM     19  C   UNL     1      50.536   5.792  18.434  0.00  0.00    +0.000 A 
ATOM     20  C   UNL     1      50.259   5.725  17.084  0.00  0.00    +0.000 A 
ATOM     21  N   UNL     1      49.258   5.003  16.570  0.00  0.00    +0.000 NA
ATOM     22  C   UNL     1      48.510   4.329  17.454  0.00  0.00    +0.000 A 
ATOM     23  N   UNL     1      48.681   4.321  18.796  0.00  0.00    +0.000 NA
BRANCH  22  24
ATOM     24  C   UNL     1      47.379   3.502  16.897  0.00  0.00    +0.000 C 
ATOM     25  N   UNL     1      47.171   3.599  15.545  0.00  0.00    +0.000 N 
ATOM     26  O   UNL     1      46.669   2.778  17.587  0.00  0.00    +0.000 OA
ATOM     27  H   UNL     1      47.756   4.202  14.977  0.00  0.00    +0.000 HD
ATOM     28  H   UNL     1      46.419   3.070  15.127  0.00  0.00    +0.000 HD
ENDBRANCH  22  24
ENDBRANCH  16  20
ENDBRANCH   1  16
TORSDOF 5
ENDMDL
