MODEL 1
REMARK VINA RESULT:    -7.718      0.000      0.000
REMARK INTER + INTRA:         -11.255
REMARK INTER:                 -10.426
REMARK INTRA:                  -0.830
REMARK UNBOUND:                -0.830
REMARK  Name = 
REMARK  7 active torsions:
REMARK  status: ('A' for Active; 'I' for Inactive)
REMARK    1  A    between atoms: C_1  and  O_2
REMARK    2  A    between atoms: O_2  and  C_3
REMARK    3  A    between atoms: N_10  and  C_11
REMARK    4  A    between atoms: C_11  and  C_12
REMARK    5  A    between atoms: C_15  and  C_16
REMARK    6  A    between atoms: C_16  and  N_17
REMARK    7  A    between atoms: C_18  and  C_20
REMARK                            x       y       z     vdW  Elec       q    Type
REMARK                         _______ _______ _______ _____ _____    ______ ____
ROOT
ATOM      1  C   UNL     1      45.250   4.513  11.491  0.00  0.00    +0.000 A 
ATOM      2  C   UNL     1      45.760   4.382  12.790  0.00  0.00    +0.000 A 
ATOM      3  C   UNL     1      46.380   5.464  13.428  0.00  0.00    +0.000 A 
ATOM      4  C   UNL     1      46.476   6.708  12.791  0.00  0.00    +0.000 A 
ATOM      5  C   UNL     1      45.976   6.835  11.488  0.00  0.00    +0.000 A 
ATOM      6  C   UNL     1      45.362   5.752  10.849  0.00  0.00    +0.000 A 
ENDROOT
BRANCH   1   7
ATOM      7  C   UNL     1      44.641   3.334  10.778  0.00  0.00    +0.000 C 
BRANCH   7  15
ATOM      8  C   UNL     1      46.715   1.533   7.318  0.00  0.00    +0.000 A 
ATOM      9  C   UNL     1      47.539   1.609   6.204  0.00  0.00    +0.000 A 
ATOM     10  C   UNL     1      47.431   2.901   5.651  0.00  0.00    +0.000 A 
ATOM     11  C   UNL     1      46.509   3.578   6.409  0.00  0.00    +0.000 A 
ATOM     12  N   UNL     1      46.087   2.772   7.458  0.00  0.00    +0.000 N 
ATOM     13  C   UNL     1      45.141   3.193   8.415  0.00  0.00    +0.000 C 
ATOM     14  O   UNL     1      44.230   3.937   8.074  0.00  0.00    +0.000 OA
ATOM     15  N   UNL     1      45.453   2.819   9.701  0.00  0.00    +0.000 N 
ATOM     16  H   UNL     1      46.328   2.346   9.899  0.00  0.00    +0.000 HD
BRANCH   8  18
ATOM     17  C   UNL     1      46.509  -0.785   7.568  0.00  0.00    +0.000 C 
ATOM     18  O   UNL     1      46.417   0.519   8.140  0.00  0.00    +0.000 OA
ENDBRANCH   8  18
ENDBRANCH   7  15
ENDBRANCH   1   7
BRANCH   4  19
ATOM     19  C   UNL     1      47.141   7.878  13.470  0.00  0.00    +0.000 C 
BRANCH  19  20
ATOM     20  N   UNL     1      47.583   7.535  14.800  0.00  0.00    +0.000 N 
ATOM     21  C   UNL     1      48.877   7.145  15.042  0.00  0.00    +0.000 C 
ATOM     22  O   UNL     1      49.669   6.913  14.135  0.00  0.00    +0.000 OA
ATOM     23  H   UNL     1      47.017   7.880  15.568  0.00  0.00    +0.000 HD
BRANCH  21  24
ATOM     24  C   UNL     1      49.262   7.002  16.452  0.00  0.00    +0.000 A 
ATOM     25  C   UNL     1      49.827   8.072  17.132  0.00  0.00    +0.000 A 
ATOM     26  S   UNL     1      50.160   7.738  18.772  0.00  0.00    +0.000 S 
ATOM     27  C   UNL     1      49.494   6.176  18.646  0.00  0.00    +0.000 A 
ATOM     28  N   UNL     1      49.380   5.373  19.736  0.00  0.00    +0.000 NA
ATOM     29  C   UNL     1      48.822   4.232  19.502  0.00  0.00    +0.000 A 
ATOM     30  N   UNL     1      48.400   3.807  18.269  0.00  0.00    +0.000 N 
ATOM     31  C   UNL     1      48.553   4.559  17.129  0.00  0.00    +0.000 A 
ATOM     32  O   UNL     1      48.268   4.107  16.026  0.00  0.00    +0.000 OA
ATOM     33  C   UNL     1      49.104   5.883  17.352  0.00  0.00    +0.000 A 
ATOM     34  H   UNL     1      48.016   2.882  18.144  0.00  0.00    +0.000 HD
ENDBRANCH  21  24
ENDBRANCH  19  20
ENDBRANCH   4  19
TORSDOF 6
ENDMDL
MODEL 2
REMARK VINA RESULT:    -7.145      3.850      9.155
REMARK INTER + INTRA:         -10.480
REMARK INTER:                  -9.518
REMARK INTRA:                  -0.962
REMARK UNBOUND:                -0.830
REMARK  Name = 
REMARK  7 active torsions:
REMARK  status: ('A' for Active; 'I' for Inactive)
REMARK    1  A    between atoms: C_1  and  O_2
REMARK    2  A    between atoms: O_2  and  C_3
REMARK    3  A    between atoms: N_10  and  C_11
REMARK    4  A    between atoms: C_11  and  C_12
REMARK    5  A    between atoms: C_15  and  C_16
REMARK    6  A    between atoms: C_16  and  N_17
REMARK    7  A    between atoms: C_18  and  C_20
REMARK                            x       y       z     vdW  Elec       q    Type
REMARK                         _______ _______ _______ _____ _____    ______ ____
ROOT
ATOM      1  C   UNL     1      49.951   6.952  16.163  0.00  0.00    +0.000 A 
ATOM      2  C   UNL     1      50.710   7.735  15.281  0.00  0.00    +0.000 A 
ATOM      3  C   UNL     1      50.265   7.975  13.974  0.00  0.00    +0.000 A 
ATOM      4  C   UNL     1      49.038   7.462  13.533  0.00  0.00    +0.000 A 
ATOM      5  C   UNL     1      48.286   6.671  14.412  0.00  0.00    +0.000 A 
ATOM      6  C   UNL     1      48.733   6.427  15.715  0.00  0.00    +0.000 A 
ENDROOT
BRANCH   1   7
ATOM      7  C   UNL     1      50.457   6.639  17.547  0.00  0.00    +0.000 C 
BRANCH   7  15
ATOM      8  C   UNL     1      52.760   2.937  18.260  0.00  0.00    +0.000 A 
ATOM      9  C   UNL     1      53.100   1.625  17.962  0.00  0.00    +0.000 A 
ATOM     10  C   UNL     1      51.981   0.991  17.383  0.00  0.00    +0.000 A 
ATOM     11  C   UNL     1      50.965   1.911  17.380  0.00  0.00    +0.000 A 
ATOM     12  N   UNL     1      51.430   3.122  17.876  0.00  0.00    +0.000 N 
ATOM     13  C   UNL     1      50.615   4.266  17.992  0.00  0.00    +0.000 C 
ATOM     14  O   UNL     1      49.430   4.136  18.269  0.00  0.00    +0.000 OA
ATOM     15  N   UNL     1      51.244   5.432  17.621  0.00  0.00    +0.000 N 
ATOM     16  H   UNL     1      52.184   5.408  17.242  0.00  0.00    +0.000 HD
BRANCH   8  18
ATOM     17  C   UNL     1      53.484   3.841  20.294  0.00  0.00    +0.000 C 
ATOM     18  O   UNL     1      53.437   3.919  18.870  0.00  0.00    +0.000 OA
ENDBRANCH   8  18
ENDBRANCH   7  15
ENDBRANCH   1   7
BRANCH   4  19
ATOM     19  C   UNL     1      48.551   7.715  12.128  0.00  0.00    +0.000 C 
BRANCH  19  20
ATOM     20  N   UNL     1      47.715   6.638  11.657  0.00  0.00    +0.000 N 
ATOM     21  C   UNL     1      46.372   6.824  11.439  0.00  0.00    +0.000 C 
ATOM     22  O   UNL     1      45.789   7.847  11.782  0.00  0.00    +0.000 OA
ATOM     23  H   UNL     1      48.188   5.861  11.209  0.00  0.00    +0.000 HD
BRANCH  21  24
ATOM     24  C   UNL     1      45.660   5.719  10.784  0.00  0.00    +0.000 A 
ATOM     25  C   UNL     1      45.822   5.493   9.424  0.00  0.00    +0.000 A 
ATOM     26  S   UNL     1      44.960   4.137   8.851  0.00  0.00    +0.000 S 
ATOM     27  C   UNL     1      44.399   3.764  10.414  0.00  0.00    +0.000 A 
ATOM     28  N   UNL     1      43.666   2.643  10.647  0.00  0.00    +0.000 NA
ATOM     29  C   UNL     1      43.340   2.466  11.883  0.00  0.00    +0.000 A 
ATOM     30  N   UNL     1      43.650   3.326  12.904  0.00  0.00    +0.000 N 
ATOM     31  C   UNL     1      44.334   4.502  12.706  0.00  0.00    +0.000 A 
ATOM     32  O   UNL     1      44.499   5.304  13.618  0.00  0.00    +0.000 OA
ATOM     33  C   UNL     1      44.791   4.709  11.344  0.00  0.00    +0.000 A 
ATOM     34  H   UNL     1      43.323   3.155  13.844  0.00  0.00    +0.000 HD
ENDBRANCH  21  24
ENDBRANCH  19  20
ENDBRANCH   4  19
TORSDOF 6
ENDMDL
MODEL 3
REMARK VINA RESULT:    -7.101      5.096      8.026
REMARK INTER + INTRA:         -10.421
REMARK INTER:                  -9.490
REMARK INTRA:                  -0.931
REMARK UNBOUND:                -0.830
REMARK  Name = 
REMARK  7 active torsions:
REMARK  status: ('A' for Active; 'I' for Inactive)
REMARK    1  A    between atoms: C_1  and  O_2
REMARK    2  A    between atoms: O_2  and  C_3
REMARK    3  A    between atoms: N_10  and  C_11
REMARK    4  A    between atoms: C_11  and  C_12
REMARK    5  A    between atoms: C_15  and  C_16
REMARK    6  A    between atoms: C_16  and  N_17
REMARK    7  A    between atoms: C_18  and  C_20
REMARK                            x       y       z     vdW  Elec       q    Type
REMARK                         _______ _______ _______ _____ _____    ______ ____
ROOT
ATOM      1  C   UNL     1      50.556   8.634  11.262  0.00  0.00    +0.000 A 
ATOM      2  C   UNL     1      49.975   7.404  11.606  0.00  0.00    +0.000 A 
ATOM      3  C   UNL     1      48.672   7.346  12.115  0.00  0.00    +0.000 A 
ATOM      4  C   UNL     1      47.910   8.513  12.261  0.00  0.00    +0.000 A 
ATOM      5  C   UNL     1      48.494   9.742  11.927  0.00  0.00    +0.000 A 
ATOM      6  C   UNL     1      49.799   9.801  11.425  0.00  0.00    +0.000 A 
ENDROOT
BRANCH   1   7
ATOM      7  C   UNL     1      51.979   8.706  10.776  0.00  0.00    +0.000 C 
BRANCH   7  15
ATOM      8  C   UNL     1      53.165   6.237   7.309  0.00  0.00    +0.000 A 
ATOM      9  C   UNL     1      53.681   5.080   6.744  0.00  0.00    +0.000 A 
ATOM     10  C   UNL     1      54.598   4.508   7.649  0.00  0.00    +0.000 A 
ATOM     11  C   UNL     1      54.661   5.349   8.731  0.00  0.00    +0.000 A 
ATOM     12  N   UNL     1      53.763   6.395   8.561  0.00  0.00    +0.000 N 
ATOM     13  C   UNL     1      53.594   7.422   9.511  0.00  0.00    +0.000 C 
ATOM     14  O   UNL     1      54.560   7.810  10.156  0.00  0.00    +0.000 OA
ATOM     15  N   UNL     1      52.281   7.779   9.711  0.00  0.00    +0.000 N 
ATOM     16  H   UNL     1      51.536   7.274   9.244  0.00  0.00    +0.000 HD
BRANCH   8  18
ATOM     17  C   UNL     1      52.925   8.232   6.107  0.00  0.00    +0.000 C 
ATOM     18  O   UNL     1      52.320   7.163   6.835  0.00  0.00    +0.000 OA
ENDBRANCH   8  18
ENDBRANCH   7  15
ENDBRANCH   1   7
BRANCH   4  19
ATOM     19  C   UNL     1      46.505   8.459  12.808  0.00  0.00    +0.000 C 
BRANCH  19  20
ATOM     20  N   UNL     1      45.951   7.131  12.705  0.00  0.00    +0.000 N 
ATOM     21  C   UNL     1      44.900   6.862  11.864  0.00  0.00    +0.000 C 
ATOM     22  O   UNL     1      44.280   7.750  11.288  0.00  0.00    +0.000 OA
ATOM     23  H   UNL     1      46.540   6.369  13.022  0.00  0.00    +0.000 HD
BRANCH  21  24
ATOM     24  C   UNL     1      44.541   5.447  11.701  0.00  0.00    +0.000 A 
ATOM     25  C   UNL     1      43.816   4.793  12.687  0.00  0.00    +0.000 A 
ATOM     26  S   UNL     1      43.447   3.173  12.301  0.00  0.00    +0.000 S 
ATOM     27  C   UNL     1      44.183   3.312  10.772  0.00  0.00    +0.000 A 
ATOM     28  N   UNL     1      44.140   2.290   9.877  0.00  0.00    +0.000 NA
ATOM     29  C   UNL     1      44.704   2.548   8.745  0.00  0.00    +0.000 A 
ATOM     30  N   UNL     1      45.340   3.722   8.438  0.00  0.00    +0.000 N 
ATOM     31  C   UNL     1      45.464   4.759   9.333  0.00  0.00    +0.000 A 
ATOM     32  O   UNL     1      46.133   5.751   9.069  0.00  0.00    +0.000 OA
ATOM     33  C   UNL     1      44.777   4.549  10.594  0.00  0.00    +0.000 A 
ATOM     34  H   UNL     1      45.805   3.843   7.550  0.00  0.00    +0.000 HD
ENDBRANCH  21  24
ENDBRANCH  19  20
ENDBRANCH   4  19
TORSDOF 6
ENDMDL
MODEL 4
REMARK VINA RESULT:    -7.015      1.743      2.051
REMARK INTER + INTRA:         -10.306
REMARK INTER:                  -9.487
REMARK INTRA:                  -0.818
REMARK UNBOUND:                -0.830
REMARK  Name = 
REMARK  7 active torsions:
REMARK  status: ('A' for Active; 'I' for Inactive)
REMARK    1  A    between atoms: C_1  and  O_2
REMARK    2  A    between atoms: O_2  and  C_3
REMARK    3  A    between atoms: N_10  and  C_11
REMARK    4  A    between atoms: C_11  and  C_12
REMARK    5  A    between atoms: C_15  and  C_16
REMARK    6  A    between atoms: C_16  and  N_17
REMARK    7  A    between atoms: C_18  and  C_20
REMARK                            x       y       z     vdW  Elec       q    Type
REMARK                         _______ _______ _______ _____ _____    ______ ____
ROOT
ATOM      1  C   UNL     1      45.359   4.234  11.781  0.00  0.00    +0.000 A 
ATOM      2  C   UNL     1      45.941   3.787  12.976  0.00  0.00    +0.000 A 
ATOM      3  C   UNL     1      46.669   4.665  13.789  0.00  0.00    +0.000 A 
ATOM      4  C   UNL     1      46.806   6.015  13.438  0.00  0.00    +0.000 A 
ATOM      5  C   UNL     1      46.233   6.458  12.239  0.00  0.00    +0.000 A 
ATOM      6  C   UNL     1      45.510   5.580  11.424  0.00  0.00    +0.000 A 
ENDROOT
BRANCH   1   7
ATOM      7  C   UNL     1      44.630   3.278  10.873  0.00  0.00    +0.000 C 
BRANCH   7  15
ATOM      8  C   UNL     1      46.675   1.556   7.355  0.00  0.00    +0.000 A 
ATOM      9  C   UNL     1      47.519   1.647   6.258  0.00  0.00    +0.000 A 
ATOM     10  C   UNL     1      47.480   2.969   5.770  0.00  0.00    +0.000 A 
ATOM     11  C   UNL     1      46.579   3.650   6.548  0.00  0.00    +0.000 A 
ATOM     12  N   UNL     1      46.102   2.815   7.549  0.00  0.00    +0.000 N 
ATOM     13  C   UNL     1      45.162   3.232   8.512  0.00  0.00    +0.000 C 
ATOM     14  O   UNL     1      44.292   4.033   8.197  0.00  0.00    +0.000 OA
ATOM     15  N   UNL     1      45.435   2.780   9.783  0.00  0.00    +0.000 N 
ATOM     16  H   UNL     1      46.283   2.256   9.969  0.00  0.00    +0.000 HD
BRANCH   8  18
ATOM     17  C   UNL     1      46.564  -0.773   7.565  0.00  0.00    +0.000 C 
ATOM     18  O   UNL     1      46.316   0.517   8.122  0.00  0.00    +0.000 OA
ENDBRANCH   8  18
ENDBRANCH   7  15
ENDBRANCH   1   7
BRANCH   4  19
ATOM     19  C   UNL     1      47.588   6.967  14.308  0.00  0.00    +0.000 C 
BRANCH  19  20
ATOM     20  N   UNL     1      48.276   6.269  15.367  0.00  0.00    +0.000 N 
ATOM     21  C   UNL     1      49.016   6.948  16.303  0.00  0.00    +0.000 C 
ATOM     22  O   UNL     1      49.263   8.145  16.197  0.00  0.00    +0.000 OA
ATOM     23  H   UNL     1      47.951   5.331  15.576  0.00  0.00    +0.000 HD
BRANCH  21  24
ATOM     24  C   UNL     1      49.515   6.160  17.437  0.00  0.00    +0.000 A 
ATOM     25  C   UNL     1      48.639   5.725  18.422  0.00  0.00    +0.000 A 
ATOM     26  S   UNL     1      49.387   4.779  19.629  0.00  0.00    +0.000 S 
ATOM     27  C   UNL     1      50.892   4.860  18.837  0.00  0.00    +0.000 A 
ATOM     28  N   UNL     1      51.968   4.172  19.304  0.00  0.00    +0.000 NA
ATOM     29  C   UNL     1      53.033   4.294  18.584  0.00  0.00    +0.000 A 
ATOM     30  N   UNL     1      53.130   5.071  17.459  0.00  0.00    +0.000 N 
ATOM     31  C   UNL     1      52.088   5.832  16.985  0.00  0.00    +0.000 A 
ATOM     32  O   UNL     1      52.238   6.601  16.043  0.00  0.00    +0.000 OA
ATOM     33  C   UNL     1      50.844   5.668  17.716  0.00  0.00    +0.000 A 
ATOM     34  H   UNL     1      54.007   5.162  16.967  0.00  0.00    +0.000 HD
ENDBRANCH  21  24
ENDBRANCH  19  20
ENDBRANCH   4  19
TORSDOF 6
ENDMDL
MODEL 5
REMARK VINA RESULT:    -6.828      4.953      8.387
REMARK INTER + INTRA:         -10.052
REMARK INTER:                  -9.079
REMARK INTRA:                  -0.973
REMARK UNBOUND:                -0.830
REMARK  Name = 
REMARK  7 active torsions:
REMARK  status: ('A' for Active; 'I' for Inactive)
REMARK    1  A    between atoms: C_1  and  O_2
REMARK    2  A    between atoms: O_2  and  C_3
REMARK    3  A    between atoms: N_10  and  C_11
REMARK    4  A    between atoms: C_11  and  C_12
REMARK    5  A    between atoms: C_15  and  C_16
REMARK    6  A    between atoms: C_16  and  N_17
REMARK    7  A    between atoms: C_18  and  C_20
REMARK                            x       y       z     vdW  Elec       q    Type
REMARK                         _______ _______ _______ _____ _____    ______ ____
ROOT
ATOM      1  C   UNL     1      50.370   8.727  11.246  0.00  0.00    +0.000 A 
ATOM      2  C   UNL     1      49.566   9.858  11.449  0.00  0.00    +0.000 A 
ATOM      3  C   UNL     1      48.315   9.745  12.069  0.00  0.00    +0.000 A 
ATOM      4  C   UNL     1      47.856   8.502  12.527  0.00  0.00    +0.000 A 
ATOM      5  C   UNL     1      48.655   7.372  12.315  0.00  0.00    +0.000 A 
ATOM      6  C   UNL     1      49.902   7.484  11.690  0.00  0.00    +0.000 A 
ENDROOT
BRANCH   1   7
ATOM      7  C   UNL     1      51.686   8.836  10.522  0.00  0.00    +0.000 C 
BRANCH   7  15
ATOM      8  C   UNL     1      54.431   5.378  10.373  0.00  0.00    +0.000 A 
ATOM      9  C   UNL     1      55.247   4.430  10.974  0.00  0.00    +0.000 A 
ATOM     10  C   UNL     1      55.763   4.974  12.168  0.00  0.00    +0.000 A 
ATOM     11  C   UNL     1      55.292   6.259  12.252  0.00  0.00    +0.000 A 
ATOM     12  N   UNL     1      54.443   6.515  11.183  0.00  0.00    +0.000 N 
ATOM     13  C   UNL     1      53.797   7.754  10.998  0.00  0.00    +0.000 C 
ATOM     14  O   UNL     1      54.368   8.785  11.326  0.00  0.00    +0.000 OA
ATOM     15  N   UNL     1      52.489   7.638  10.587  0.00  0.00    +0.000 N 
ATOM     16  H   UNL     1      52.056   6.725  10.507  0.00  0.00    +0.000 HD
BRANCH   8  18
ATOM     17  C   UNL     1      54.552   5.073   8.055  0.00  0.00    +0.000 C 
ATOM     18  O   UNL     1      53.768   5.376   9.209  0.00  0.00    +0.000 OA
ENDBRANCH   8  18
ENDBRANCH   7  15
ENDBRANCH   1   7
BRANCH   4  19
ATOM     19  C   UNL     1      46.511   8.371  13.197  0.00  0.00    +0.000 C 
BRANCH  19  20
ATOM     20  N   UNL     1      45.944   7.061  12.989  0.00  0.00    +0.000 N 
ATOM     21  C   UNL     1      44.989   6.843  12.027  0.00  0.00    +0.000 C 
ATOM     22  O   UNL     1      44.456   7.763  11.416  0.00  0.00    +0.000 OA
ATOM     23  H   UNL     1      46.479   6.275  13.345  0.00  0.00    +0.000 HD
BRANCH  21  24
ATOM     24  C   UNL     1      44.623   5.443  11.778  0.00  0.00    +0.000 A 
ATOM     25  C   UNL     1      43.903   4.731  12.728  0.00  0.00    +0.000 A 
ATOM     26  S   UNL     1      43.522   3.140  12.243  0.00  0.00    +0.000 S 
ATOM     27  C   UNL     1      44.246   3.372  10.720  0.00  0.00    +0.000 A 
ATOM     28  N   UNL     1      44.191   2.408   9.763  0.00  0.00    +0.000 NA
ATOM     29  C   UNL     1      44.748   2.734   8.645  0.00  0.00    +0.000 A 
ATOM     30  N   UNL     1      45.387   3.923   8.407  0.00  0.00    +0.000 N 
ATOM     31  C   UNL     1      45.523   4.901   9.364  0.00  0.00    +0.000 A 
ATOM     32  O   UNL     1      46.194   5.904   9.158  0.00  0.00    +0.000 OA
ATOM     33  C   UNL     1      44.845   4.615  10.615  0.00  0.00    +0.000 A 
ATOM     34  H   UNL     1      45.845   4.098   7.525  0.00  0.00    +0.000 HD
ENDBRANCH  21  24
ENDBRANCH  19  20
ENDBRANCH   4  19
TORSDOF 6
ENDMDL
MODEL 6
REMARK VINA RESULT:    -6.804      3.119      3.597
REMARK INTER + INTRA:         -10.020
REMARK INTER:                  -9.396
REMARK INTRA:                  -0.623
REMARK UNBOUND:                -0.830
REMARK  Name = 
REMARK  7 active torsions:
REMARK  status: ('A' for Active; 'I' for Inactive)
REMARK    1  A    between atoms: C_1  and  O_2
REMARK    2  A    between atoms: O_2  and  C_3
REMARK    3  A    between atoms: N_10  and  C_11
REMARK    4  A    between atoms: C_11  and  C_12
REMARK    5  A    between atoms: C_15  and  C_16
REMARK    6  A    between atoms: C_16  and  N_17
REMARK    7  A    between atoms: C_18  and  C_20
REMARK                            x       y       z     vdW  Elec       q    Type
REMARK                         _______ _______ _______ _____ _____    ______ ____
ROOT
ATOM      1  C   UNL     1      44.698   4.283  11.480  0.00  0.00    +0.000 A 
ATOM      2  C   UNL     1      45.638   4.427  12.511  0.00  0.00    +0.000 A 
ATOM      3  C   UNL     1      45.944   5.693  13.028  0.00  0.00    +0.000 A 
ATOM      4  C   UNL     1      45.293   6.837  12.546  0.00  0.00    +0.000 A 
ATOM      5  C   UNL     1      44.362   6.693  11.509  0.00  0.00    +0.000 A 
ATOM      6  C   UNL     1      44.061   5.430  10.988  0.00  0.00    +0.000 A 
ENDROOT
BRANCH   1   7
ATOM      7  C   UNL     1      44.414   2.932  10.877  0.00  0.00    +0.000 C 
BRANCH   7  15
ATOM      8  C   UNL     1      46.840   1.543   7.457  0.00  0.00    +0.000 A 
ATOM      9  C   UNL     1      47.728   1.758   6.413  0.00  0.00    +0.000 A 
ATOM     10  C   UNL     1      47.562   3.078   5.946  0.00  0.00    +0.000 A 
ATOM     11  C   UNL     1      46.545   3.631   6.681  0.00  0.00    +0.000 A 
ATOM     12  N   UNL     1      46.114   2.722   7.638  0.00  0.00    +0.000 N 
ATOM     13  C   UNL     1      45.079   3.004   8.552  0.00  0.00    +0.000 C 
ATOM     14  O   UNL     1      44.141   3.707   8.200  0.00  0.00    +0.000 OA
ATOM     15  N   UNL     1      45.331   2.557   9.828  0.00  0.00    +0.000 N 
ATOM     16  H   UNL     1      46.223   2.130  10.054  0.00  0.00    +0.000 HD
BRANCH   8  18
ATOM     17  C   UNL     1      46.537  -0.778   7.460  0.00  0.00    +0.000 C 
ATOM     18  O   UNL     1      46.562   0.452   8.183  0.00  0.00    +0.000 OA
ENDBRANCH   8  18
ENDBRANCH   7  15
ENDBRANCH   1   7
BRANCH   4  19
ATOM     19  C   UNL     1      45.616   8.203  13.098  0.00  0.00    +0.000 C 
BRANCH  19  20
ATOM     20  N   UNL     1      46.938   8.239  13.676  0.00  0.00    +0.000 N 
ATOM     21  C   UNL     1      47.959   8.930  13.072  0.00  0.00    +0.000 C 
ATOM     22  O   UNL     1      47.850   9.407  11.947  0.00  0.00    +0.000 OA
ATOM     23  H   UNL     1      47.007   8.013  14.662  0.00  0.00    +0.000 HD
BRANCH  21  24
ATOM     24  C   UNL     1      49.205   9.055  13.840  0.00  0.00    +0.000 A 
ATOM     25  C   UNL     1      49.167   9.449  15.171  0.00  0.00    +0.000 A 
ATOM     26  S   UNL     1      50.702   9.486  15.915  0.00  0.00    +0.000 S 
ATOM     27  C   UNL     1      51.460   8.909  14.504  0.00  0.00    +0.000 A 
ATOM     28  N   UNL     1      52.790   8.625  14.488  0.00  0.00    +0.000 NA
ATOM     29  C   UNL     1      53.223   8.159  13.365  0.00  0.00    +0.000 A 
ATOM     30  N   UNL     1      52.455   7.986  12.243  0.00  0.00    +0.000 N 
ATOM     31  C   UNL     1      51.122   8.319  12.193  0.00  0.00    +0.000 A 
ATOM     32  O   UNL     1      50.489   8.257  11.145  0.00  0.00    +0.000 OA
ATOM     33  C   UNL     1      50.568   8.773  13.455  0.00  0.00    +0.000 A 
ATOM     34  H   UNL     1      52.865   7.663  11.379  0.00  0.00    +0.000 HD
ENDBRANCH  21  24
ENDBRANCH  19  20
ENDBRANCH   4  19
TORSDOF 6
ENDMDL
MODEL 7
REMARK VINA RESULT:    -6.712      4.997      9.994
REMARK INTER + INTRA:          -9.896
REMARK INTER:                  -8.831
REMARK INTRA:                  -1.065
REMARK UNBOUND:                -0.830
REMARK  Name = 
REMARK  7 active torsions:
REMARK  status: ('A' for Active; 'I' for Inactive)
REMARK    1  A    between atoms: C_1  and  O_2
REMARK    2  A    between atoms: O_2  and  C_3
REMARK    3  A    between atoms: N_10  and  C_11
REMARK    4  A    between atoms: C_11  and  C_12
REMARK    5  A    between atoms: C_15  and  C_16
REMARK    6  A    between atoms: C_16  and  N_17
REMARK    7  A    between atoms: C_18  and  C_20
REMARK                            x       y       z     vdW  Elec       q    Type
REMARK                         _______ _______ _______ _____ _____    ______ ____
ROOT
ATOM      1  C   UNL     1      51.435   3.311  17.975  0.00  0.00    +0.000 A 
ATOM      2  C   UNL     1      50.785   2.218  17.384  0.00  0.00    +0.000 A 
ATOM      3  C   UNL     1      49.444   2.310  16.990  0.00  0.00    +0.000 A 
ATOM      4  C   UNL     1      48.734   3.508  17.150  0.00  0.00    +0.000 A 
ATOM      5  C   UNL     1      49.381   4.596  17.750  0.00  0.00    +0.000 A 
ATOM      6  C   UNL     1      50.719   4.502  18.150  0.00  0.00    +0.000 A 
ENDROOT
BRANCH   1   7
ATOM      7  C   UNL     1      52.856   3.194  18.459  0.00  0.00    +0.000 C 
BRANCH   7  15
ATOM      8  C   UNL     1      54.714  -0.812  18.334  0.00  0.00    +0.000 A 
ATOM      9  C   UNL     1      55.210  -1.956  18.943  0.00  0.00    +0.000 A 
ATOM     10  C   UNL     1      55.696  -1.611  20.220  0.00  0.00    +0.000 A 
ATOM     11  C   UNL     1      55.532  -0.256  20.351  0.00  0.00    +0.000 A 
ATOM     12  N   UNL     1      54.897   0.248  19.224  0.00  0.00    +0.000 N 
ATOM     13  C   UNL     1      54.585   1.614  19.066  0.00  0.00    +0.000 C 
ATOM     14  O   UNL     1      55.340   2.461  19.526  0.00  0.00    +0.000 OA
ATOM     15  N   UNL     1      53.344   1.837  18.517  0.00  0.00    +0.000 N 
ATOM     16  H   UNL     1      52.722   1.059  18.325  0.00  0.00    +0.000 HD
BRANCH   8  18
ATOM     17  C   UNL     1      55.171  -0.434  16.070  0.00  0.00    +0.000 C 
ATOM     18  O   UNL     1      54.210  -0.598  17.111  0.00  0.00    +0.000 OA
ENDBRANCH   8  18
ENDBRANCH   7  15
ENDBRANCH   1   7
BRANCH   4  19
ATOM     19  C   UNL     1      47.290   3.617  16.728  0.00  0.00    +0.000 C 
BRANCH  19  20
ATOM     20  N   UNL     1      47.106   4.656  15.744  0.00  0.00    +0.000 N 
ATOM     21  C   UNL     1      46.968   4.358  14.412  0.00  0.00    +0.000 C 
ATOM     22  O   UNL     1      47.156   3.229  13.972  0.00  0.00    +0.000 OA
ATOM     23  H   UNL     1      46.777   5.552  16.090  0.00  0.00    +0.000 HD
BRANCH  21  24
ATOM     24  C   UNL     1      46.599   5.473  13.529  0.00  0.00    +0.000 A 
ATOM     25  C   UNL     1      45.405   5.436  12.822  0.00  0.00    +0.000 A 
ATOM     26  S   UNL     1      45.120   6.838  11.893  0.00  0.00    +0.000 S 
ATOM     27  C   UNL     1      46.548   7.571  12.460  0.00  0.00    +0.000 A 
ATOM     28  N   UNL     1      46.865   8.848  12.117  0.00  0.00    +0.000 NA
ATOM     29  C   UNL     1      47.956   9.288  12.650  0.00  0.00    +0.000 A 
ATOM     30  N   UNL     1      48.778   8.556  13.465  0.00  0.00    +0.000 N 
ATOM     31  C   UNL     1      48.531   7.242  13.788  0.00  0.00    +0.000 A 
ATOM     32  O   UNL     1      49.341   6.581  14.427  0.00  0.00    +0.000 OA
ATOM     33  C   UNL     1      47.275   6.725  13.277  0.00  0.00    +0.000 A 
ATOM     34  H   UNL     1      49.644   8.943  13.811  0.00  0.00    +0.000 HD
ENDBRANCH  21  24
ENDBRANCH  19  20
ENDBRANCH   4  19
TORSDOF 6
ENDMDL
MODEL 8
REMARK VINA RESULT:    -6.409      2.524      4.036
REMARK INTER + INTRA:          -9.487
REMARK INTER:                  -8.440
REMARK INTRA:                  -1.047
REMARK UNBOUND:                -0.830
REMARK  Name = 
REMARK  7 active torsions:
REMARK  status: ('A' for Active; 'I' for Inactive)
REMARK    1  A    between atoms: C_1  and  O_2
REMARK    2  A    between atoms: O_2  and  C_3
REMARK    3  A    between atoms: N_10  and  C_11
REMARK    4  A    between atoms: C_11  and  C_12
REMARK    5  A    between atoms: C_15  and  C_16
REMARK    6  A    between atoms: C_16  and  N_17
REMARK    7  A    between atoms: C_18  and  C_20
REMARK                            x       y       z     vdW  Elec       q    Type
REMARK                         _______ _______ _______ _____ _____    ______ ____
ROOT
ATOM      1  C   UNL     1      46.711   8.205  12.186  0.00  0.00    +0.000 A 
ATOM      2  C   UNL     1      47.740   7.675  11.393  0.00  0.00    +0.000 A 
ATOM      3  C   UNL     1      49.082   7.844  11.755  0.00  0.00    +0.000 A 
ATOM      4  C   UNL     1      49.423   8.520  12.935  0.00  0.00    +0.000 A 
ATOM      5  C   UNL     1      48.395   9.058  13.721  0.00  0.00    +0.000 A 
ATOM      6  C   UNL     1      47.055   8.895  13.355  0.00  0.00    +0.000 A 
ENDROOT
BRANCH   1   7
ATOM      7  C   UNL     1      45.270   8.081  11.765  0.00  0.00    +0.000 C 
BRANCH   7  15
ATOM      8  C   UNL     1      44.643   3.927  10.399  0.00  0.00    +0.000 A 
ATOM      9  C   UNL     1      43.937   2.733  10.381  0.00  0.00    +0.000 A 
ATOM     10  C   UNL     1      43.285   2.578  11.621  0.00  0.00    +0.000 A 
ATOM     11  C   UNL     1      43.641   3.655  12.391  0.00  0.00    +0.000 A 
ATOM     12  N   UNL     1      44.442   4.514  11.650  0.00  0.00    +0.000 N 
ATOM     13  C   UNL     1      44.963   5.715  12.170  0.00  0.00    +0.000 C 
ATOM     14  O   UNL     1      45.282   5.772  13.350  0.00  0.00    +0.000 OA
ATOM     15  N   UNL     1      44.913   6.768  11.285  0.00  0.00    +0.000 N 
ATOM     16  H   UNL     1      44.469   6.655  10.380  0.00  0.00    +0.000 HD
BRANCH   8  18
ATOM     17  C   UNL     1      45.467   3.895   8.208  0.00  0.00    +0.000 C 
ATOM     18  O   UNL     1      45.465   4.492   9.504  0.00  0.00    +0.000 OA
ENDBRANCH   8  18
ENDBRANCH   7  15
ENDBRANCH   1   7
BRANCH   4  19
ATOM     19  C   UNL     1      50.865   8.706  13.333  0.00  0.00    +0.000 C 
BRANCH  19  20
ATOM     20  N   UNL     1      51.287   7.695  14.272  0.00  0.00    +0.000 N 
ATOM     21  C   UNL     1      51.329   7.949  15.620  0.00  0.00    +0.000 C 
ATOM     22  O   UNL     1      51.173   9.076  16.078  0.00  0.00    +0.000 OA
ATOM     23  H   UNL     1      51.249   6.733  13.949  0.00  0.00    +0.000 HD
BRANCH  21  24
ATOM     24  C   UNL     1      51.591   6.797  16.493  0.00  0.00    +0.000 A 
ATOM     25  C   UNL     1      52.813   6.676  17.140  0.00  0.00    +0.000 A 
ATOM     26  S   UNL     1      52.916   5.305  18.151  0.00  0.00    +0.000 S 
ATOM     27  C   UNL     1      51.305   4.867  17.814  0.00  0.00    +0.000 A 
ATOM     28  N   UNL     1      50.720   3.813  18.441  0.00  0.00    +0.000 NA
ATOM     29  C   UNL     1      49.485   3.619  18.117  0.00  0.00    +0.000 A 
ATOM     30  N   UNL     1      48.792   4.361  17.196  0.00  0.00    +0.000 N 
ATOM     31  C   UNL     1      49.362   5.396  16.492  0.00  0.00    +0.000 A 
ATOM     32  O   UNL     1      48.752   5.968  15.597  0.00  0.00    +0.000 OA
ATOM     33  C   UNL     1      50.727   5.704  16.877  0.00  0.00    +0.000 A 
ATOM     34  H   UNL     1      47.841   4.128  16.952  0.00  0.00    +0.000 HD
ENDBRANCH  21  24
ENDBRANCH  19  20
ENDBRANCH   4  19
TORSDOF 6
ENDMDL
MODEL 9
REMARK VINA RESULT:    -6.385      5.562      8.007
REMARK INTER + INTRA:          -9.455
REMARK INTER:                  -8.652
REMARK INTRA:                  -0.802
REMARK UNBOUND:                -0.830
REMARK  Name = 
REMARK  7 active torsions:
REMARK  status: ('A' for Active; 'I' for Inactive)
REMARK    1  A    between atoms: C_1  and  O_2
REMARK    2  A    between atoms: O_2  and  C_3
REMARK    3  A    between atoms: N_10  and  C_11
REMARK    4  A    between atoms: C_11  and  C_12
REMARK    5  A    between atoms: C_15  and  C_16
REMARK    6  A    between atoms: C_16  and  N_17
REMARK    7  A    between atoms: C_18  and  C_20
REMARK                            x       y       z     vdW  Elec       q    Type
REMARK                         _______ _______ _______ _____ _____    ______ ____
ROOT
ATOM      1  C   UNL     1      47.475   8.337  12.419  0.00  0.00    +0.000 A 
ATOM      2  C   UNL     1      47.786   9.701  12.312  0.00  0.00    +0.000 A 
ATOM      3  C   UNL     1      49.074  10.115  11.950  0.00  0.00    +0.000 A 
ATOM      4  C   UNL     1      50.070   9.174  11.657  0.00  0.00    +0.000 A 
ATOM      5  C   UNL     1      49.761   7.812  11.774  0.00  0.00    +0.000 A 
ATOM      6  C   UNL     1      48.477   7.398  12.143  0.00  0.00    +0.000 A 
ENDROOT
BRANCH   1   7
ATOM      7  C   UNL     1      46.110   7.890  12.872  0.00  0.00    +0.000 C 
BRANCH   7  15
ATOM      8  C   UNL     1      44.869   4.408  10.453  0.00  0.00    +0.000 A 
ATOM      9  C   UNL     1      44.028   3.339  10.180  0.00  0.00    +0.000 A 
ATOM     10  C   UNL     1      43.485   2.872  11.395  0.00  0.00    +0.000 A 
ATOM     11  C   UNL     1      44.039   3.633  12.393  0.00  0.00    +0.000 A 
ATOM     12  N   UNL     1      44.860   4.605  11.836  0.00  0.00    +0.000 N 
ATOM     13  C   UNL     1      45.567   5.546  12.610  0.00  0.00    +0.000 C 
ATOM     14  O   UNL     1      46.003   5.218  13.706  0.00  0.00    +0.000 OA
ATOM     15  N   UNL     1      45.555   6.817  12.082  0.00  0.00    +0.000 N 
ATOM     16  H   UNL     1      45.016   7.019  11.248  0.00  0.00    +0.000 HD
BRANCH   8  18
ATOM     17  C   UNL     1      45.947   4.584   8.384  0.00  0.00    +0.000 C 
ATOM     18  O   UNL     1      45.660   5.146   9.664  0.00  0.00    +0.000 OA
ENDBRANCH   8  18
ENDBRANCH   7  15
ENDBRANCH   1   7
BRANCH   4  19
ATOM     19  C   UNL     1      51.459   9.611  11.264  0.00  0.00    +0.000 C 
BRANCH  19  20
ATOM     20  N   UNL     1      51.785   9.189   9.924  0.00  0.00    +0.000 N 
ATOM     21  C   UNL     1      53.053   8.775   9.598  0.00  0.00    +0.000 C 
ATOM     22  O   UNL     1      53.999   8.896  10.369  0.00  0.00    +0.000 OA
ATOM     23  H   UNL     1      51.007   8.916   9.333  0.00  0.00    +0.000 HD
BRANCH  21  24
ATOM     24  C   UNL     1      53.224   8.192   8.260  0.00  0.00    +0.000 A 
ATOM     25  C   UNL     1      53.220   9.009   7.138  0.00  0.00    +0.000 A 
ATOM     26  S   UNL     1      53.486   8.165   5.679  0.00  0.00    +0.000 S 
ATOM     27  C   UNL     1      53.685   6.690   6.506  0.00  0.00    +0.000 A 
ATOM     28  N   UNL     1      54.033   5.555   5.842  0.00  0.00    +0.000 NA
ATOM     29  C   UNL     1      54.188   4.521   6.598  0.00  0.00    +0.000 A 
ATOM     30  N   UNL     1      53.991   4.508   7.954  0.00  0.00    +0.000 N 
ATOM     31  C   UNL     1      53.579   5.614   8.659  0.00  0.00    +0.000 A 
ATOM     32  O   UNL     1      53.305   5.543   9.851  0.00  0.00    +0.000 OA
ATOM     33  C   UNL     1      53.467   6.824   7.865  0.00  0.00    +0.000 A 
ATOM     34  H   UNL     1      54.082   3.652   8.483  0.00  0.00    +0.000 HD
ENDBRANCH  21  24
ENDBRANCH  19  20
ENDBRANCH   4  19
TORSDOF 6
ENDMDL
