MODEL 1
REMARK VINA RESULT:    -7.465      0.000      0.000
REMARK INTER + INTRA:         -10.914
REMARK INTER:                 -10.084
REMARK INTRA:                  -0.830
REMARK UNBOUND:                -0.830
REMARK  Name = 
REMARK  6 active torsions:
REMARK  status: ('A' for Active; 'I' for Inactive)
REMARK    1  A    between atoms: C_4  and  O_5
REMARK    2  A    between atoms: O_5  and  C_6
REMARK    3  A    between atoms: C_6  and  C_7
REMARK    4  A    between atoms: C_7  and  C_8
REMARK    5  A    between atoms: C_12  and  O_13
REMARK    6  A    between atoms: O_13  and  C_14
REMARK                            x       y       z     vdW  Elec       q    Type
REMARK                         _______ _______ _______ _____ _____    ______ ____
ROOT
ATOM      1  C   UNL     1      45.622   4.398  12.171  0.00  0.00    +0.000 A 
ATOM      2  C   UNL     1      45.791   5.603  11.467  0.00  0.00    +0.000 A 
ATOM      3  C   UNL     1      46.626   6.612  11.946  0.00  0.00    +0.000 A 
ATOM      4  C   UNL     1      47.322   6.437  13.137  0.00  0.00    +0.000 A 
ATOM      5  C   UNL     1      47.189   5.243  13.843  0.00  0.00    +0.000 A 
ATOM      6  C   UNL     1      46.337   4.236  13.368  0.00  0.00    +0.000 A 
ENDROOT
BRANCH   1   7
ATOM      7  C   UNL     1      44.700   3.285  11.688  0.00  0.00    +0.000 C 
BRANCH   7   8
ATOM      8  C   UNL     1      44.209   3.486  10.251  0.00  0.00    +0.000 C 
BRANCH   8   9
ATOM      9  O   UNL     1      44.232   2.296   9.457  0.00  0.00    +0.000 OA
BRANCH   9  13
ATOM     10  C   UNL     1      47.421   2.473   6.844  0.00  0.00    +0.000 A 
ATOM     11  C   UNL     1      46.664   3.617   7.084  0.00  0.00    +0.000 A 
ATOM     12  C   UNL     1      45.584   3.557   7.966  0.00  0.00    +0.000 A 
ATOM     13  C   UNL     1      45.308   2.345   8.574  0.00  0.00    +0.000 A 
ATOM     14  N   UNL     1      46.028   1.220   8.349  0.00  0.00    +0.000 NA
ATOM     15  C   UNL     1      47.066   1.305   7.495  0.00  0.00    +0.000 A 
ENDBRANCH   9  13
ENDBRANCH   8   9
ENDBRANCH   7   8
ENDBRANCH   1   7
BRANCH   5  16
ATOM     16  O   UNL     1      47.822   4.980  15.033  0.00  0.00    +0.000 OA
BRANCH  16  17
ATOM     17  C   UNL     1      47.230   4.017  15.937  0.00  0.00    +0.000 C 
ATOM     18  C   UNL     1      47.181   4.401  17.437  0.00  0.00    +0.000 C 
ATOM     19  C   UNL     1      47.652   2.980  17.779  0.00  0.00    +0.000 C 
ATOM     20  C   UNL     1      48.175   2.857  16.340  0.00  0.00    +0.000 C 
ENDBRANCH  16  17
ENDBRANCH   5  16
TORSDOF 6
ENDMDL
MODEL 2
REMARK VINA RESULT:    -6.889      1.947      3.440
REMARK INTER + INTRA:         -10.136
REMARK INTER:                  -9.317
REMARK INTRA:                  -0.819
REMARK UNBOUND:                -0.830
REMARK  Name = 
REMARK  6 active torsions:
REMARK  status: ('A' for Active; 'I' for Inactive)
REMARK    1  A    between atoms: C_4  and  O_5
REMARK    2  A    between atoms: O_5  and  C_6
REMARK    3  A    between atoms: C_6  and  C_7
REMARK    4  A    between atoms: C_7  and  C_8
REMARK    5  A    between atoms: C_12  and  O_13
REMARK    6  A    between atoms: O_13  and  C_14
REMARK                            x       y       z     vdW  Elec       q    Type
REMARK                         _______ _______ _______ _____ _____    ______ ____
ROOT
ATOM      1  C   UNL     1      44.853   4.762  11.700  0.00  0.00    +0.000 A 
ATOM      2  C   UNL     1      45.384   3.664  12.401  0.00  0.00    +0.000 A 
ATOM      3  C   UNL     1      46.396   3.827  13.346  0.00  0.00    +0.000 A 
ATOM      4  C   UNL     1      46.896   5.095  13.622  0.00  0.00    +0.000 A 
ATOM      5  C   UNL     1      46.373   6.202  12.958  0.00  0.00    +0.000 A 
ATOM      6  C   UNL     1      45.366   6.034  11.997  0.00  0.00    +0.000 A 
ENDROOT
BRANCH   1   7
ATOM      7  C   UNL     1      43.765   4.615  10.644  0.00  0.00    +0.000 C 
BRANCH   7   8
ATOM      8  C   UNL     1      44.291   4.113   9.297  0.00  0.00    +0.000 C 
BRANCH   8   9
ATOM      9  O   UNL     1      44.468   2.695   9.233  0.00  0.00    +0.000 OA
BRANCH   9  13
ATOM     10  C   UNL     1      47.607   1.835   6.695  0.00  0.00    +0.000 A 
ATOM     11  C   UNL     1      47.073   3.120   6.719  0.00  0.00    +0.000 A 
ATOM     12  C   UNL     1      46.010   3.412   7.575  0.00  0.00    +0.000 A 
ATOM     13  C   UNL     1      45.524   2.394   8.377  0.00  0.00    +0.000 A 
ATOM     14  N   UNL     1      46.026   1.135   8.365  0.00  0.00    +0.000 NA
ATOM     15  C   UNL     1      47.051   0.882   7.531  0.00  0.00    +0.000 A 
ENDBRANCH   9  13
ENDBRANCH   8   9
ENDBRANCH   7   8
ENDBRANCH   1   7
BRANCH   5  16
ATOM     16  O   UNL     1      46.808   7.491  13.151  0.00  0.00    +0.000 OA
BRANCH  16  17
ATOM     17  C   UNL     1      48.214   7.783  12.975  0.00  0.00    +0.000 C 
ATOM     18  C   UNL     1      48.620   9.278  12.938  0.00  0.00    +0.000 C 
ATOM     19  C   UNL     1      49.530   8.962  11.741  0.00  0.00    +0.000 C 
ATOM     20  C   UNL     1      48.706   7.687  11.509  0.00  0.00    +0.000 C 
ENDBRANCH  16  17
ENDBRANCH   5  16
TORSDOF 6
ENDMDL
MODEL 3
REMARK VINA RESULT:    -6.679      2.285      7.353
REMARK INTER + INTRA:          -9.851
REMARK INTER:                  -9.032
REMARK INTRA:                  -0.819
REMARK UNBOUND:                -0.830
REMARK  Name = 
REMARK  6 active torsions:
REMARK  status: ('A' for Active; 'I' for Inactive)
REMARK    1  A    between atoms: C_4  and  O_5
REMARK    2  A    between atoms: O_5  and  C_6
REMARK    3  A    between atoms: C_6  and  C_7
REMARK    4  A    between atoms: C_7  and  C_8
REMARK    5  A    between atoms: C_12  and  O_13
REMARK    6  A    between atoms: O_13  and  C_14
REMARK                            x       y       z     vdW  Elec       q    Type
REMARK                         _______ _______ _______ _____ _____    ______ ____
ROOT
ATOM      1  C   UNL     1      44.837   5.259  11.010  0.00  0.00    +0.000 A 
ATOM      2  C   UNL     1      44.226   4.378  11.919  0.00  0.00    +0.000 A 
ATOM      3  C   UNL     1      43.868   3.083  11.545  0.00  0.00    +0.000 A 
ATOM      4  C   UNL     1      44.122   2.633  10.254  0.00  0.00    +0.000 A 
ATOM      5  C   UNL     1      44.747   3.480   9.339  0.00  0.00    +0.000 A 
ATOM      6  C   UNL     1      45.092   4.786   9.713  0.00  0.00    +0.000 A 
ENDROOT
BRANCH   1   7
ATOM      7  C   UNL     1      45.219   6.687  11.379  0.00  0.00    +0.000 C 
BRANCH   7   8
ATOM      8  C   UNL     1      46.108   6.775  12.623  0.00  0.00    +0.000 C 
BRANCH   8   9
ATOM      9  O   UNL     1      47.140   5.785  12.672  0.00  0.00    +0.000 OA
BRANCH   9  13
ATOM     10  C   UNL     1      48.080   4.939  16.600  0.00  0.00    +0.000 A 
ATOM     11  C   UNL     1      47.166   4.137  15.923  0.00  0.00    +0.000 A 
ATOM     12  C   UNL     1      46.846   4.423  14.595  0.00  0.00    +0.000 A 
ATOM     13  C   UNL     1      47.461   5.510  13.998  0.00  0.00    +0.000 A 
ATOM     14  N   UNL     1      48.348   6.306  14.642  0.00  0.00    +0.000 NA
ATOM     15  C   UNL     1      48.641   6.007  15.921  0.00  0.00    +0.000 A 
ENDBRANCH   9  13
ENDBRANCH   8   9
ENDBRANCH   7   8
ENDBRANCH   1   7
BRANCH   5  16
ATOM     16  O   UNL     1      45.028   3.134   8.040  0.00  0.00    +0.000 OA
BRANCH  16  17
ATOM     17  C   UNL     1      46.413   3.031   7.633  0.00  0.00    +0.000 C 
ATOM     18  C   UNL     1      46.714   3.201   6.123  0.00  0.00    +0.000 C 
ATOM     19  C   UNL     1      47.660   1.995   6.213  0.00  0.00    +0.000 C 
ATOM     20  C   UNL     1      46.930   1.577   7.498  0.00  0.00    +0.000 C 
ENDBRANCH  16  17
ENDBRANCH   5  16
TORSDOF 6
ENDMDL
MODEL 4
REMARK VINA RESULT:    -6.486      2.470      7.601
REMARK INTER + INTRA:          -9.591
REMARK INTER:                  -9.089
REMARK INTRA:                  -0.503
REMARK UNBOUND:                -0.830
REMARK  Name = 
REMARK  6 active torsions:
REMARK  status: ('A' for Active; 'I' for Inactive)
REMARK    1  A    between atoms: C_4  and  O_5
REMARK    2  A    between atoms: O_5  and  C_6
REMARK    3  A    between atoms: C_6  and  C_7
REMARK    4  A    between atoms: C_7  and  C_8
REMARK    5  A    between atoms: C_12  and  O_13
REMARK    6  A    between atoms: O_13  and  C_14
REMARK                            x       y       z     vdW  Elec       q    Type
REMARK                         _______ _______ _______ _____ _____    ______ ____
ROOT
ATOM      1  C   UNL     1      45.233   5.144  12.738  0.00  0.00    +0.000 A 
ATOM      2  C   UNL     1      44.031   5.872  12.741  0.00  0.00    +0.000 A 
ATOM      3  C   UNL     1      42.955   5.497  11.938  0.00  0.00    +0.000 A 
ATOM      4  C   UNL     1      43.050   4.378  11.118  0.00  0.00    +0.000 A 
ATOM      5  C   UNL     1      44.223   3.626  11.113  0.00  0.00    +0.000 A 
ATOM      6  C   UNL     1      45.310   4.014  11.910  0.00  0.00    +0.000 A 
ENDROOT
BRANCH   1   7
ATOM      7  C   UNL     1      46.437   5.540  13.585  0.00  0.00    +0.000 C 
BRANCH   7   8
ATOM      8  C   UNL     1      47.151   4.343  14.221  0.00  0.00    +0.000 C 
BRANCH   8   9
ATOM      9  O   UNL     1      46.605   3.943  15.482  0.00  0.00    +0.000 OA
BRANCH   9  13
ATOM     10  C   UNL     1      49.547   4.036  18.375  0.00  0.00    +0.000 A 
ATOM     11  C   UNL     1      48.511   3.111  18.476  0.00  0.00    +0.000 A 
ATOM     12  C   UNL     1      47.515   3.080  17.499  0.00  0.00    +0.000 A 
ATOM     13  C   UNL     1      47.600   3.984  16.455  0.00  0.00    +0.000 A 
ATOM     14  N   UNL     1      48.596   4.896  16.342  0.00  0.00    +0.000 NA
ATOM     15  C   UNL     1      49.545   4.903  17.296  0.00  0.00    +0.000 A 
ENDBRANCH   9  13
ENDBRANCH   8   9
ENDBRANCH   7   8
ENDBRANCH   1   7
BRANCH   5  16
ATOM     16  O   UNL     1      44.421   2.515  10.330  0.00  0.00    +0.000 OA
BRANCH  16  17
ATOM     17  C   UNL     1      44.629   2.693   8.910  0.00  0.00    +0.000 C 
ATOM     18  C   UNL     1      45.865   1.994   8.289  0.00  0.00    +0.000 C 
ATOM     19  C   UNL     1      46.158   3.285   7.510  0.00  0.00    +0.000 C 
ATOM     20  C   UNL     1      45.290   4.041   8.527  0.00  0.00    +0.000 C 
ENDBRANCH  16  17
ENDBRANCH   5  16
TORSDOF 6
ENDMDL
MODEL 5
REMARK VINA RESULT:    -6.208      3.247      7.205
REMARK INTER + INTRA:          -9.216
REMARK INTER:                  -8.502
REMARK INTRA:                  -0.713
REMARK UNBOUND:                -0.830
REMARK  Name = 
REMARK  6 active torsions:
REMARK  status: ('A' for Active; 'I' for Inactive)
REMARK    1  A    between atoms: C_4  and  O_5
REMARK    2  A    between atoms: O_5  and  C_6
REMARK    3  A    between atoms: C_6  and  C_7
REMARK    4  A    between atoms: C_7  and  C_8
REMARK    5  A    between atoms: C_12  and  O_13
REMARK    6  A    between atoms: O_13  and  C_14
REMARK                            x       y       z     vdW  Elec       q    Type
REMARK                         _______ _______ _______ _____ _____    ______ ____
ROOT
ATOM      1  C   UNL     1      44.940   5.145  11.072  0.00  0.00    +0.000 A 
ATOM      2  C   UNL     1      44.127   4.502  12.022  0.00  0.00    +0.000 A 
ATOM      3  C   UNL     1      43.600   3.233  11.784  0.00  0.00    +0.000 A 
ATOM      4  C   UNL     1      43.881   2.571  10.594  0.00  0.00    +0.000 A 
ATOM      5  C   UNL     1      44.702   3.178   9.645  0.00  0.00    +0.000 A 
ATOM      6  C   UNL     1      45.218   4.460   9.880  0.00  0.00    +0.000 A 
ENDROOT
BRANCH   1   7
ATOM      7  C   UNL     1      45.513   6.541  11.290  0.00  0.00    +0.000 C 
BRANCH   7   8
ATOM      8  C   UNL     1      46.227   6.700  12.636  0.00  0.00    +0.000 C 
BRANCH   8   9
ATOM      9  O   UNL     1      47.397   5.887  12.773  0.00  0.00    +0.000 OA
BRANCH   9  13
ATOM     10  C   UNL     1      50.662   8.307  13.486  0.00  0.00    +0.000 A 
ATOM     11  C   UNL     1      50.070   8.304  12.226  0.00  0.00    +0.000 A 
ATOM     12  C   UNL     1      48.966   7.485  11.983  0.00  0.00    +0.000 A 
ATOM     13  C   UNL     1      48.501   6.697  13.022  0.00  0.00    +0.000 A 
ATOM     14  N   UNL     1      49.067   6.681  14.253  0.00  0.00    +0.000 NA
ATOM     15  C   UNL     1      50.129   7.482  14.461  0.00  0.00    +0.000 A 
ENDBRANCH   9  13
ENDBRANCH   8   9
ENDBRANCH   7   8
ENDBRANCH   1   7
BRANCH   5  16
ATOM     16  O   UNL     1      45.027   2.613   8.436  0.00  0.00    +0.000 OA
BRANCH  16  17
ATOM     17  C   UNL     1      46.379   2.758   7.943  0.00  0.00    +0.000 C 
ATOM     18  C   UNL     1      46.545   3.303   6.501  0.00  0.00    +0.000 C 
ATOM     19  C   UNL     1      47.605   2.219   6.254  0.00  0.00    +0.000 C 
ATOM     20  C   UNL     1      47.020   1.440   7.441  0.00  0.00    +0.000 C 
ENDBRANCH  16  17
ENDBRANCH   5  16
TORSDOF 6
ENDMDL
MODEL 6
REMARK VINA RESULT:    -6.190      2.867      3.514
REMARK INTER + INTRA:          -9.191
REMARK INTER:                  -8.393
REMARK INTRA:                  -0.798
REMARK UNBOUND:                -0.830
REMARK  Name = 
REMARK  6 active torsions:
REMARK  status: ('A' for Active; 'I' for Inactive)
REMARK    1  A    between atoms: C_4  and  O_5
REMARK    2  A    between atoms: O_5  and  C_6
REMARK    3  A    between atoms: C_6  and  C_7
REMARK    4  A    between atoms: C_7  and  C_8
REMARK    5  A    between atoms: C_12  and  O_13
REMARK    6  A    between atoms: O_13  and  C_14
REMARK                            x       y       z     vdW  Elec       q    Type
REMARK                         _______ _______ _______ _____ _____    ______ ____
ROOT
ATOM      1  C   UNL     1      44.162   4.780  11.511  0.00  0.00    +0.000 A 
ATOM      2  C   UNL     1      43.288   5.871  11.369  0.00  0.00    +0.000 A 
ATOM      3  C   UNL     1      43.757   7.184  11.391  0.00  0.00    +0.000 A 
ATOM      4  C   UNL     1      45.116   7.438  11.545  0.00  0.00    +0.000 A 
ATOM      5  C   UNL     1      46.007   6.373  11.666  0.00  0.00    +0.000 A 
ATOM      6  C   UNL     1      45.531   5.054  11.659  0.00  0.00    +0.000 A 
ENDROOT
BRANCH   1   7
ATOM      7  C   UNL     1      43.680   3.334  11.515  0.00  0.00    +0.000 C 
BRANCH   7   8
ATOM      8  C   UNL     1      44.144   2.536  10.294  0.00  0.00    +0.000 C 
BRANCH   8   9
ATOM      9  O   UNL     1      44.164   3.292   9.078  0.00  0.00    +0.000 OA
BRANCH   9  13
ATOM     10  C   UNL     1      47.503   2.259   6.884  0.00  0.00    +0.000 A 
ATOM     11  C   UNL     1      46.877   1.301   7.676  0.00  0.00    +0.000 A 
ATOM     12  C   UNL     1      45.749   1.649   8.420  0.00  0.00    +0.000 A 
ATOM     13  C   UNL     1      45.294   2.954   8.337  0.00  0.00    +0.000 A 
ATOM     14  N   UNL     1      45.893   3.902   7.578  0.00  0.00    +0.000 NA
ATOM     15  C   UNL     1      46.978   3.539   6.869  0.00  0.00    +0.000 A 
ENDBRANCH   9  13
ENDBRANCH   8   9
ENDBRANCH   7   8
ENDBRANCH   1   7
BRANCH   5  16
ATOM     16  O   UNL     1      47.362   6.520  11.835  0.00  0.00    +0.000 OA
BRANCH  16  17
ATOM     17  C   UNL     1      47.849   7.652  12.594  0.00  0.00    +0.000 C 
ATOM     18  C   UNL     1      48.584   8.763  11.802  0.00  0.00    +0.000 C 
ATOM     19  C   UNL     1      49.647   8.798  12.910  0.00  0.00    +0.000 C 
ATOM     20  C   UNL     1      49.185   7.396  13.334  0.00  0.00    +0.000 C 
ENDBRANCH  16  17
ENDBRANCH   5  16
TORSDOF 6
ENDMDL
MODEL 7
REMARK VINA RESULT:    -6.109      2.524      6.730
REMARK INTER + INTRA:          -9.082
REMARK INTER:                  -8.088
REMARK INTRA:                  -0.994
REMARK UNBOUND:                -0.830
REMARK  Name = 
REMARK  6 active torsions:
REMARK  status: ('A' for Active; 'I' for Inactive)
REMARK    1  A    between atoms: C_4  and  O_5
REMARK    2  A    between atoms: O_5  and  C_6
REMARK    3  A    between atoms: C_6  and  C_7
REMARK    4  A    between atoms: C_7  and  C_8
REMARK    5  A    between atoms: C_12  and  O_13
REMARK    6  A    between atoms: O_13  and  C_14
REMARK                            x       y       z     vdW  Elec       q    Type
REMARK                         _______ _______ _______ _____ _____    ______ ____
ROOT
ATOM      1  C   UNL     1      45.312   4.164  12.875  0.00  0.00    +0.000 A 
ATOM      2  C   UNL     1      44.193   4.976  13.134  0.00  0.00    +0.000 A 
ATOM      3  C   UNL     1      43.146   5.079  12.220  0.00  0.00    +0.000 A 
ATOM      4  C   UNL     1      43.186   4.365  11.028  0.00  0.00    +0.000 A 
ATOM      5  C   UNL     1      44.273   3.537  10.756  0.00  0.00    +0.000 A 
ATOM      6  C   UNL     1      45.333   3.447  11.669  0.00  0.00    +0.000 A 
ENDROOT
BRANCH   1   7
ATOM      7  C   UNL     1      46.485   4.048  13.841  0.00  0.00    +0.000 C 
BRANCH   7   8
ATOM      8  C   UNL     1      47.192   5.382  14.099  0.00  0.00    +0.000 C 
BRANCH   8   9
ATOM      9  O   UNL     1      48.267   5.656  13.195  0.00  0.00    +0.000 OA
BRANCH   9  13
ATOM     10  C   UNL     1      47.984   9.565  11.902  0.00  0.00    +0.000 A 
ATOM     11  C   UNL     1      46.906   8.977  12.558  0.00  0.00    +0.000 A 
ATOM     12  C   UNL     1      47.000   7.654  12.994  0.00  0.00    +0.000 A 
ATOM     13  C   UNL     1      48.179   6.973  12.752  0.00  0.00    +0.000 A 
ATOM     14  N   UNL     1      49.237   7.524  12.110  0.00  0.00    +0.000 NA
ATOM     15  C   UNL     1      49.121   8.802  11.702  0.00  0.00    +0.000 A 
ENDBRANCH   9  13
ENDBRANCH   8   9
ENDBRANCH   7   8
ENDBRANCH   1   7
BRANCH   5  16
ATOM     16  O   UNL     1      44.411   2.803   9.603  0.00  0.00    +0.000 OA
BRANCH  16  17
ATOM     17  C   UNL     1      45.700   2.780   8.945  0.00  0.00    +0.000 C 
ATOM     18  C   UNL     1      45.786   3.449   7.549  0.00  0.00    +0.000 C 
ATOM     19  C   UNL     1      46.601   2.242   7.062  0.00  0.00    +0.000 C 
ATOM     20  C   UNL     1      46.033   1.440   8.243  0.00  0.00    +0.000 C 
ENDBRANCH  16  17
ENDBRANCH   5  16
TORSDOF 6
ENDMDL
MODEL 8
REMARK VINA RESULT:    -5.502      2.637      7.632
REMARK INTER + INTRA:          -8.261
REMARK INTER:                  -7.544
REMARK INTRA:                  -0.717
REMARK UNBOUND:                -0.830
REMARK  Name = 
REMARK  6 active torsions:
REMARK  status: ('A' for Active; 'I' for Inactive)
REMARK    1  A    between atoms: C_4  and  O_5
REMARK    2  A    between atoms: O_5  and  C_6
REMARK    3  A    between atoms: C_6  and  C_7
REMARK    4  A    between atoms: C_7  and  C_8
REMARK    5  A    between atoms: C_12  and  O_13
REMARK    6  A    between atoms: O_13  and  C_14
REMARK                            x       y       z     vdW  Elec       q    Type
REMARK                         _______ _______ _______ _____ _____    ______ ____
ROOT
ATOM      1  C   UNL     1      47.329   7.117  12.550  0.00  0.00    +0.000 A 
ATOM      2  C   UNL     1      46.540   8.273  12.416  0.00  0.00    +0.000 A 
ATOM      3  C   UNL     1      45.228   8.204  11.950  0.00  0.00    +0.000 A 
ATOM      4  C   UNL     1      44.667   6.976  11.617  0.00  0.00    +0.000 A 
ATOM      5  C   UNL     1      45.421   5.813  11.762  0.00  0.00    +0.000 A 
ATOM      6  C   UNL     1      46.746   5.886  12.215  0.00  0.00    +0.000 A 
ENDROOT
BRANCH   1   7
ATOM      7  C   UNL     1      48.774   7.160  13.033  0.00  0.00    +0.000 C 
BRANCH   7   8
ATOM      8  C   UNL     1      48.903   7.375  14.544  0.00  0.00    +0.000 C 
BRANCH   8   9
ATOM      9  O   UNL     1      49.584   6.318  15.227  0.00  0.00    +0.000 OA
BRANCH   9  13
ATOM     10  C   UNL     1      47.298   5.064  18.425  0.00  0.00    +0.000 A 
ATOM     11  C   UNL     1      47.974   6.278  18.497  0.00  0.00    +0.000 A 
ATOM     12  C   UNL     1      48.749   6.703  17.417  0.00  0.00    +0.000 A 
ATOM     13  C   UNL     1      48.813   5.885  16.302  0.00  0.00    +0.000 A 
ATOM     14  N   UNL     1      48.168   4.696  16.215  0.00  0.00    +0.000 NA
ATOM     15  C   UNL     1      47.426   4.312  17.271  0.00  0.00    +0.000 A 
ENDBRANCH   9  13
ENDBRANCH   8   9
ENDBRANCH   7   8
ENDBRANCH   1   7
BRANCH   5  16
ATOM     16  O   UNL     1      44.963   4.556  11.448  0.00  0.00    +0.000 OA
BRANCH  16  17
ATOM     17  C   UNL     1      44.477   4.309  10.108  0.00  0.00    +0.000 C 
ATOM     18  C   UNL     1      44.546   2.848   9.596  0.00  0.00    +0.000 C 
ATOM     19  C   UNL     1      45.083   3.381   8.260  0.00  0.00    +0.000 C 
ATOM     20  C   UNL     1      45.484   4.672   8.988  0.00  0.00    +0.000 C 
ENDBRANCH  16  17
ENDBRANCH   5  16
TORSDOF 6
ENDMDL
MODEL 9
REMARK VINA RESULT:    -5.447      3.154      7.144
REMARK INTER + INTRA:          -8.188
REMARK INTER:                  -7.559
REMARK INTRA:                  -0.628
REMARK UNBOUND:                -0.830
REMARK  Name = 
REMARK  6 active torsions:
REMARK  status: ('A' for Active; 'I' for Inactive)
REMARK    1  A    between atoms: C_4  and  O_5
REMARK    2  A    between atoms: O_5  and  C_6
REMARK    3  A    between atoms: C_6  and  C_7
REMARK    4  A    between atoms: C_7  and  C_8
REMARK    5  A    between atoms: C_12  and  O_13
REMARK    6  A    between atoms: O_13  and  C_14
REMARK                            x       y       z     vdW  Elec       q    Type
REMARK                         _______ _______ _______ _____ _____    ______ ____
ROOT
ATOM      1  C   UNL     1      47.389   7.439  12.946  0.00  0.00    +0.000 A 
ATOM      2  C   UNL     1      46.588   8.576  13.151  0.00  0.00    +0.000 A 
ATOM      3  C   UNL     1      45.344   8.707  12.534  0.00  0.00    +0.000 A 
ATOM      4  C   UNL     1      44.866   7.699  11.704  0.00  0.00    +0.000 A 
ATOM      5  C   UNL     1      45.631   6.553  11.501  0.00  0.00    +0.000 A 
ATOM      6  C   UNL     1      46.888   6.429  12.110  0.00  0.00    +0.000 A 
ENDROOT
BRANCH   1   7
ATOM      7  C   UNL     1      48.763   7.275  13.586  0.00  0.00    +0.000 C 
BRANCH   7   8
ATOM      8  C   UNL     1      48.716   6.583  14.952  0.00  0.00    +0.000 C 
BRANCH   8   9
ATOM      9  O   UNL     1      47.861   5.437  14.995  0.00  0.00    +0.000 OA
BRANCH   9  13
ATOM     10  C   UNL     1      48.667   3.199  18.367  0.00  0.00    +0.000 A 
ATOM     11  C   UNL     1      47.451   3.039  17.709  0.00  0.00    +0.000 A 
ATOM     12  C   UNL     1      47.177   3.796  16.570  0.00  0.00    +0.000 A 
ATOM     13  C   UNL     1      48.141   4.689  16.135  0.00  0.00    +0.000 A 
ATOM     14  N   UNL     1      49.327   4.865  16.765  0.00  0.00    +0.000 NA
ATOM     15  C   UNL     1      49.568   4.120  17.861  0.00  0.00    +0.000 A 
ENDBRANCH   9  13
ENDBRANCH   8   9
ENDBRANCH   7   8
ENDBRANCH   1   7
BRANCH   5  16
ATOM     16  O   UNL     1      45.253   5.510  10.691  0.00  0.00    +0.000 OA
BRANCH  16  17
ATOM     17  C   UNL     1      44.965   4.228  11.298  0.00  0.00    +0.000 C 
ATOM     18  C   UNL     1      44.291   3.161  10.398  0.00  0.00    +0.000 C 
ATOM     19  C   UNL     1      43.341   2.835  11.559  0.00  0.00    +0.000 C 
ATOM     20  C   UNL     1      43.678   4.207  12.161  0.00  0.00    +0.000 C 
ENDBRANCH  16  17
ENDBRANCH   5  16
TORSDOF 6
ENDMDL
