MODEL 1
REMARK VINA RESULT:    -7.877      0.000      0.000
REMARK INTER + INTRA:         -11.325
REMARK INTER:                 -10.640
REMARK INTRA:                  -0.685
REMARK UNBOUND:                -0.685
REMARK  Name = 
REMARK  6 active torsions:
REMARK  status: ('A' for Active; 'I' for Inactive)
REMARK    1  A    between atoms: C_2  and  C_3
REMARK    2  A    between atoms: C_7  and  C_8
REMARK    3  A    between atoms: C_8  and  C_9
REMARK    4  A    between atoms: C_12  and  C_13
REMARK    5  A    between atoms: C_13  and  N_14
REMARK    6  A    between atoms: C_15  and  C_17
REMARK                            x       y       z     vdW  Elec       q    Type
REMARK                         _______ _______ _______ _____ _____    ______ ____
ROOT
ATOM      1  C   UNL     1      47.042   7.844  13.479  0.00  0.00    +0.000 C 
ENDROOT
BRANCH   1   5
ATOM      2  C   UNL     1      44.995   4.984  11.170  0.00  0.00    +0.000 A 
ATOM      3  C   UNL     1      44.646   6.329  11.130  0.00  0.00    +0.000 A 
ATOM      4  N   UNL     1      45.268   7.276  11.873  0.00  0.00    +0.000 NA
ATOM      5  C   UNL     1      46.270   6.832  12.676  0.00  0.00    +0.000 A 
ATOM      6  C   UNL     1      46.590   5.481  12.751  0.00  0.00    +0.000 A 
ATOM      7  N   UNL     1      45.971   4.537  12.003  0.00  0.00    +0.000 NA
BRANCH   2   8
ATOM      8  C   UNL     1      44.349   3.992  10.235  0.00  0.00    +0.000 C 
BRANCH   8  13
ATOM      9  C   UNL     1      46.307   1.705   7.876  0.00  0.00    +0.000 A 
ATOM     10  C   UNL     1      46.830   2.621   6.960  0.00  0.00    +0.000 A 
ATOM     11  C   UNL     1      46.585   3.984   7.124  0.00  0.00    +0.000 A 
ATOM     12  C   UNL     1      45.812   4.435   8.200  0.00  0.00    +0.000 A 
ATOM     13  C   UNL     1      45.256   3.523   9.111  0.00  0.00    +0.000 A 
ATOM     14  C   UNL     1      45.517   2.159   8.939  0.00  0.00    +0.000 A 
BRANCH   9  16
ATOM     15  N   UNL     1      46.792  -0.826   7.636  0.00  0.00    +0.000 NA
ATOM     16  C   UNL     1      46.582   0.310   7.738  0.00  0.00    +0.000 C 
ENDBRANCH   9  16
ENDBRANCH   8  13
ENDBRANCH   2   8
ENDBRANCH   1   5
BRANCH   1  17
ATOM     17  N   UNL     1      47.544   7.308  14.721  0.00  0.00    +0.000 N 
ATOM     18  C   UNL     1      48.850   6.913  14.855  0.00  0.00    +0.000 C 
ATOM     19  O   UNL     1      49.665   7.036  13.945  0.00  0.00    +0.000 OA
ATOM     20  H   UNL     1      46.849   6.982  15.385  0.00  0.00    +0.000 HD
BRANCH  18  21
ATOM     21  C   UNL     1      49.239   6.415  16.174  0.00  0.00    +0.000 A 
ATOM     22  C   UNL     1      50.190   7.094  16.921  0.00  0.00    +0.000 A 
ATOM     23  S   UNL     1      50.467   6.401  18.456  0.00  0.00    +0.000 S 
ATOM     24  C   UNL     1      49.367   5.139  18.145  0.00  0.00    +0.000 A 
ATOM     25  N   UNL     1      49.140   4.162  19.063  0.00  0.00    +0.000 NA
ATOM     26  C   UNL     1      48.310   3.250  18.675  0.00  0.00    +0.000 A 
ATOM     27  N   UNL     1      47.681   3.230  17.458  0.00  0.00    +0.000 N 
ATOM     28  C   UNL     1      47.857   4.212  16.512  0.00  0.00    +0.000 A 
ATOM     29  O   UNL     1      47.241   4.195  15.453  0.00  0.00    +0.000 OA
ATOM     30  C   UNL     1      48.787   5.255  16.896  0.00  0.00    +0.000 A 
ATOM     31  H   UNL     1      47.036   2.493  17.218  0.00  0.00    +0.000 HD
ENDBRANCH  18  21
ENDBRANCH   1  17
TORSDOF 6
ENDMDL
MODEL 2
REMARK VINA RESULT:    -7.605      2.002      3.668
REMARK INTER + INTRA:         -10.958
REMARK INTER:                 -10.045
REMARK INTRA:                  -0.913
REMARK UNBOUND:                -0.685
REMARK  Name = 
REMARK  6 active torsions:
REMARK  status: ('A' for Active; 'I' for Inactive)
REMARK    1  A    between atoms: C_2  and  C_3
REMARK    2  A    between atoms: C_7  and  C_8
REMARK    3  A    between atoms: C_8  and  C_9
REMARK    4  A    between atoms: C_12  and  C_13
REMARK    5  A    between atoms: C_13  and  N_14
REMARK    6  A    between atoms: C_15  and  C_17
REMARK                            x       y       z     vdW  Elec       q    Type
REMARK                         _______ _______ _______ _____ _____    ______ ____
ROOT
ATOM      1  C   UNL     1      47.166   4.777  15.441  0.00  0.00    +0.000 C 
ENDROOT
BRANCH   1   5
ATOM      2  C   UNL     1      45.233   4.180  11.752  0.00  0.00    +0.000 A 
ATOM      3  C   UNL     1      45.763   3.114  12.471  0.00  0.00    +0.000 A 
ATOM      4  N   UNL     1      46.409   3.269  13.651  0.00  0.00    +0.000 NA
ATOM      5  C   UNL     1      46.515   4.546  14.104  0.00  0.00    +0.000 A 
ATOM      6  C   UNL     1      46.026   5.616  13.365  0.00  0.00    +0.000 A 
ATOM      7  N   UNL     1      45.374   5.459  12.187  0.00  0.00    +0.000 NA
BRANCH   2   8
ATOM      8  C   UNL     1      44.421   3.939  10.504  0.00  0.00    +0.000 C 
BRANCH   8  13
ATOM      9  C   UNL     1      46.243   1.768   7.936  0.00  0.00    +0.000 A 
ATOM     10  C   UNL     1      46.671   2.721   7.009  0.00  0.00    +0.000 A 
ATOM     11  C   UNL     1      46.408   4.073   7.231  0.00  0.00    +0.000 A 
ATOM     12  C   UNL     1      45.710   4.474   8.376  0.00  0.00    +0.000 A 
ATOM     13  C   UNL     1      45.248   3.524   9.300  0.00  0.00    +0.000 A 
ATOM     14  C   UNL     1      45.527   2.173   9.069  0.00  0.00    +0.000 A 
BRANCH   9  16
ATOM     15  N   UNL     1      46.788  -0.739   7.591  0.00  0.00    +0.000 NA
ATOM     16  C   UNL     1      46.539   0.384   7.737  0.00  0.00    +0.000 C 
ENDBRANCH   9  16
ENDBRANCH   8  13
ENDBRANCH   2   8
ENDBRANCH   1   5
BRANCH   1  17
ATOM     17  N   UNL     1      47.870   6.035  15.510  0.00  0.00    +0.000 N 
ATOM     18  C   UNL     1      49.092   6.139  16.120  0.00  0.00    +0.000 C 
ATOM     19  O   UNL     1      49.668   5.165  16.598  0.00  0.00    +0.000 OA
ATOM     20  H   UNL     1      47.318   6.870  15.343  0.00  0.00    +0.000 HD
BRANCH  18  21
ATOM     21  C   UNL     1      49.712   7.463  16.096  0.00  0.00    +0.000 A 
ATOM     22  C   UNL     1      50.024   8.106  17.285  0.00  0.00    +0.000 A 
ATOM     23  S   UNL     1      50.798   9.610  17.059  0.00  0.00    +0.000 S 
ATOM     24  C   UNL     1      50.687   9.475  15.365  0.00  0.00    +0.000 A 
ATOM     25  N   UNL     1      51.154  10.456  14.549  0.00  0.00    +0.000 NA
ATOM     26  C   UNL     1      50.968  10.235  13.289  0.00  0.00    +0.000 A 
ATOM     27  N   UNL     1      50.365   9.118  12.771  0.00  0.00    +0.000 N 
ATOM     28  C   UNL     1      49.906   8.088  13.556  0.00  0.00    +0.000 A 
ATOM     29  O   UNL     1      49.418   7.078  13.063  0.00  0.00    +0.000 OA
ATOM     30  C   UNL     1      50.083   8.292  14.980  0.00  0.00    +0.000 A 
ATOM     31  H   UNL     1      50.257   8.999  11.776  0.00  0.00    +0.000 HD
ENDBRANCH  18  21
ENDBRANCH   1  17
TORSDOF 6
ENDMDL
MODEL 3
REMARK VINA RESULT:    -7.508      2.037      2.454
REMARK INTER + INTRA:         -10.827
REMARK INTER:                 -10.030
REMARK INTRA:                  -0.797
REMARK UNBOUND:                -0.685
REMARK  Name = 
REMARK  6 active torsions:
REMARK  status: ('A' for Active; 'I' for Inactive)
REMARK    1  A    between atoms: C_2  and  C_3
REMARK    2  A    between atoms: C_7  and  C_8
REMARK    3  A    between atoms: C_8  and  C_9
REMARK    4  A    between atoms: C_12  and  C_13
REMARK    5  A    between atoms: C_13  and  N_14
REMARK    6  A    between atoms: C_15  and  C_17
REMARK                            x       y       z     vdW  Elec       q    Type
REMARK                         _______ _______ _______ _____ _____    ______ ____
ROOT
ATOM      1  C   UNL     1      48.080   6.931  14.006  0.00  0.00    +0.000 C 
ENDROOT
BRANCH   1   5
ATOM      2  C   UNL     1      45.420   4.774  11.562  0.00  0.00    +0.000 A 
ATOM      3  C   UNL     1      45.593   6.145  11.408  0.00  0.00    +0.000 A 
ATOM      4  N   UNL     1      46.424   6.877  12.188  0.00  0.00    +0.000 NA
ATOM      5  C   UNL     1      47.093   6.186  13.148  0.00  0.00    +0.000 A 
ATOM      6  C   UNL     1      46.888   4.824  13.333  0.00  0.00    +0.000 A 
ATOM      7  N   UNL     1      46.060   4.093  12.548  0.00  0.00    +0.000 NA
BRANCH   2   8
ATOM      8  C   UNL     1      44.573   3.990  10.591  0.00  0.00    +0.000 C 
BRANCH   8  13
ATOM      9  C   UNL     1      46.224   1.758   7.961  0.00  0.00    +0.000 A 
ATOM     10  C   UNL     1      46.577   2.687   6.979  0.00  0.00    +0.000 A 
ATOM     11  C   UNL     1      46.320   4.043   7.182  0.00  0.00    +0.000 A 
ATOM     12  C   UNL     1      45.703   4.473   8.362  0.00  0.00    +0.000 A 
ATOM     13  C   UNL     1      45.315   3.546   9.343  0.00  0.00    +0.000 A 
ATOM     14  C   UNL     1      45.588   2.190   9.130  0.00  0.00    +0.000 A 
BRANCH   9  16
ATOM     15  N   UNL     1      46.762  -0.755   7.647  0.00  0.00    +0.000 NA
ATOM     16  C   UNL     1      46.516   0.371   7.779  0.00  0.00    +0.000 C 
ENDBRANCH   9  16
ENDBRANCH   8  13
ENDBRANCH   2   8
ENDBRANCH   1   5
BRANCH   1  17
ATOM     17  N   UNL     1      47.941   6.629  15.410  0.00  0.00    +0.000 N 
ATOM     18  C   UNL     1      49.023   6.294  16.181  0.00  0.00    +0.000 C 
ATOM     19  O   UNL     1      50.165   6.275  15.730  0.00  0.00    +0.000 OA
ATOM     20  H   UNL     1      47.005   6.408  15.733  0.00  0.00    +0.000 HD
BRANCH  18  21
ATOM     21  C   UNL     1      48.750   6.040  17.595  0.00  0.00    +0.000 A 
ATOM     22  C   UNL     1      48.953   4.774  18.126  0.00  0.00    +0.000 A 
ATOM     23  S   UNL     1      48.643   4.685  19.801  0.00  0.00    +0.000 S 
ATOM     24  C   UNL     1      48.174   6.320  19.858  0.00  0.00    +0.000 A 
ATOM     25  N   UNL     1      47.760   6.894  21.019  0.00  0.00    +0.000 NA
ATOM     26  C   UNL     1      47.399   8.129  20.903  0.00  0.00    +0.000 A 
ATOM     27  N   UNL     1      47.419   8.846  19.735  0.00  0.00    +0.000 N 
ATOM     28  C   UNL     1      47.858   8.316  18.545  0.00  0.00    +0.000 A 
ATOM     29  O   UNL     1      47.914   8.995  17.526  0.00  0.00    +0.000 OA
ATOM     30  C   UNL     1      48.266   6.928  18.619  0.00  0.00    +0.000 A 
ATOM     31  H   UNL     1      47.132   9.812  19.711  0.00  0.00    +0.000 HD
ENDBRANCH  18  21
ENDBRANCH   1  17
TORSDOF 6
ENDMDL
MODEL 4
REMARK VINA RESULT:    -7.387      3.266      5.233
REMARK INTER + INTRA:         -10.663
REMARK INTER:                 -10.025
REMARK INTRA:                  -0.638
REMARK UNBOUND:                -0.685
REMARK  Name = 
REMARK  6 active torsions:
REMARK  status: ('A' for Active; 'I' for Inactive)
REMARK    1  A    between atoms: C_2  and  C_3
REMARK    2  A    between atoms: C_7  and  C_8
REMARK    3  A    between atoms: C_8  and  C_9
REMARK    4  A    between atoms: C_12  and  C_13
REMARK    5  A    between atoms: C_13  and  N_14
REMARK    6  A    between atoms: C_15  and  C_17
REMARK                            x       y       z     vdW  Elec       q    Type
REMARK                         _______ _______ _______ _____ _____    ______ ____
ROOT
ATOM      1  C   UNL     1      48.098   3.045  17.518  0.00  0.00    +0.000 C 
ENDROOT
BRANCH   1   5
ATOM      2  C   UNL     1      47.390   5.362  14.078  0.00  0.00    +0.000 A 
ATOM      3  C   UNL     1      47.092   4.003  14.109  0.00  0.00    +0.000 A 
ATOM      4  N   UNL     1      47.324   3.221  15.190  0.00  0.00    +0.000 NA
ATOM      5  C   UNL     1      47.875   3.846  16.264  0.00  0.00    +0.000 A 
ATOM      6  C   UNL     1      48.215   5.193  16.219  0.00  0.00    +0.000 A 
ATOM      7  N   UNL     1      47.977   5.975  15.138  0.00  0.00    +0.000 NA
BRANCH   2   8
ATOM      8  C   UNL     1      47.002   6.208  12.892  0.00  0.00    +0.000 C 
BRANCH   8  13
ATOM      9  C   UNL     1      44.540   4.728  10.367  0.00  0.00    +0.000 A 
ATOM     10  C   UNL     1      43.323   4.875  11.037  0.00  0.00    +0.000 A 
ATOM     11  C   UNL     1      43.288   5.489  12.288  0.00  0.00    +0.000 A 
ATOM     12  C   UNL     1      44.470   5.951  12.877  0.00  0.00    +0.000 A 
ATOM     13  C   UNL     1      45.704   5.784  12.229  0.00  0.00    +0.000 A 
ATOM     14  C   UNL     1      45.722   5.174  10.969  0.00  0.00    +0.000 A 
BRANCH   9  16
ATOM     15  N   UNL     1      44.603   3.660   8.010  0.00  0.00    +0.000 NA
ATOM     16  C   UNL     1      44.582   4.133   9.068  0.00  0.00    +0.000 C 
ENDBRANCH   9  16
ENDBRANCH   8  13
ENDBRANCH   2   8
ENDBRANCH   1   5
BRANCH   1  17
ATOM     17  N   UNL     1      49.495   2.901  17.848  0.00  0.00    +0.000 N 
ATOM     18  C   UNL     1      50.332   2.119  17.095  0.00  0.00    +0.000 C 
ATOM     19  O   UNL     1      49.949   1.540  16.082  0.00  0.00    +0.000 OA
ATOM     20  H   UNL     1      49.766   3.165  18.790  0.00  0.00    +0.000 HD
BRANCH  18  21
ATOM     21  C   UNL     1      51.731   2.081  17.519  0.00  0.00    +0.000 A 
ATOM     22  C   UNL     1      52.350   0.864  17.767  0.00  0.00    +0.000 A 
ATOM     23  S   UNL     1      53.996   1.014  18.189  0.00  0.00    +0.000 S 
ATOM     24  C   UNL     1      53.918   2.713  18.111  0.00  0.00    +0.000 A 
ATOM     25  N   UNL     1      55.005   3.481  18.388  0.00  0.00    +0.000 NA
ATOM     26  C   UNL     1      54.788   4.754  18.326  0.00  0.00    +0.000 A 
ATOM     27  N   UNL     1      53.585   5.328  18.007  0.00  0.00    +0.000 N 
ATOM     28  C   UNL     1      52.469   4.592  17.690  0.00  0.00    +0.000 A 
ATOM     29  O   UNL     1      51.420   5.133  17.357  0.00  0.00    +0.000 OA
ATOM     30  C   UNL     1      52.658   3.157  17.754  0.00  0.00    +0.000 A 
ATOM     31  H   UNL     1      53.482   6.330  17.966  0.00  0.00    +0.000 HD
ENDBRANCH  18  21
ENDBRANCH   1  17
TORSDOF 6
ENDMDL
MODEL 5
REMARK VINA RESULT:    -7.310      1.195      1.742
REMARK INTER + INTRA:         -10.560
REMARK INTER:                  -9.700
REMARK INTRA:                  -0.860
REMARK UNBOUND:                -0.685
REMARK  Name = 
REMARK  6 active torsions:
REMARK  status: ('A' for Active; 'I' for Inactive)
REMARK    1  A    between atoms: C_2  and  C_3
REMARK    2  A    between atoms: C_7  and  C_8
REMARK    3  A    between atoms: C_8  and  C_9
REMARK    4  A    between atoms: C_12  and  C_13
REMARK    5  A    between atoms: C_13  and  N_14
REMARK    6  A    between atoms: C_15  and  C_17
REMARK                            x       y       z     vdW  Elec       q    Type
REMARK                         _______ _______ _______ _____ _____    ______ ____
ROOT
ATOM      1  C   UNL     1      47.532   8.165  13.560  0.00  0.00    +0.000 C 
ENDROOT
BRANCH   1   5
ATOM      2  C   UNL     1      44.523   6.029  11.539  0.00  0.00    +0.000 A 
ATOM      3  C   UNL     1      44.620   7.413  11.438  0.00  0.00    +0.000 A 
ATOM      4  N   UNL     1      45.561   8.137  12.088  0.00  0.00    +0.000 NA
ATOM      5  C   UNL     1      46.423   7.425  12.861  0.00  0.00    +0.000 A 
ATOM      6  C   UNL     1      46.300   6.048  13.000  0.00  0.00    +0.000 A 
ATOM      7  N   UNL     1      45.360   5.325  12.343  0.00  0.00    +0.000 NA
BRANCH   2   8
ATOM      8  C   UNL     1      43.530   5.263  10.701  0.00  0.00    +0.000 C 
BRANCH   8  13
ATOM      9  C   UNL     1      45.530   3.325   8.080  0.00  0.00    +0.000 A 
ATOM     10  C   UNL     1      45.384   2.009   8.526  0.00  0.00    +0.000 A 
ATOM     11  C   UNL     1      44.607   1.740   9.652  0.00  0.00    +0.000 A 
ATOM     12  C   UNL     1      43.978   2.784  10.339  0.00  0.00    +0.000 A 
ATOM     13  C   UNL     1      44.140   4.114   9.919  0.00  0.00    +0.000 A 
ATOM     14  C   UNL     1      44.916   4.368   8.782  0.00  0.00    +0.000 A 
BRANCH   9  16
ATOM     15  N   UNL     1      46.910   3.823   5.947  0.00  0.00    +0.000 NA
ATOM     16  C   UNL     1      46.294   3.608   6.906  0.00  0.00    +0.000 C 
ENDBRANCH   9  16
ENDBRANCH   8  13
ENDBRANCH   2   8
ENDBRANCH   1   5
BRANCH   1  17
ATOM     17  N   UNL     1      47.907   7.557  14.814  0.00  0.00    +0.000 N 
ATOM     18  C   UNL     1      49.198   7.172  15.065  0.00  0.00    +0.000 C 
ATOM     19  O   UNL     1      50.105   7.362  14.259  0.00  0.00    +0.000 OA
ATOM     20  H   UNL     1      47.151   7.181  15.376  0.00  0.00    +0.000 HD
BRANCH  18  21
ATOM     21  C   UNL     1      49.451   6.596  16.385  0.00  0.00    +0.000 A 
ATOM     22  C   UNL     1      50.284   7.250  17.281  0.00  0.00    +0.000 A 
ATOM     23  S   UNL     1      50.409   6.462  18.789  0.00  0.00    +0.000 S 
ATOM     24  C   UNL     1      49.400   5.192  18.271  0.00  0.00    +0.000 A 
ATOM     25  N   UNL     1      49.106   4.147  19.091  0.00  0.00    +0.000 NA
ATOM     26  C   UNL     1      48.361   3.240  18.550  0.00  0.00    +0.000 A 
ATOM     27  N   UNL     1      47.878   3.284  17.268  0.00  0.00    +0.000 N 
ATOM     28  C   UNL     1      48.124   4.334  16.416  0.00  0.00    +0.000 A 
ATOM     29  O   UNL     1      47.635   4.372  15.293  0.00  0.00    +0.000 OA
ATOM     30  C   UNL     1      48.964   5.376  16.972  0.00  0.00    +0.000 A 
ATOM     31  H   UNL     1      47.292   2.548  16.907  0.00  0.00    +0.000 HD
ENDBRANCH  18  21
ENDBRANCH   1  17
TORSDOF 6
ENDMDL
MODEL 6
REMARK VINA RESULT:    -7.302      2.478      3.379
REMARK INTER + INTRA:         -10.548
REMARK INTER:                  -9.751
REMARK INTRA:                  -0.797
REMARK UNBOUND:                -0.685
REMARK  Name = 
REMARK  6 active torsions:
REMARK  status: ('A' for Active; 'I' for Inactive)
REMARK    1  A    between atoms: C_2  and  C_3
REMARK    2  A    between atoms: C_7  and  C_8
REMARK    3  A    between atoms: C_8  and  C_9
REMARK    4  A    between atoms: C_12  and  C_13
REMARK    5  A    between atoms: C_13  and  N_14
REMARK    6  A    between atoms: C_15  and  C_17
REMARK                            x       y       z     vdW  Elec       q    Type
REMARK                         _______ _______ _______ _____ _____    ______ ____
ROOT
ATOM      1  C   UNL     1      47.428   4.726  15.520  0.00  0.00    +0.000 C 
ENDROOT
BRANCH   1   5
ATOM      2  C   UNL     1      45.381   4.317  11.867  0.00  0.00    +0.000 A 
ATOM      3  C   UNL     1      45.829   3.206  12.573  0.00  0.00    +0.000 A 
ATOM      4  N   UNL     1      46.509   3.298  13.741  0.00  0.00    +0.000 NA
ATOM      5  C   UNL     1      46.734   4.559  14.195  0.00  0.00    +0.000 A 
ATOM      6  C   UNL     1      46.326   5.671  13.469  0.00  0.00    +0.000 A 
ATOM      7  N   UNL     1      45.642   5.577  12.303  0.00  0.00    +0.000 NA
BRANCH   2   8
ATOM      8  C   UNL     1      44.528   4.154  10.634  0.00  0.00    +0.000 C 
BRANCH   8  13
ATOM      9  C   UNL     1      46.229   1.949   8.013  0.00  0.00    +0.000 A 
ATOM     10  C   UNL     1      46.624   2.891   7.060  0.00  0.00    +0.000 A 
ATOM     11  C   UNL     1      46.378   4.246   7.281  0.00  0.00    +0.000 A 
ATOM     12  C   UNL     1      45.731   4.662   8.449  0.00  0.00    +0.000 A 
ATOM     13  C   UNL     1      45.302   3.723   9.401  0.00  0.00    +0.000 A 
ATOM     14  C   UNL     1      45.564   2.368   9.171  0.00  0.00    +0.000 A 
BRANCH   9  16
ATOM     15  N   UNL     1      46.721  -0.568   7.655  0.00  0.00    +0.000 NA
ATOM     16  C   UNL     1      46.510   0.561   7.815  0.00  0.00    +0.000 C 
ENDBRANCH   9  16
ENDBRANCH   8  13
ENDBRANCH   2   8
ENDBRANCH   1   5
BRANCH   1  17
ATOM     17  N   UNL     1      47.783   6.097  15.796  0.00  0.00    +0.000 N 
ATOM     18  C   UNL     1      49.053   6.445  16.177  0.00  0.00    +0.000 C 
ATOM     19  O   UNL     1      49.958   5.619  16.261  0.00  0.00    +0.000 OA
ATOM     20  H   UNL     1      47.014   6.737  15.965  0.00  0.00    +0.000 HD
BRANCH  18  21
ATOM     21  C   UNL     1      49.290   7.871  16.398  0.00  0.00    +0.000 A 
ATOM     22  C   UNL     1      50.158   8.568  15.571  0.00  0.00    +0.000 A 
ATOM     23  S   UNL     1      50.259  10.230  15.941  0.00  0.00    +0.000 S 
ATOM     24  C   UNL     1      49.190  10.059  17.255  0.00  0.00    +0.000 A 
ATOM     25  N   UNL     1      48.855  11.122  18.034  0.00  0.00    +0.000 NA
ATOM     26  C   UNL     1      48.066  10.835  19.016  0.00  0.00    +0.000 A 
ATOM     27  N   UNL     1      47.575   9.584  19.287  0.00  0.00    +0.000 N 
ATOM     28  C   UNL     1      47.862   8.487  18.510  0.00  0.00    +0.000 A 
ATOM     29  O   UNL     1      47.367   7.391  18.745  0.00  0.00    +0.000 OA
ATOM     30  C   UNL     1      48.752   8.755  17.398  0.00  0.00    +0.000 A 
ATOM     31  H   UNL     1      46.954   9.426  20.066  0.00  0.00    +0.000 HD
ENDBRANCH  18  21
ENDBRANCH   1  17
TORSDOF 6
ENDMDL
MODEL 7
REMARK VINA RESULT:    -7.181      2.655      2.934
REMARK INTER + INTRA:         -10.384
REMARK INTER:                  -9.702
REMARK INTRA:                  -0.682
REMARK UNBOUND:                -0.685
REMARK  Name = 
REMARK  6 active torsions:
REMARK  status: ('A' for Active; 'I' for Inactive)
REMARK    1  A    between atoms: C_2  and  C_3
REMARK    2  A    between atoms: C_7  and  C_8
REMARK    3  A    between atoms: C_8  and  C_9
REMARK    4  A    between atoms: C_12  and  C_13
REMARK    5  A    between atoms: C_13  and  N_14
REMARK    6  A    between atoms: C_15  and  C_17
REMARK                            x       y       z     vdW  Elec       q    Type
REMARK                         _______ _______ _______ _____ _____    ______ ____
ROOT
ATOM      1  C   UNL     1      45.844   8.734  12.894  0.00  0.00    +0.000 C 
ENDROOT
BRANCH   1   5
ATOM      2  C   UNL     1      44.580   5.092  11.210  0.00  0.00    +0.000 A 
ATOM      3  C   UNL     1      43.852   6.263  11.030  0.00  0.00    +0.000 A 
ATOM      4  N   UNL     1      44.215   7.449  11.572  0.00  0.00    +0.000 NA
ATOM      5  C   UNL     1      45.353   7.434  12.317  0.00  0.00    +0.000 A 
ATOM      6  C   UNL     1      46.057   6.256  12.535  0.00  0.00    +0.000 A 
ATOM      7  N   UNL     1      45.694   5.071  11.986  0.00  0.00    +0.000 NA
BRANCH   2   8
ATOM      8  C   UNL     1      44.195   3.826  10.486  0.00  0.00    +0.000 C 
BRANCH   8  13
ATOM      9  C   UNL     1      46.243   1.747   8.014  0.00  0.00    +0.000 A 
ATOM     10  C   UNL     1      46.765   2.734   7.175  0.00  0.00    +0.000 A 
ATOM     11  C   UNL     1      46.490   4.078   7.429  0.00  0.00    +0.000 A 
ATOM     12  C   UNL     1      45.688   4.438   8.518  0.00  0.00    +0.000 A 
ATOM     13  C   UNL     1      45.132   3.454   9.351  0.00  0.00    +0.000 A 
ATOM     14  C   UNL     1      45.424   2.111   9.089  0.00  0.00    +0.000 A 
BRANCH   9  16
ATOM     15  N   UNL     1      46.808  -0.743   7.587  0.00  0.00    +0.000 NA
ATOM     16  C   UNL     1      46.548   0.370   7.785  0.00  0.00    +0.000 C 
ENDBRANCH   9  16
ENDBRANCH   8  13
ENDBRANCH   2   8
ENDBRANCH   1   5
BRANCH   1  17
ATOM     17  N   UNL     1      46.738   8.547  14.011  0.00  0.00    +0.000 N 
ATOM     18  C   UNL     1      47.900   9.265  14.127  0.00  0.00    +0.000 C 
ATOM     19  O   UNL     1      48.216  10.129  13.313  0.00  0.00    +0.000 OA
ATOM     20  H   UNL     1      46.619   7.693  14.546  0.00  0.00    +0.000 HD
BRANCH  18  21
ATOM     21  C   UNL     1      48.702   9.002  15.321  0.00  0.00    +0.000 A 
ATOM     22  C   UNL     1      48.204   9.317  16.577  0.00  0.00    +0.000 A 
ATOM     23  S   UNL     1      49.252   8.881  17.850  0.00  0.00    +0.000 S 
ATOM     24  C   UNL     1      50.429   8.310  16.760  0.00  0.00    +0.000 A 
ATOM     25  N   UNL     1      51.612   7.808  17.202  0.00  0.00    +0.000 NA
ATOM     26  C   UNL     1      52.423   7.449  16.261  0.00  0.00    +0.000 A 
ATOM     27  N   UNL     1      52.155   7.541  14.919  0.00  0.00    +0.000 N 
ATOM     28  C   UNL     1      50.961   8.014  14.429  0.00  0.00    +0.000 A 
ATOM     29  O   UNL     1      50.730   8.035  13.225  0.00  0.00    +0.000 OA
ATOM     30  C   UNL     1      50.020   8.438  15.445  0.00  0.00    +0.000 A 
ATOM     31  H   UNL     1      52.827   7.235  14.233  0.00  0.00    +0.000 HD
ENDBRANCH  18  21
ENDBRANCH   1  17
TORSDOF 6
ENDMDL
MODEL 8
REMARK VINA RESULT:    -7.035      2.977      8.429
REMARK INTER + INTRA:         -10.187
REMARK INTER:                  -9.282
REMARK INTRA:                  -0.905
REMARK UNBOUND:                -0.685
REMARK  Name = 
REMARK  6 active torsions:
REMARK  status: ('A' for Active; 'I' for Inactive)
REMARK    1  A    between atoms: C_2  and  C_3
REMARK    2  A    between atoms: C_7  and  C_8
REMARK    3  A    between atoms: C_8  and  C_9
REMARK    4  A    between atoms: C_12  and  C_13
REMARK    5  A    between atoms: C_13  and  N_14
REMARK    6  A    between atoms: C_15  and  C_17
REMARK                            x       y       z     vdW  Elec       q    Type
REMARK                         _______ _______ _______ _____ _____    ______ ____
ROOT
ATOM      1  C   UNL     1      47.162   7.889  11.812  0.00  0.00    +0.000 C 
ENDROOT
BRANCH   1   5
ATOM      2  C   UNL     1      49.412   7.870  15.367  0.00  0.00    +0.000 A 
ATOM      3  C   UNL     1      48.357   8.758  15.185  0.00  0.00    +0.000 A 
ATOM      4  N   UNL     1      47.623   8.808  14.047  0.00  0.00    +0.000 NA
ATOM      5  C   UNL     1      47.979   7.927  13.075  0.00  0.00    +0.000 A 
ATOM      6  C   UNL     1      49.062   7.071  13.239  0.00  0.00    +0.000 A 
ATOM      7  N   UNL     1      49.791   7.019  14.380  0.00  0.00    +0.000 NA
BRANCH   2   8
ATOM      8  C   UNL     1      50.119   7.777  16.696  0.00  0.00    +0.000 C 
BRANCH   8  13
ATOM      9  C   UNL     1      48.922   4.294  17.726  0.00  0.00    +0.000 A 
ATOM     10  C   UNL     1      50.062   3.770  18.340  0.00  0.00    +0.000 A 
ATOM     11  C   UNL     1      51.209   4.555  18.459  0.00  0.00    +0.000 A 
ATOM     12  C   UNL     1      51.221   5.862  17.959  0.00  0.00    +0.000 A 
ATOM     13  C   UNL     1      50.092   6.390  17.314  0.00  0.00    +0.000 A 
ATOM     14  C   UNL     1      48.946   5.594  17.210  0.00  0.00    +0.000 A 
BRANCH   9  16
ATOM     15  N   UNL     1      46.754   2.890  17.550  0.00  0.00    +0.000 NA
ATOM     16  C   UNL     1      47.730   3.511  17.632  0.00  0.00    +0.000 C 
ENDBRANCH   9  16
ENDBRANCH   8  13
ENDBRANCH   2   8
ENDBRANCH   1   5
BRANCH   1  17
ATOM     17  N   UNL     1      46.544   6.606  11.584  0.00  0.00    +0.000 N 
ATOM     18  C   UNL     1      45.182   6.453  11.602  0.00  0.00    +0.000 C 
ATOM     19  O   UNL     1      44.421   7.403  11.770  0.00  0.00    +0.000 OA
ATOM     20  H   UNL     1      47.142   5.793  11.685  0.00  0.00    +0.000 HD
BRANCH  18  21
ATOM     21  C   UNL     1      44.682   5.107  11.327  0.00  0.00    +0.000 A 
ATOM     22  C   UNL     1      43.925   4.439  12.279  0.00  0.00    +0.000 A 
ATOM     23  S   UNL     1      43.378   2.909  11.756  0.00  0.00    +0.000 S 
ATOM     24  C   UNL     1      44.185   3.068  10.266  0.00  0.00    +0.000 A 
ATOM     25  N   UNL     1      44.144   2.079   9.334  0.00  0.00    +0.000 NA
ATOM     26  C   UNL     1      44.833   2.321   8.269  0.00  0.00    +0.000 A 
ATOM     27  N   UNL     1      45.554   3.466   8.046  0.00  0.00    +0.000 N 
ATOM     28  C   UNL     1      45.600   4.504   8.946  0.00  0.00    +0.000 A 
ATOM     29  O   UNL     1      46.210   5.537   8.697  0.00  0.00    +0.000 OA
ATOM     30  C   UNL     1      44.849   4.277  10.164  0.00  0.00    +0.000 A 
ATOM     31  H   UNL     1      46.066   3.600   7.188  0.00  0.00    +0.000 HD
ENDBRANCH  18  21
ENDBRANCH   1  17
TORSDOF 6
ENDMDL
MODEL 9
REMARK VINA RESULT:    -6.891      3.891      8.794
REMARK INTER + INTRA:          -9.993
REMARK INTER:                  -9.107
REMARK INTRA:                  -0.886
REMARK UNBOUND:                -0.685
REMARK  Name = 
REMARK  6 active torsions:
REMARK  status: ('A' for Active; 'I' for Inactive)
REMARK    1  A    between atoms: C_2  and  C_3
REMARK    2  A    between atoms: C_7  and  C_8
REMARK    3  A    between atoms: C_8  and  C_9
REMARK    4  A    between atoms: C_12  and  C_13
REMARK    5  A    between atoms: C_13  and  N_14
REMARK    6  A    between atoms: C_15  and  C_17
REMARK                            x       y       z     vdW  Elec       q    Type
REMARK                         _______ _______ _______ _____ _____    ______ ____
ROOT
ATOM      1  C   UNL     1      47.344   3.392  16.445  0.00  0.00    +0.000 C 
ENDROOT
BRANCH   1   5
ATOM      2  C   UNL     1      51.001   4.717  18.050  0.00  0.00    +0.000 A 
ATOM      3  C   UNL     1      50.865   3.438  17.522  0.00  0.00    +0.000 A 
ATOM      4  N   UNL     1      49.700   2.968  17.015  0.00  0.00    +0.000 NA
ATOM      5  C   UNL     1      48.650   3.831  17.051  0.00  0.00    +0.000 A 
ATOM      6  C   UNL     1      48.772   5.093  17.620  0.00  0.00    +0.000 A 
ATOM      7  N   UNL     1      49.941   5.563  18.122  0.00  0.00    +0.000 NA
BRANCH   2   8
ATOM      8  C   UNL     1      52.349   5.228  18.493  0.00  0.00    +0.000 C 
BRANCH   8  13
ATOM      9  C   UNL     1      53.969   6.745  15.378  0.00  0.00    +0.000 A 
ATOM     10  C   UNL     1      55.167   6.030  15.302  0.00  0.00    +0.000 A 
ATOM     11  C   UNL     1      55.437   5.028  16.234  0.00  0.00    +0.000 A 
ATOM     12  C   UNL     1      54.514   4.742  17.246  0.00  0.00    +0.000 A 
ATOM     13  C   UNL     1      53.321   5.473  17.352  0.00  0.00    +0.000 A 
ATOM     14  C   UNL     1      53.059   6.470  16.405  0.00  0.00    +0.000 A 
BRANCH   9  16
ATOM     15  N   UNL     1      53.435   8.561  13.612  0.00  0.00    +0.000 NA
ATOM     16  C   UNL     1      53.666   7.749  14.407  0.00  0.00    +0.000 C 
ENDBRANCH   9  16
ENDBRANCH   8  13
ENDBRANCH   2   8
ENDBRANCH   1   5
BRANCH   1  17
ATOM     17  N   UNL     1      46.777   4.381  15.561  0.00  0.00    +0.000 N 
ATOM     18  C   UNL     1      46.837   4.242  14.199  0.00  0.00    +0.000 C 
ATOM     19  O   UNL     1      47.335   3.255  13.665  0.00  0.00    +0.000 OA
ATOM     20  H   UNL     1      46.586   5.291  15.967  0.00  0.00    +0.000 HD
BRANCH  18  21
ATOM     21  C   UNL     1      46.198   5.300  13.417  0.00  0.00    +0.000 A 
ATOM     22  C   UNL     1      46.846   6.513  13.228  0.00  0.00    +0.000 A 
ATOM     23  S   UNL     1      45.977   7.597  12.238  0.00  0.00    +0.000 S 
ATOM     24  C   UNL     1      44.683   6.502  12.079  0.00  0.00    +0.000 A 
ATOM     25  N   UNL     1      43.576   6.821  11.358  0.00  0.00    +0.000 NA
ATOM     26  C   UNL     1      42.660   5.909  11.357  0.00  0.00    +0.000 A 
ATOM     27  N   UNL     1      42.753   4.705  12.005  0.00  0.00    +0.000 N 
ATOM     28  C   UNL     1      43.865   4.328  12.720  0.00  0.00    +0.000 A 
ATOM     29  O   UNL     1      43.941   3.224  13.245  0.00  0.00    +0.000 OA
ATOM     30  C   UNL     1      44.918   5.322  12.759  0.00  0.00    +0.000 A 
ATOM     31  H   UNL     1      42.005   4.030  11.958  0.00  0.00    +0.000 HD
ENDBRANCH  18  21
ENDBRANCH   1  17
TORSDOF 6
ENDMDL
