MODEL 1
REMARK VINA RESULT:    -7.890      0.000      0.000
REMARK INTER + INTRA:         -12.776
REMARK INTER:                 -11.579
REMARK INTRA:                  -1.197
REMARK UNBOUND:                -1.197
REMARK  Name = 
REMARK  9 active torsions:
REMARK  status: ('A' for Active; 'I' for Inactive)
REMARK    1  A    between atoms: C_1  and  O_2
REMARK    2  A    between atoms: O_2  and  C_3
REMARK    3  A    between atoms: C_10  and  C_11
REMARK    4  A    between atoms: N_13  and  C_14
REMARK    5  A    between atoms: C_14  and  C_15
REMARK    6  A    between atoms: C_18  and  C_19
REMARK    7  A    between atoms: C_19  and  C_20
REMARK    8  A    between atoms: C_20  and  N_21
REMARK    9  A    between atoms: N_21  and  C_22
REMARK                            x       y       z     vdW  Elec       q    Type
REMARK                         _______ _______ _______ _____ _____    ______ ____
ROOT
ATOM      1  C   UNL     1      48.240   6.736  13.419  0.00  0.00    +0.000 C 
ENDROOT
BRANCH   1   2
ATOM      2  C   UNL     1      47.034   6.125  12.752  0.00  0.00    +0.000 A 
ATOM      3  C   UNL     1      46.284   5.151  13.417  0.00  0.00    +0.000 A 
ATOM      4  C   UNL     1      45.216   4.510  12.780  0.00  0.00    +0.000 A 
ATOM      5  C   UNL     1      44.868   4.819  11.459  0.00  0.00    +0.000 A 
ATOM      6  C   UNL     1      45.593   5.832  10.810  0.00  0.00    +0.000 A 
ATOM      7  C   UNL     1      46.668   6.472  11.446  0.00  0.00    +0.000 A 
BRANCH   5   8
ATOM      8  C   UNL     1      43.765   4.099  10.698  0.00  0.00    +0.000 C 
BRANCH   8   9
ATOM      9  C   UNL     1      44.233   2.935   9.809  0.00  0.00    +0.000 C 
BRANCH   9  10
ATOM     10  N   UNL     1      44.567   3.373   8.449  0.00  0.00    +0.000 N 
ATOM     11  H   UNL     1      44.612   4.388   8.366  0.00  0.00    +0.000 HD
BRANCH  10  12
ATOM     12  C   UNL     1      45.682   2.767   7.840  0.00  0.00    +0.000 A 
ATOM     13  C   UNL     1      46.586   3.459   7.030  0.00  0.00    +0.000 A 
ATOM     14  C   UNL     1      47.697   2.800   6.524  0.00  0.00    +0.000 A 
ATOM     15  N   UNL     1      47.987   1.512   6.778  0.00  0.00    +0.000 NA
ATOM     16  C   UNL     1      47.138   0.865   7.596  0.00  0.00    +0.000 A 
ATOM     17  C   UNL     1      46.000   1.446   8.155  0.00  0.00    +0.000 A 
ENDBRANCH  10  12
ENDBRANCH   9  10
ENDBRANCH   8   9
ENDBRANCH   5   8
ENDBRANCH   1   2
BRANCH   1  20
ATOM     18  C   UNL     1      49.077   7.267  15.666  0.00  0.00    +0.000 C 
ATOM     19  O   UNL     1      50.064   7.817  15.180  0.00  0.00    +0.000 OA
ATOM     20  N   UNL     1      48.124   6.699  14.862  0.00  0.00    +0.000 N 
ATOM     21  H   UNL     1      47.303   6.268  15.264  0.00  0.00    +0.000 HD
BRANCH  18  29
ATOM     22  C   UNL     1      48.815   4.673  17.933  0.00  0.00    +0.000 A 
ATOM     23  N   UNL     1      48.658   3.875  19.010  0.00  0.00    +0.000 NA
ATOM     24  C   UNL     1      48.491   4.452  20.203  0.00  0.00    +0.000 A 
ATOM     25  N   UNL     1      48.459   5.755  20.461  0.00  0.00    +0.000 NA
ATOM     26  C   UNL     1      48.601   6.513  19.360  0.00  0.00    +0.000 A 
ATOM     27  S   UNL     1      48.589   8.203  19.506  0.00  0.00    +0.000 S 
ATOM     28  C   UNL     1      48.803   8.396  17.833  0.00  0.00    +0.000 A 
ATOM     29  C   UNL     1      48.890   7.199  17.129  0.00  0.00    +0.000 A 
ATOM     30  C   UNL     1      48.775   6.071  18.050  0.00  0.00    +0.000 A 
BRANCH  22  32
ATOM     31  C   UNL     1      47.860   3.319  16.298  0.00  0.00    +0.000 C 
ATOM     32  O   UNL     1      49.002   4.071  16.706  0.00  0.00    +0.000 OA
ENDBRANCH  22  32
ENDBRANCH  18  29
ENDBRANCH   1  20
TORSDOF 8
ENDMDL
MODEL 2
REMARK VINA RESULT:    -7.511      2.381      3.114
REMARK INTER + INTRA:         -12.221
REMARK INTER:                 -11.019
REMARK INTRA:                  -1.202
REMARK UNBOUND:                -1.197
REMARK  Name = 
REMARK  9 active torsions:
REMARK  status: ('A' for Active; 'I' for Inactive)
REMARK    1  A    between atoms: C_1  and  O_2
REMARK    2  A    between atoms: O_2  and  C_3
REMARK    3  A    between atoms: C_10  and  C_11
REMARK    4  A    between atoms: N_13  and  C_14
REMARK    5  A    between atoms: C_14  and  C_15
REMARK    6  A    between atoms: C_18  and  C_19
REMARK    7  A    between atoms: C_19  and  C_20
REMARK    8  A    between atoms: C_20  and  N_21
REMARK    9  A    between atoms: N_21  and  C_22
REMARK                            x       y       z     vdW  Elec       q    Type
REMARK                         _______ _______ _______ _____ _____    ______ ____
ROOT
ATOM      1  C   UNL     1      48.497   6.948  15.471  0.00  0.00    +0.000 C 
ENDROOT
BRANCH   1   2
ATOM      2  C   UNL     1      47.735   6.377  14.302  0.00  0.00    +0.000 A 
ATOM      3  C   UNL     1      47.555   7.140  13.144  0.00  0.00    +0.000 A 
ATOM      4  C   UNL     1      46.777   6.661  12.085  0.00  0.00    +0.000 A 
ATOM      5  C   UNL     1      46.150   5.410  12.151  0.00  0.00    +0.000 A 
ATOM      6  C   UNL     1      46.372   4.627  13.296  0.00  0.00    +0.000 A 
ATOM      7  C   UNL     1      47.148   5.108  14.362  0.00  0.00    +0.000 A 
BRANCH   5   8
ATOM      8  C   UNL     1      45.234   4.878  11.060  0.00  0.00    +0.000 C 
BRANCH   8   9
ATOM      9  C   UNL     1      45.614   5.286   9.627  0.00  0.00    +0.000 C 
BRANCH   9  10
ATOM     10  N   UNL     1      45.021   4.401   8.619  0.00  0.00    +0.000 N 
ATOM     11  H   UNL     1      44.603   4.916   7.846  0.00  0.00    +0.000 HD
BRANCH  10  12
ATOM     12  C   UNL     1      45.821   3.344   8.149  0.00  0.00    +0.000 A 
ATOM     13  C   UNL     1      45.658   2.017   8.556  0.00  0.00    +0.000 A 
ATOM     14  C   UNL     1      46.447   1.024   7.991  0.00  0.00    +0.000 A 
ATOM     15  N   UNL     1      47.370   1.249   7.041  0.00  0.00    +0.000 NA
ATOM     16  C   UNL     1      47.489   2.521   6.620  0.00  0.00    +0.000 A 
ATOM     17  C   UNL     1      46.738   3.581   7.125  0.00  0.00    +0.000 A 
ENDBRANCH  10  12
ENDBRANCH   9  10
ENDBRANCH   8   9
ENDBRANCH   5   8
ENDBRANCH   1   2
BRANCH   1  20
ATOM     18  C   UNL     1      49.973   6.059  17.221  0.00  0.00    +0.000 C 
ATOM     19  O   UNL     1      49.507   6.857  18.033  0.00  0.00    +0.000 OA
ATOM     20  N   UNL     1      49.530   6.041  15.924  0.00  0.00    +0.000 N 
ATOM     21  H   UNL     1      49.898   5.368  15.265  0.00  0.00    +0.000 HD
BRANCH  18  29
ATOM     22  C   UNL     1      50.288   2.625  17.011  0.00  0.00    +0.000 A 
ATOM     23  N   UNL     1      50.658   1.329  17.082  0.00  0.00    +0.000 NA
ATOM     24  C   UNL     1      51.845   1.041  17.620  0.00  0.00    +0.000 A 
ATOM     25  N   UNL     1      52.730   1.903  18.109  0.00  0.00    +0.000 NA
ATOM     26  C   UNL     1      52.314   3.180  18.036  0.00  0.00    +0.000 A 
ATOM     27  S   UNL     1      53.323   4.417  18.613  0.00  0.00    +0.000 S 
ATOM     28  C   UNL     1      52.183   5.604  18.197  0.00  0.00    +0.000 A 
ATOM     29  C   UNL     1      51.023   5.100  17.616  0.00  0.00    +0.000 A 
ATOM     30  C   UNL     1      51.110   3.646  17.515  0.00  0.00    +0.000 A 
BRANCH  22  32
ATOM     31  C   UNL     1      48.009   2.903  17.399  0.00  0.00    +0.000 C 
ATOM     32  O   UNL     1      49.067   2.917  16.441  0.00  0.00    +0.000 OA
ENDBRANCH  22  32
ENDBRANCH  18  29
ENDBRANCH   1  20
TORSDOF 8
ENDMDL
MODEL 3
REMARK VINA RESULT:    -7.290      1.569      2.519
REMARK INTER + INTRA:         -11.896
REMARK INTER:                 -10.857
REMARK INTRA:                  -1.039
REMARK UNBOUND:                -1.197
REMARK  Name = 
REMARK  9 active torsions:
REMARK  status: ('A' for Active; 'I' for Inactive)
REMARK    1  A    between atoms: C_1  and  O_2
REMARK    2  A    between atoms: O_2  and  C_3
REMARK    3  A    between atoms: C_10  and  C_11
REMARK    4  A    between atoms: N_13  and  C_14
REMARK    5  A    between atoms: C_14  and  C_15
REMARK    6  A    between atoms: C_18  and  C_19
REMARK    7  A    between atoms: C_19  and  C_20
REMARK    8  A    between atoms: C_20  and  N_21
REMARK    9  A    between atoms: N_21  and  C_22
REMARK                            x       y       z     vdW  Elec       q    Type
REMARK                         _______ _______ _______ _____ _____    ______ ____
ROOT
ATOM      1  C   UNL     1      47.499   4.221  15.285  0.00  0.00    +0.000 C 
ENDROOT
BRANCH   1   2
ATOM      2  C   UNL     1      46.741   4.355  13.989  0.00  0.00    +0.000 A 
ATOM      3  C   UNL     1      46.479   5.621  13.458  0.00  0.00    +0.000 A 
ATOM      4  C   UNL     1      45.702   5.768  12.304  0.00  0.00    +0.000 A 
ATOM      5  C   UNL     1      45.158   4.655  11.648  0.00  0.00    +0.000 A 
ATOM      6  C   UNL     1      45.463   3.382  12.158  0.00  0.00    +0.000 A 
ATOM      7  C   UNL     1      46.238   3.233  13.318  0.00  0.00    +0.000 A 
BRANCH   5   8
ATOM      8  C   UNL     1      44.246   4.766  10.436  0.00  0.00    +0.000 C 
BRANCH   8   9
ATOM      9  C   UNL     1      44.244   3.544   9.503  0.00  0.00    +0.000 C 
BRANCH   9  10
ATOM     10  N   UNL     1      44.868   3.832   8.207  0.00  0.00    +0.000 N 
ATOM     11  H   UNL     1      45.172   4.802   8.128  0.00  0.00    +0.000 HD
BRANCH  10  12
ATOM     12  C   UNL     1      45.875   2.950   7.774  0.00  0.00    +0.000 A 
ATOM     13  C   UNL     1      45.994   1.636   8.234  0.00  0.00    +0.000 A 
ATOM     14  C   UNL     1      46.976   0.810   7.705  0.00  0.00    +0.000 A 
ATOM     15  N   UNL     1      47.834   1.186   6.741  0.00  0.00    +0.000 NA
ATOM     16  C   UNL     1      47.683   2.437   6.270  0.00  0.00    +0.000 A 
ATOM     17  C   UNL     1      46.724   3.334   6.737  0.00  0.00    +0.000 A 
ENDBRANCH  10  12
ENDBRANCH   9  10
ENDBRANCH   8   9
ENDBRANCH   5   8
ENDBRANCH   1   2
BRANCH   1  20
ATOM     18  C   UNL     1      48.717   5.912  16.584  0.00  0.00    +0.000 C 
ATOM     19  O   UNL     1      49.742   5.234  16.526  0.00  0.00    +0.000 OA
ATOM     20  N   UNL     1      47.556   5.480  15.998  0.00  0.00    +0.000 N 
ATOM     21  H   UNL     1      46.723   6.051  16.027  0.00  0.00    +0.000 HD
BRANCH  18  29
ATOM     22  C   UNL     1      47.828   6.904  19.771  0.00  0.00    +0.000 A 
ATOM     23  N   UNL     1      47.532   7.561  20.912  0.00  0.00    +0.000 NA
ATOM     24  C   UNL     1      47.737   8.880  20.952  0.00  0.00    +0.000 A 
ATOM     25  N   UNL     1      48.210   9.643  19.972  0.00  0.00    +0.000 NA
ATOM     26  C   UNL     1      48.475   8.953  18.849  0.00  0.00    +0.000 A 
ATOM     27  S   UNL     1      49.092   9.770  17.496  0.00  0.00    +0.000 S 
ATOM     28  C   UNL     1      49.147   8.333  16.594  0.00  0.00    +0.000 A 
ATOM     29  C   UNL     1      48.706   7.210  17.288  0.00  0.00    +0.000 A 
ATOM     30  C   UNL     1      48.310   7.585  18.643  0.00  0.00    +0.000 A 
BRANCH  22  32
ATOM     31  C   UNL     1      48.780   4.819  20.175  0.00  0.00    +0.000 C 
ATOM     32  O   UNL     1      47.628   5.540  19.742  0.00  0.00    +0.000 OA
ENDBRANCH  22  32
ENDBRANCH  18  29
ENDBRANCH   1  20
TORSDOF 8
ENDMDL
MODEL 4
REMARK VINA RESULT:    -7.270      2.071      3.773
REMARK INTER + INTRA:         -11.867
REMARK INTER:                 -10.541
REMARK INTRA:                  -1.326
REMARK UNBOUND:                -1.197
REMARK  Name = 
REMARK  9 active torsions:
REMARK  status: ('A' for Active; 'I' for Inactive)
REMARK    1  A    between atoms: C_1  and  O_2
REMARK    2  A    between atoms: O_2  and  C_3
REMARK    3  A    between atoms: C_10  and  C_11
REMARK    4  A    between atoms: N_13  and  C_14
REMARK    5  A    between atoms: C_14  and  C_15
REMARK    6  A    between atoms: C_18  and  C_19
REMARK    7  A    between atoms: C_19  and  C_20
REMARK    8  A    between atoms: C_20  and  N_21
REMARK    9  A    between atoms: N_21  and  C_22
REMARK                            x       y       z     vdW  Elec       q    Type
REMARK                         _______ _______ _______ _____ _____    ______ ____
ROOT
ATOM      1  C   UNL     1      47.227   4.763  15.068  0.00  0.00    +0.000 C 
ENDROOT
BRANCH   1   2
ATOM      2  C   UNL     1      46.428   4.700  13.792  0.00  0.00    +0.000 A 
ATOM      3  C   UNL     1      45.953   5.876  13.204  0.00  0.00    +0.000 A 
ATOM      4  C   UNL     1      45.136   5.830  12.070  0.00  0.00    +0.000 A 
ATOM      5  C   UNL     1      44.765   4.609  11.490  0.00  0.00    +0.000 A 
ATOM      6  C   UNL     1      45.283   3.433  12.055  0.00  0.00    +0.000 A 
ATOM      7  C   UNL     1      46.098   3.476  13.197  0.00  0.00    +0.000 A 
BRANCH   5   8
ATOM      8  C   UNL     1      43.819   4.504  10.303  0.00  0.00    +0.000 C 
BRANCH   8   9
ATOM      9  C   UNL     1      44.191   3.436   9.262  0.00  0.00    +0.000 C 
BRANCH   9  10
ATOM     10  N   UNL     1      45.098   3.954   8.232  0.00  0.00    +0.000 N 
ATOM     11  H   UNL     1      45.580   4.801   8.528  0.00  0.00    +0.000 HD
BRANCH  10  12
ATOM     12  C   UNL     1      45.996   3.037   7.655  0.00  0.00    +0.000 A 
ATOM     13  C   UNL     1      46.926   3.387   6.673  0.00  0.00    +0.000 A 
ATOM     14  C   UNL     1      47.822   2.435   6.206  0.00  0.00    +0.000 A 
ATOM     15  N   UNL     1      47.875   1.169   6.655  0.00  0.00    +0.000 NA
ATOM     16  C   UNL     1      47.009   0.853   7.634  0.00  0.00    +0.000 A 
ATOM     17  C   UNL     1      46.078   1.742   8.168  0.00  0.00    +0.000 A 
ENDBRANCH  10  12
ENDBRANCH   9  10
ENDBRANCH   8   9
ENDBRANCH   5   8
ENDBRANCH   1   2
BRANCH   1  20
ATOM     18  C   UNL     1      49.017   6.159  16.005  0.00  0.00    +0.000 C 
ATOM     19  O   UNL     1      49.447   5.199  16.643  0.00  0.00    +0.000 OA
ATOM     20  N   UNL     1      47.914   6.030  15.202  0.00  0.00    +0.000 N 
ATOM     21  H   UNL     1      47.579   6.815  14.661  0.00  0.00    +0.000 HD
BRANCH  18  29
ATOM     22  C   UNL     1      50.104   8.449  13.657  0.00  0.00    +0.000 A 
ATOM     23  N   UNL     1      50.634   9.484  12.974  0.00  0.00    +0.000 NA
ATOM     24  C   UNL     1      51.159  10.496  13.670  0.00  0.00    +0.000 A 
ATOM     25  N   UNL     1      51.223  10.605  14.992  0.00  0.00    +0.000 NA
ATOM     26  C   UNL     1      50.700   9.545  15.633  0.00  0.00    +0.000 A 
ATOM     27  S   UNL     1      50.694   9.519  17.330  0.00  0.00    +0.000 S 
ATOM     28  C   UNL     1      49.939   7.999  17.350  0.00  0.00    +0.000 A 
ATOM     29  C   UNL     1      49.674   7.479  16.087  0.00  0.00    +0.000 A 
ATOM     30  C   UNL     1      50.126   8.414  15.060  0.00  0.00    +0.000 A 
BRANCH  22  32
ATOM     31  C   UNL     1      48.844   7.880  11.784  0.00  0.00    +0.000 C 
ATOM     32  O   UNL     1      49.550   7.414  12.932  0.00  0.00    +0.000 OA
ENDBRANCH  22  32
ENDBRANCH  18  29
ENDBRANCH   1  20
TORSDOF 8
ENDMDL
MODEL 5
REMARK VINA RESULT:    -7.157      1.556      3.099
REMARK INTER + INTRA:         -11.701
REMARK INTER:                 -10.439
REMARK INTRA:                  -1.262
REMARK UNBOUND:                -1.197
REMARK  Name = 
REMARK  9 active torsions:
REMARK  status: ('A' for Active; 'I' for Inactive)
REMARK    1  A    between atoms: C_1  and  O_2
REMARK    2  A    between atoms: O_2  and  C_3
REMARK    3  A    between atoms: C_10  and  C_11
REMARK    4  A    between atoms: N_13  and  C_14
REMARK    5  A    between atoms: C_14  and  C_15
REMARK    6  A    between atoms: C_18  and  C_19
REMARK    7  A    between atoms: C_19  and  C_20
REMARK    8  A    between atoms: C_20  and  N_21
REMARK    9  A    between atoms: N_21  and  C_22
REMARK                            x       y       z     vdW  Elec       q    Type
REMARK                         _______ _______ _______ _____ _____    ______ ____
ROOT
ATOM      1  C   UNL     1      47.389   3.942  15.299  0.00  0.00    +0.000 C 
ENDROOT
BRANCH   1   2
ATOM      2  C   UNL     1      46.688   4.261  14.003  0.00  0.00    +0.000 A 
ATOM      3  C   UNL     1      46.128   3.233  13.239  0.00  0.00    +0.000 A 
ATOM      4  C   UNL     1      45.552   3.499  11.992  0.00  0.00    +0.000 A 
ATOM      5  C   UNL     1      45.523   4.798  11.468  0.00  0.00    +0.000 A 
ATOM      6  C   UNL     1      46.045   5.835  12.259  0.00  0.00    +0.000 A 
ATOM      7  C   UNL     1      46.627   5.569  13.507  0.00  0.00    +0.000 A 
BRANCH   5   8
ATOM      8  C   UNL     1      44.977   5.127  10.086  0.00  0.00    +0.000 C 
BRANCH   8   9
ATOM      9  C   UNL     1      44.243   3.975   9.380  0.00  0.00    +0.000 C 
BRANCH   9  10
ATOM     10  N   UNL     1      44.602   3.873   7.962  0.00  0.00    +0.000 N 
ATOM     11  H   UNL     1      44.705   4.785   7.519  0.00  0.00    +0.000 HD
BRANCH  10  12
ATOM     12  C   UNL     1      45.679   3.028   7.636  0.00  0.00    +0.000 A 
ATOM     13  C   UNL     1      45.866   1.767   8.207  0.00  0.00    +0.000 A 
ATOM     14  C   UNL     1      46.918   0.969   7.779  0.00  0.00    +0.000 A 
ATOM     15  N   UNL     1      47.786   1.323   6.816  0.00  0.00    +0.000 NA
ATOM     16  C   UNL     1      47.572   2.519   6.238  0.00  0.00    +0.000 A 
ATOM     17  C   UNL     1      46.540   3.384   6.598  0.00  0.00    +0.000 A 
ENDBRANCH  10  12
ENDBRANCH   9  10
ENDBRANCH   8   9
ENDBRANCH   5   8
ENDBRANCH   1   2
BRANCH   1  20
ATOM     18  C   UNL     1      48.640   5.298  16.921  0.00  0.00    +0.000 C 
ATOM     19  O   UNL     1      49.530   4.449  16.959  0.00  0.00    +0.000 OA
ATOM     20  N   UNL     1      47.538   5.122  16.125  0.00  0.00    +0.000 N 
ATOM     21  H   UNL     1      46.820   5.832  16.078  0.00  0.00    +0.000 HD
BRANCH  18  29
ATOM     22  C   UNL     1      48.577   8.670  16.175  0.00  0.00    +0.000 A 
ATOM     23  N   UNL     1      48.611  10.019  16.169  0.00  0.00    +0.000 NA
ATOM     24  C   UNL     1      48.743  10.652  17.338  0.00  0.00    +0.000 A 
ATOM     25  N   UNL     1      48.851  10.093  18.539  0.00  0.00    +0.000 NA
ATOM     26  C   UNL     1      48.831   8.749  18.497  0.00  0.00    +0.000 A 
ATOM     27  S   UNL     1      48.953   7.871  19.944  0.00  0.00    +0.000 S 
ATOM     28  C   UNL     1      48.857   6.395  19.110  0.00  0.00    +0.000 A 
ATOM     29  C   UNL     1      48.730   6.528  17.731  0.00  0.00    +0.000 A 
ATOM     30  C   UNL     1      48.708   7.943  17.368  0.00  0.00    +0.000 A 
BRANCH  22  32
ATOM     31  C   UNL     1      49.064   8.723  13.899  0.00  0.00    +0.000 C 
ATOM     32  O   UNL     1      48.425   8.024  14.966  0.00  0.00    +0.000 OA
ENDBRANCH  22  32
ENDBRANCH  18  29
ENDBRANCH   1  20
TORSDOF 8
ENDMDL
MODEL 6
REMARK VINA RESULT:    -7.002      1.612      2.025
REMARK INTER + INTRA:         -11.473
REMARK INTER:                 -10.223
REMARK INTRA:                  -1.250
REMARK UNBOUND:                -1.197
REMARK  Name = 
REMARK  9 active torsions:
REMARK  status: ('A' for Active; 'I' for Inactive)
REMARK    1  A    between atoms: C_1  and  O_2
REMARK    2  A    between atoms: O_2  and  C_3
REMARK    3  A    between atoms: C_10  and  C_11
REMARK    4  A    between atoms: N_13  and  C_14
REMARK    5  A    between atoms: C_14  and  C_15
REMARK    6  A    between atoms: C_18  and  C_19
REMARK    7  A    between atoms: C_19  and  C_20
REMARK    8  A    between atoms: C_20  and  N_21
REMARK    9  A    between atoms: N_21  and  C_22
REMARK                            x       y       z     vdW  Elec       q    Type
REMARK                         _______ _______ _______ _____ _____    ______ ____
ROOT
ATOM      1  C   UNL     1      48.032   8.750  13.972  0.00  0.00    +0.000 C 
ENDROOT
BRANCH   1   2
ATOM      2  C   UNL     1      47.013   8.142  13.042  0.00  0.00    +0.000 A 
ATOM      3  C   UNL     1      45.782   8.773  12.843  0.00  0.00    +0.000 A 
ATOM      4  C   UNL     1      44.792   8.179  12.053  0.00  0.00    +0.000 A 
ATOM      5  C   UNL     1      44.999   6.935  11.443  0.00  0.00    +0.000 A 
ATOM      6  C   UNL     1      46.254   6.326  11.606  0.00  0.00    +0.000 A 
ATOM      7  C   UNL     1      47.247   6.918  12.402  0.00  0.00    +0.000 A 
BRANCH   5   8
ATOM      8  C   UNL     1      43.929   6.213  10.637  0.00  0.00    +0.000 C 
BRANCH   8   9
ATOM      9  C   UNL     1      44.148   4.702  10.461  0.00  0.00    +0.000 C 
BRANCH   9  10
ATOM     10  N   UNL     1      43.958   4.270   9.072  0.00  0.00    +0.000 N 
ATOM     11  H   UNL     1      43.686   5.037   8.459  0.00  0.00    +0.000 HD
BRANCH  10  12
ATOM     12  C   UNL     1      44.989   3.505   8.496  0.00  0.00    +0.000 A 
ATOM     13  C   UNL     1      46.037   4.060   7.758  0.00  0.00    +0.000 A 
ATOM     14  C   UNL     1      47.051   3.239   7.282  0.00  0.00    +0.000 A 
ATOM     15  N   UNL     1      47.111   1.915   7.502  0.00  0.00    +0.000 NA
ATOM     16  C   UNL     1      46.124   1.395   8.253  0.00  0.00    +0.000 A 
ATOM     17  C   UNL     1      45.068   2.141   8.777  0.00  0.00    +0.000 A 
ENDBRANCH  10  12
ENDBRANCH   9  10
ENDBRANCH   8   9
ENDBRANCH   5   8
ENDBRANCH   1   2
BRANCH   1  20
ATOM     18  C   UNL     1      49.406   7.163  15.246  0.00  0.00    +0.000 C 
ATOM     19  O   UNL     1      50.264   7.181  14.365  0.00  0.00    +0.000 OA
ATOM     20  N   UNL     1      48.263   7.910  15.128  0.00  0.00    +0.000 N 
ATOM     21  H   UNL     1      47.572   7.910  15.865  0.00  0.00    +0.000 HD
BRANCH  18  29
ATOM     22  C   UNL     1      47.809   4.362  16.486  0.00  0.00    +0.000 A 
ATOM     23  N   UNL     1      47.358   3.311  17.203  0.00  0.00    +0.000 NA
ATOM     24  C   UNL     1      47.970   3.026  18.356  0.00  0.00    +0.000 A 
ATOM     25  N   UNL     1      48.996   3.674  18.896  0.00  0.00    +0.000 NA
ATOM     26  C   UNL     1      49.402   4.723  18.159  0.00  0.00    +0.000 A 
ATOM     27  S   UNL     1      50.708   5.663  18.698  0.00  0.00    +0.000 S 
ATOM     28  C   UNL     1      50.597   6.679  17.342  0.00  0.00    +0.000 A 
ATOM     29  C   UNL     1      49.580   6.336  16.456  0.00  0.00    +0.000 A 
ATOM     30  C   UNL     1      48.870   5.157  16.947  0.00  0.00    +0.000 A 
BRANCH  22  32
ATOM     31  C   UNL     1      47.197   3.527  14.401  0.00  0.00    +0.000 C 
ATOM     32  O   UNL     1      47.182   4.643  15.290  0.00  0.00    +0.000 OA
ENDBRANCH  22  32
ENDBRANCH  18  29
ENDBRANCH   1  20
TORSDOF 8
ENDMDL
MODEL 7
REMARK VINA RESULT:    -6.994      1.581      2.051
REMARK INTER + INTRA:         -11.462
REMARK INTER:                 -10.451
REMARK INTRA:                  -1.011
REMARK UNBOUND:                -1.197
REMARK  Name = 
REMARK  9 active torsions:
REMARK  status: ('A' for Active; 'I' for Inactive)
REMARK    1  A    between atoms: C_1  and  O_2
REMARK    2  A    between atoms: O_2  and  C_3
REMARK    3  A    between atoms: C_10  and  C_11
REMARK    4  A    between atoms: N_13  and  C_14
REMARK    5  A    between atoms: C_14  and  C_15
REMARK    6  A    between atoms: C_18  and  C_19
REMARK    7  A    between atoms: C_19  and  C_20
REMARK    8  A    between atoms: C_20  and  N_21
REMARK    9  A    between atoms: N_21  and  C_22
REMARK                            x       y       z     vdW  Elec       q    Type
REMARK                         _______ _______ _______ _____ _____    ______ ____
ROOT
ATOM      1  C   UNL     1      47.739   9.279  14.117  0.00  0.00    +0.000 C 
ENDROOT
BRANCH   1   2
ATOM      2  C   UNL     1      47.061   8.328  13.164  0.00  0.00    +0.000 A 
ATOM      3  C   UNL     1      45.757   8.583  12.730  0.00  0.00    +0.000 A 
ATOM      4  C   UNL     1      45.082   7.667  11.916  0.00  0.00    +0.000 A 
ATOM      5  C   UNL     1      45.685   6.467  11.517  0.00  0.00    +0.000 A 
ATOM      6  C   UNL     1      47.011   6.237  11.916  0.00  0.00    +0.000 A 
ATOM      7  C   UNL     1      47.689   7.152  12.736  0.00  0.00    +0.000 A 
BRANCH   5   8
ATOM      8  C   UNL     1      44.967   5.407  10.696  0.00  0.00    +0.000 C 
BRANCH   8   9
ATOM      9  C   UNL     1      45.655   5.020   9.377  0.00  0.00    +0.000 C 
BRANCH   9  10
ATOM     10  N   UNL     1      45.062   3.825   8.768  0.00  0.00    +0.000 N 
ATOM     11  H   UNL     1      44.224   4.037   8.228  0.00  0.00    +0.000 HD
BRANCH  10  12
ATOM     12  C   UNL     1      45.927   2.981   8.048  0.00  0.00    +0.000 A 
ATOM     13  C   UNL     1      46.847   3.447   7.106  0.00  0.00    +0.000 A 
ATOM     14  C   UNL     1      47.711   2.552   6.490  0.00  0.00    +0.000 A 
ATOM     15  N   UNL     1      47.743   1.235   6.754  0.00  0.00    +0.000 NA
ATOM     16  C   UNL     1      46.887   0.801   7.697  0.00  0.00    +0.000 A 
ATOM     17  C   UNL     1      45.987   1.625   8.371  0.00  0.00    +0.000 A 
ENDBRANCH  10  12
ENDBRANCH   9  10
ENDBRANCH   8   9
ENDBRANCH   5   8
ENDBRANCH   1   2
BRANCH   1  20
ATOM     18  C   UNL     1      48.211   9.497  16.517  0.00  0.00    +0.000 C 
ATOM     19  O   UNL     1      49.026  10.390  16.287  0.00  0.00    +0.000 OA
ATOM     20  N   UNL     1      47.531   8.888  15.495  0.00  0.00    +0.000 N 
ATOM     21  H   UNL     1      46.845   8.171  15.690  0.00  0.00    +0.000 HD
BRANCH  18  29
ATOM     22  C   UNL     1      48.329   6.439  18.120  0.00  0.00    +0.000 A 
ATOM     23  N   UNL     1      48.264   5.395  18.973  0.00  0.00    +0.000 NA
ATOM     24  C   UNL     1      47.903   5.634  20.236  0.00  0.00    +0.000 A 
ATOM     25  N   UNL     1      47.589   6.811  20.767  0.00  0.00    +0.000 NA
ATOM     26  C   UNL     1      47.649   7.820  19.880  0.00  0.00    +0.000 A 
ATOM     27  S   UNL     1      47.284   9.397  20.389  0.00  0.00    +0.000 S 
ATOM     28  C   UNL     1      47.567  10.015  18.833  0.00  0.00    +0.000 A 
ATOM     29  C   UNL     1      47.943   9.053  17.899  0.00  0.00    +0.000 A 
ATOM     30  C   UNL     1      47.998   7.739  18.534  0.00  0.00    +0.000 A 
BRANCH  22  32
ATOM     31  C   UNL     1      50.125   6.330  16.644  0.00  0.00    +0.000 C 
ATOM     32  O   UNL     1      48.716   6.188  16.821  0.00  0.00    +0.000 OA
ENDBRANCH  22  32
ENDBRANCH  18  29
ENDBRANCH   1  20
TORSDOF 8
ENDMDL
MODEL 8
REMARK VINA RESULT:    -6.772      1.907      2.691
REMARK INTER + INTRA:         -11.136
REMARK INTER:                  -9.814
REMARK INTRA:                  -1.323
REMARK UNBOUND:                -1.197
REMARK  Name = 
REMARK  9 active torsions:
REMARK  status: ('A' for Active; 'I' for Inactive)
REMARK    1  A    between atoms: C_1  and  O_2
REMARK    2  A    between atoms: O_2  and  C_3
REMARK    3  A    between atoms: C_10  and  C_11
REMARK    4  A    between atoms: N_13  and  C_14
REMARK    5  A    between atoms: C_14  and  C_15
REMARK    6  A    between atoms: C_18  and  C_19
REMARK    7  A    between atoms: C_19  and  C_20
REMARK    8  A    between atoms: C_20  and  N_21
REMARK    9  A    between atoms: N_21  and  C_22
REMARK                            x       y       z     vdW  Elec       q    Type
REMARK                         _______ _______ _______ _____ _____    ______ ____
ROOT
ATOM      1  C   UNL     1      47.504   4.088  15.731  0.00  0.00    +0.000 C 
ENDROOT
BRANCH   1   2
ATOM      2  C   UNL     1      46.842   4.449  14.426  0.00  0.00    +0.000 A 
ATOM      3  C   UNL     1      46.254   3.454  13.639  0.00  0.00    +0.000 A 
ATOM      4  C   UNL     1      45.713   3.757  12.386  0.00  0.00    +0.000 A 
ATOM      5  C   UNL     1      45.747   5.062  11.876  0.00  0.00    +0.000 A 
ATOM      6  C   UNL     1      46.295   6.068  12.689  0.00  0.00    +0.000 A 
ATOM      7  C   UNL     1      46.843   5.764  13.945  0.00  0.00    +0.000 A 
BRANCH   5   8
ATOM      8  C   UNL     1      45.241   5.428  10.489  0.00  0.00    +0.000 C 
BRANCH   8   9
ATOM      9  C   UNL     1      44.115   4.534   9.945  0.00  0.00    +0.000 C 
BRANCH   9  10
ATOM     10  N   UNL     1      44.227   4.318   8.498  0.00  0.00    +0.000 N 
ATOM     11  H   UNL     1      44.271   5.192   7.976  0.00  0.00    +0.000 HD
BRANCH  10  12
ATOM     12  C   UNL     1      45.218   3.419   8.063  0.00  0.00    +0.000 A 
ATOM     13  C   UNL     1      46.267   3.783   7.215  0.00  0.00    +0.000 A 
ATOM     14  C   UNL     1      47.241   2.850   6.888  0.00  0.00    +0.000 A 
ATOM     15  N   UNL     1      47.262   1.590   7.356  0.00  0.00    +0.000 NA
ATOM     16  C   UNL     1      46.275   1.261   8.209  0.00  0.00    +0.000 A 
ATOM     17  C   UNL     1      45.258   2.131   8.598  0.00  0.00    +0.000 A 
ENDBRANCH  10  12
ENDBRANCH   9  10
ENDBRANCH   8   9
ENDBRANCH   5   8
ENDBRANCH   1   2
BRANCH   1  20
ATOM     18  C   UNL     1      47.679   5.553  17.694  0.00  0.00    +0.000 C 
ATOM     19  O   UNL     1      46.900   4.831  18.315  0.00  0.00    +0.000 OA
ATOM     20  N   UNL     1      48.028   5.259  16.401  0.00  0.00    +0.000 N 
ATOM     21  H   UNL     1      48.686   5.841  15.903  0.00  0.00    +0.000 HD
BRANCH  18  29
ATOM     22  C   UNL     1      50.833   6.961  17.723  0.00  0.00    +0.000 A 
ATOM     23  N   UNL     1      51.946   7.698  17.925  0.00  0.00    +0.000 NA
ATOM     24  C   UNL     1      51.846   8.795  18.680  0.00  0.00    +0.000 A 
ATOM     25  N   UNL     1      50.751   9.258  19.273  0.00  0.00    +0.000 NA
ATOM     26  C   UNL     1      49.671   8.485  19.061  0.00  0.00    +0.000 A 
ATOM     27  S   UNL     1      48.183   8.930  19.743  0.00  0.00    +0.000 S 
ATOM     28  C   UNL     1      47.416   7.573  19.069  0.00  0.00    +0.000 A 
ATOM     29  C   UNL     1      48.257   6.758  18.319  0.00  0.00    +0.000 A 
ATOM     30  C   UNL     1      49.608   7.313  18.311  0.00  0.00    +0.000 A 
BRANCH  22  32
ATOM     31  C   UNL     1      51.870   4.893  17.459  0.00  0.00    +0.000 C 
ATOM     32  O   UNL     1      50.940   5.837  16.930  0.00  0.00    +0.000 OA
ENDBRANCH  22  32
ENDBRANCH  18  29
ENDBRANCH   1  20
TORSDOF 8
ENDMDL
MODEL 9
REMARK VINA RESULT:    -6.577      3.682      8.179
REMARK INTER + INTRA:         -10.851
REMARK INTER:                  -9.356
REMARK INTRA:                  -1.495
REMARK UNBOUND:                -1.197
REMARK  Name = 
REMARK  9 active torsions:
REMARK  status: ('A' for Active; 'I' for Inactive)
REMARK    1  A    between atoms: C_1  and  O_2
REMARK    2  A    between atoms: O_2  and  C_3
REMARK    3  A    between atoms: C_10  and  C_11
REMARK    4  A    between atoms: N_13  and  C_14
REMARK    5  A    between atoms: C_14  and  C_15
REMARK    6  A    between atoms: C_18  and  C_19
REMARK    7  A    between atoms: C_19  and  C_20
REMARK    8  A    between atoms: C_20  and  N_21
REMARK    9  A    between atoms: N_21  and  C_22
REMARK                            x       y       z     vdW  Elec       q    Type
REMARK                         _______ _______ _______ _____ _____    ______ ____
ROOT
ATOM      1  C   UNL     1      47.882   8.933  14.013  0.00  0.00    +0.000 C 
ENDROOT
BRANCH   1   2
ATOM      2  C   UNL     1      48.477   8.325  15.258  0.00  0.00    +0.000 A 
ATOM      3  C   UNL     1      48.383   8.999  16.480  0.00  0.00    +0.000 A 
ATOM      4  C   UNL     1      49.004   8.493  17.626  0.00  0.00    +0.000 A 
ATOM      5  C   UNL     1      49.743   7.304  17.587  0.00  0.00    +0.000 A 
ATOM      6  C   UNL     1      49.796   6.605  16.370  0.00  0.00    +0.000 A 
ATOM      7  C   UNL     1      49.177   7.114  15.217  0.00  0.00    +0.000 A 
BRANCH   5   8
ATOM      8  C   UNL     1      50.499   6.752  18.787  0.00  0.00    +0.000 C 
BRANCH   8   9
ATOM      9  C   UNL     1      49.718   5.747  19.648  0.00  0.00    +0.000 C 
BRANCH   9  10
ATOM     10  N   UNL     1      50.309   4.405  19.611  0.00  0.00    +0.000 N 
ATOM     11  H   UNL     1      50.158   3.888  20.476  0.00  0.00    +0.000 HD
BRANCH  10  12
ATOM     12  C   UNL     1      50.012   3.610  18.488  0.00  0.00    +0.000 A 
ATOM     13  C   UNL     1      50.960   2.816  17.837  0.00  0.00    +0.000 A 
ATOM     14  C   UNL     1      50.568   2.009  16.778  0.00  0.00    +0.000 A 
ATOM     15  N   UNL     1      49.303   1.917  16.332  0.00  0.00    +0.000 NA
ATOM     16  C   UNL     1      48.388   2.648  16.994  0.00  0.00    +0.000 A 
ATOM     17  C   UNL     1      48.688   3.482  18.070  0.00  0.00    +0.000 A 
ENDBRANCH  10  12
ENDBRANCH   9  10
ENDBRANCH   8   9
ENDBRANCH   5   8
ENDBRANCH   1   2
BRANCH   1  20
ATOM     18  C   UNL     1      46.719   7.404  12.483  0.00  0.00    +0.000 C 
ATOM     19  O   UNL     1      47.746   7.271  11.819  0.00  0.00    +0.000 OA
ATOM     20  N   UNL     1      46.699   8.217  13.587  0.00  0.00    +0.000 N 
ATOM     21  H   UNL     1      45.860   8.305  14.143  0.00  0.00    +0.000 HD
BRANCH  18  29
ATOM     22  C   UNL     1      45.631   4.140  12.797  0.00  0.00    +0.000 A 
ATOM     23  N   UNL     1      44.976   2.961  12.764  0.00  0.00    +0.000 NA
ATOM     24  C   UNL     1      43.753   2.933  12.227  0.00  0.00    +0.000 A 
ATOM     25  N   UNL     1      43.088   3.958  11.705  0.00  0.00    +0.000 NA
ATOM     26  C   UNL     1      43.783   5.109  11.742  0.00  0.00    +0.000 A 
ATOM     27  S   UNL     1      43.082   6.524  11.121  0.00  0.00    +0.000 S 
ATOM     28  C   UNL     1      44.463   7.433  11.507  0.00  0.00    +0.000 A 
ATOM     29  C   UNL     1      45.478   6.697  12.111  0.00  0.00    +0.000 A 
ATOM     30  C   UNL     1      45.063   5.305  12.256  0.00  0.00    +0.000 A 
BRANCH  22  32
ATOM     31  C   UNL     1      46.844   4.524  14.746  0.00  0.00    +0.000 C 
ATOM     32  O   UNL     1      46.887   4.165  13.366  0.00  0.00    +0.000 OA
ENDBRANCH  22  32
ENDBRANCH  18  29
ENDBRANCH   1  20
TORSDOF 8
ENDMDL
