MODEL 1
REMARK VINA RESULT:    -8.411      0.000      0.000
REMARK INTER + INTRA:         -13.103
REMARK INTER:                 -11.853
REMARK INTRA:                  -1.250
REMARK UNBOUND:                -1.250
REMARK  Name = 
REMARK  8 active torsions:
REMARK  status: ('A' for Active; 'I' for Inactive)
REMARK    1  A    between atoms: C_1  and  C_2
REMARK    2  A    between atoms: C_2  and  N_3
REMARK    3  A    between atoms: C_2  and  C_25
REMARK    4  A    between atoms: N_3  and  C_4
REMARK    5  A    between atoms: C_4  and  C_5
REMARK    6  A    between atoms: C_8  and  C_9
REMARK    7  A    between atoms: C_9  and  N_10
REMARK    8  A    between atoms: C_11  and  C_13
REMARK                            x       y       z     vdW  Elec       q    Type
REMARK                         _______ _______ _______ _____ _____    ______ ____
ROOT
ATOM      1  C   UNL     1      44.756   6.040  11.067  0.00  0.00    +0.000 A 
ATOM      2  C   UNL     1      46.031   5.553  11.395  0.00  0.00    +0.000 A 
ATOM      3  C   UNL     1      46.897   6.304  12.195  0.00  0.00    +0.000 A 
ATOM      4  C   UNL     1      46.510   7.560  12.676  0.00  0.00    +0.000 A 
ATOM      5  C   UNL     1      45.265   8.077  12.293  0.00  0.00    +0.000 A 
ATOM      6  C   UNL     1      44.392   7.320  11.506  0.00  0.00    +0.000 A 
ENDROOT
BRANCH   1   7
ATOM      7  C   UNL     1      43.786   5.191  10.273  0.00  0.00    +0.000 C 
BRANCH   7   8
ATOM      8  N   UNL     1      44.430   4.655   9.074  0.00  0.00    +0.000 NA
ATOM      9  H   UNL     1      43.921   4.997   8.258  0.00  0.00    +0.000 HD
BRANCH   8  11
ATOM     10  C   UNL     1      44.437   2.518  10.379  0.00  0.00    +0.000 C 
ATOM     11  C   UNL     1      44.415   3.182   8.998  0.00  0.00    +0.000 C 
BRANCH  11  12
ATOM     12  C   UNL     1      45.602   2.679   8.172  0.00  0.00    +0.000 A 
ATOM     13  C   UNL     1      46.248   3.525   7.266  0.00  0.00    +0.000 A 
ATOM     14  C   UNL     1      47.341   3.047   6.549  0.00  0.00    +0.000 A 
ATOM     15  C   UNL     1      47.755   1.736   6.740  0.00  0.00    +0.000 A 
ATOM     16  C   UNL     1      47.052   0.954   7.640  0.00  0.00    +0.000 A 
ATOM     17  N   UNL     1      45.992   1.391   8.357  0.00  0.00    +0.000 NA
ENDBRANCH  11  12
ENDBRANCH   8  11
ENDBRANCH   7   8
ENDBRANCH   1   7
BRANCH   4  18
ATOM     18  C   UNL     1      47.423   8.353  13.570  0.00  0.00    +0.000 C 
BRANCH  18  19
ATOM     19  N   UNL     1      47.769   7.613  14.755  0.00  0.00    +0.000 N 
ATOM     20  C   UNL     1      48.998   7.017  14.876  0.00  0.00    +0.000 C 
ATOM     21  O   UNL     1      49.861   7.129  14.010  0.00  0.00    +0.000 OA
ATOM     22  H   UNL     1      47.011   7.342  15.373  0.00  0.00    +0.000 HD
BRANCH  20  23
ATOM     23  C   UNL     1      49.256   6.283  16.121  0.00  0.00    +0.000 A 
ATOM     24  C   UNL     1      50.296   6.687  16.948  0.00  0.00    +0.000 A 
ATOM     25  S   UNL     1      50.443   5.759  18.369  0.00  0.00    +0.000 S 
ATOM     26  C   UNL     1      49.153   4.749  17.907  0.00  0.00    +0.000 A 
ATOM     27  N   UNL     1      48.770   3.705  18.690  0.00  0.00    +0.000 NA
ATOM     28  C   UNL     1      47.796   3.008  18.209  0.00  0.00    +0.000 A 
ATOM     29  N   UNL     1      47.166   3.263  17.019  0.00  0.00    +0.000 N 
ATOM     30  C   UNL     1      47.501   4.324  16.208  0.00  0.00    +0.000 A 
ATOM     31  O   UNL     1      46.887   4.546  15.170  0.00  0.00    +0.000 OA
ATOM     32  C   UNL     1      48.602   5.131  16.697  0.00  0.00    +0.000 A 
ATOM     33  H   UNL     1      46.403   2.684  16.702  0.00  0.00    +0.000 HD
ENDBRANCH  20  23
ENDBRANCH  18  19
ENDBRANCH   4  18
TORSDOF 7
ENDMDL
MODEL 2
REMARK VINA RESULT:    -7.913      1.709      2.122
REMARK INTER + INTRA:         -12.400
REMARK INTER:                 -11.310
REMARK INTRA:                  -1.091
REMARK UNBOUND:                -1.250
REMARK  Name = 
REMARK  8 active torsions:
REMARK  status: ('A' for Active; 'I' for Inactive)
REMARK    1  A    between atoms: C_1  and  C_2
REMARK    2  A    between atoms: C_2  and  N_3
REMARK    3  A    between atoms: C_2  and  C_25
REMARK    4  A    between atoms: N_3  and  C_4
REMARK    5  A    between atoms: C_4  and  C_5
REMARK    6  A    between atoms: C_8  and  C_9
REMARK    7  A    between atoms: C_9  and  N_10
REMARK    8  A    between atoms: C_11  and  C_13
REMARK                            x       y       z     vdW  Elec       q    Type
REMARK                         _______ _______ _______ _____ _____    ______ ____
ROOT
ATOM      1  C   UNL     1      45.066   5.484  11.622  0.00  0.00    +0.000 A 
ATOM      2  C   UNL     1      45.303   5.000  12.918  0.00  0.00    +0.000 A 
ATOM      3  C   UNL     1      46.428   5.411  13.638  0.00  0.00    +0.000 A 
ATOM      4  C   UNL     1      47.344   6.306  13.074  0.00  0.00    +0.000 A 
ATOM      5  C   UNL     1      47.145   6.738  11.756  0.00  0.00    +0.000 A 
ATOM      6  C   UNL     1      46.013   6.340  11.041  0.00  0.00    +0.000 A 
ENDROOT
BRANCH   1   7
ATOM      7  C   UNL     1      43.804   5.107  10.875  0.00  0.00    +0.000 C 
BRANCH   7   8
ATOM      8  N   UNL     1      44.106   4.785   9.480  0.00  0.00    +0.000 NA
ATOM      9  H   UNL     1      43.371   5.181   8.894  0.00  0.00    +0.000 HD
BRANCH   8  11
ATOM     10  C   UNL     1      44.144   2.485  10.472  0.00  0.00    +0.000 C 
ATOM     11  C   UNL     1      44.143   3.337   9.198  0.00  0.00    +0.000 C 
BRANCH  11  12
ATOM     12  C   UNL     1      45.371   2.990   8.352  0.00  0.00    +0.000 A 
ATOM     13  C   UNL     1      45.887   1.692   8.345  0.00  0.00    +0.000 A 
ATOM     14  C   UNL     1      46.987   1.401   7.545  0.00  0.00    +0.000 A 
ATOM     15  C   UNL     1      47.557   2.412   6.784  0.00  0.00    +0.000 A 
ATOM     16  C   UNL     1      47.003   3.678   6.860  0.00  0.00    +0.000 A 
ATOM     17  N   UNL     1      45.929   3.990   7.621  0.00  0.00    +0.000 NA
ENDBRANCH  11  12
ENDBRANCH   8  11
ENDBRANCH   7   8
ENDBRANCH   1   7
BRANCH   4  18
ATOM     18  C   UNL     1      48.534   6.782  13.861  0.00  0.00    +0.000 C 
BRANCH  18  19
ATOM     19  N   UNL     1      48.301   6.683  15.278  0.00  0.00    +0.000 N 
ATOM     20  C   UNL     1      49.013   7.452  16.162  0.00  0.00    +0.000 C 
ATOM     21  O   UNL     1      49.835   8.283  15.784  0.00  0.00    +0.000 OA
ATOM     22  H   UNL     1      47.788   5.872  15.610  0.00  0.00    +0.000 HD
BRANCH  20  23
ATOM     23  C   UNL     1      48.705   7.277  17.586  0.00  0.00    +0.000 A 
ATOM     24  C   UNL     1      48.267   8.367  18.328  0.00  0.00    +0.000 A 
ATOM     25  S   UNL     1      47.917   7.994  19.953  0.00  0.00    +0.000 S 
ATOM     26  C   UNL     1      48.386   6.372  19.739  0.00  0.00    +0.000 A 
ATOM     27  N   UNL     1      48.352   5.493  20.776  0.00  0.00    +0.000 NA
ATOM     28  C   UNL     1      48.756   4.304  20.480  0.00  0.00    +0.000 A 
ATOM     29  N   UNL     1      49.187   3.911  19.239  0.00  0.00    +0.000 N 
ATOM     30  C   UNL     1      49.212   4.758  18.155  0.00  0.00    +0.000 A 
ATOM     31  O   UNL     1      49.564   4.361  17.050  0.00  0.00    +0.000 OA
ATOM     32  C   UNL     1      48.781   6.113  18.438  0.00  0.00    +0.000 A 
ATOM     33  H   UNL     1      49.483   2.961  19.071  0.00  0.00    +0.000 HD
ENDBRANCH  20  23
ENDBRANCH  18  19
ENDBRANCH   4  18
TORSDOF 7
ENDMDL
MODEL 3
REMARK VINA RESULT:    -7.897      2.405      3.005
REMARK INTER + INTRA:         -12.379
REMARK INTER:                 -11.256
REMARK INTRA:                  -1.122
REMARK UNBOUND:                -1.250
REMARK  Name = 
REMARK  8 active torsions:
REMARK  status: ('A' for Active; 'I' for Inactive)
REMARK    1  A    between atoms: C_1  and  C_2
REMARK    2  A    between atoms: C_2  and  N_3
REMARK    3  A    between atoms: C_2  and  C_25
REMARK    4  A    between atoms: N_3  and  C_4
REMARK    5  A    between atoms: C_4  and  C_5
REMARK    6  A    between atoms: C_8  and  C_9
REMARK    7  A    between atoms: C_9  and  N_10
REMARK    8  A    between atoms: C_11  and  C_13
REMARK                            x       y       z     vdW  Elec       q    Type
REMARK                         _______ _______ _______ _____ _____    ______ ____
ROOT
ATOM      1  C   UNL     1      45.341   5.476  11.664  0.00  0.00    +0.000 A 
ATOM      2  C   UNL     1      45.709   4.775  12.823  0.00  0.00    +0.000 A 
ATOM      3  C   UNL     1      46.789   5.201  13.601  0.00  0.00    +0.000 A 
ATOM      4  C   UNL     1      47.529   6.330  13.231  0.00  0.00    +0.000 A 
ATOM      5  C   UNL     1      47.206   6.990  12.039  0.00  0.00    +0.000 A 
ATOM      6  C   UNL     1      46.117   6.575  11.268  0.00  0.00    +0.000 A 
ENDROOT
BRANCH   1   7
ATOM      7  C   UNL     1      44.120   5.066  10.868  0.00  0.00    +0.000 C 
BRANCH   7   8
ATOM      8  N   UNL     1      44.496   4.669   9.512  0.00  0.00    +0.000 NA
ATOM      9  H   UNL     1      43.898   5.170   8.854  0.00  0.00    +0.000 HD
BRANCH   8  11
ATOM     10  C   UNL     1      44.193   2.397  10.522  0.00  0.00    +0.000 C 
ATOM     11  C   UNL     1      44.314   3.230   9.241  0.00  0.00    +0.000 C 
BRANCH  11  12
ATOM     12  C   UNL     1      45.472   2.697   8.393  0.00  0.00    +0.000 A 
ATOM     13  C   UNL     1      46.180   3.547   7.539  0.00  0.00    +0.000 A 
ATOM     14  C   UNL     1      47.244   3.039   6.802  0.00  0.00    +0.000 A 
ATOM     15  C   UNL     1      47.570   1.695   6.921  0.00  0.00    +0.000 A 
ATOM     16  C   UNL     1      46.810   0.912   7.772  0.00  0.00    +0.000 A 
ATOM     17  N   UNL     1      45.775   1.378   8.508  0.00  0.00    +0.000 NA
ENDBRANCH  11  12
ENDBRANCH   8  11
ENDBRANCH   7   8
ENDBRANCH   1   7
BRANCH   4  18
ATOM     18  C   UNL     1      48.667   6.815  14.088  0.00  0.00    +0.000 C 
BRANCH  18  19
ATOM     19  N   UNL     1      48.261   6.971  15.460  0.00  0.00    +0.000 N 
ATOM     20  C   UNL     1      49.031   6.475  16.480  0.00  0.00    +0.000 C 
ATOM     21  O   UNL     1      50.111   5.928  16.271  0.00  0.00    +0.000 OA
ATOM     22  H   UNL     1      47.295   7.228  15.634  0.00  0.00    +0.000 HD
BRANCH  20  23
ATOM     23  C   UNL     1      48.533   6.682  17.845  0.00  0.00    +0.000 A 
ATOM     24  C   UNL     1      48.438   5.599  18.709  0.00  0.00    +0.000 A 
ATOM     25  S   UNL     1      47.878   6.008  20.265  0.00  0.00    +0.000 S 
ATOM     26  C   UNL     1      47.693   7.642  19.826  0.00  0.00    +0.000 A 
ATOM     27  N   UNL     1      47.213   8.553  20.716  0.00  0.00    +0.000 NA
ATOM     28  C   UNL     1      47.101   9.750  20.245  0.00  0.00    +0.000 A 
ATOM     29  N   UNL     1      47.430  10.120  18.967  0.00  0.00    +0.000 N 
ATOM     30  C   UNL     1      47.945   9.240  18.043  0.00  0.00    +0.000 A 
ATOM     31  O   UNL     1      48.268   9.616  16.921  0.00  0.00    +0.000 OA
ATOM     32  C   UNL     1      48.077   7.877  18.518  0.00  0.00    +0.000 A 
ATOM     33  H   UNL     1      47.327  11.077  18.662  0.00  0.00    +0.000 HD
ENDBRANCH  20  23
ENDBRANCH  18  19
ENDBRANCH   4  18
TORSDOF 7
ENDMDL
MODEL 4
REMARK VINA RESULT:    -7.447      4.876      9.314
REMARK INTER + INTRA:         -11.745
REMARK INTER:                 -10.558
REMARK INTRA:                  -1.187
REMARK UNBOUND:                -1.250
REMARK  Name = 
REMARK  8 active torsions:
REMARK  status: ('A' for Active; 'I' for Inactive)
REMARK    1  A    between atoms: C_1  and  C_2
REMARK    2  A    between atoms: C_2  and  N_3
REMARK    3  A    between atoms: C_2  and  C_25
REMARK    4  A    between atoms: N_3  and  C_4
REMARK    5  A    between atoms: C_4  and  C_5
REMARK    6  A    between atoms: C_8  and  C_9
REMARK    7  A    between atoms: C_9  and  N_10
REMARK    8  A    between atoms: C_11  and  C_13
REMARK                            x       y       z     vdW  Elec       q    Type
REMARK                         _______ _______ _______ _____ _____    ______ ____
ROOT
ATOM      1  C   UNL     1      51.091   2.314  17.426  0.00  0.00    +0.000 A 
ATOM      2  C   UNL     1      49.713   2.274  17.166  0.00  0.00    +0.000 A 
ATOM      3  C   UNL     1      48.971   3.455  17.070  0.00  0.00    +0.000 A 
ATOM      4  C   UNL     1      49.589   4.698  17.241  0.00  0.00    +0.000 A 
ATOM      5  C   UNL     1      50.951   4.738  17.568  0.00  0.00    +0.000 A 
ATOM      6  C   UNL     1      51.697   3.558  17.649  0.00  0.00    +0.000 A 
ENDROOT
BRANCH   1   7
ATOM      7  C   UNL     1      51.911   1.041  17.445  0.00  0.00    +0.000 C 
BRANCH   7   8
ATOM      8  N   UNL     1      52.837   1.040  18.577  0.00  0.00    +0.000 NA
ATOM      9  H   UNL     1      52.943   2.000  18.904  0.00  0.00    +0.000 HD
BRANCH   8  11
ATOM     10  C   UNL     1      54.649   0.998  16.849  0.00  0.00    +0.000 C 
ATOM     11  C   UNL     1      54.188   0.552  18.241  0.00  0.00    +0.000 C 
BRANCH  11  12
ATOM     12  C   UNL     1      54.240  -0.976  18.330  0.00  0.00    +0.000 A 
ATOM     13  C   UNL     1      54.954  -1.720  17.388  0.00  0.00    +0.000 A 
ATOM     14  C   UNL     1      55.005  -3.105  17.511  0.00  0.00    +0.000 A 
ATOM     15  C   UNL     1      54.332  -3.716  18.559  0.00  0.00    +0.000 A 
ATOM     16  C   UNL     1      53.629  -2.914  19.441  0.00  0.00    +0.000 A 
ATOM     17  N   UNL     1      53.567  -1.565  19.353  0.00  0.00    +0.000 NA
ENDBRANCH  11  12
ENDBRANCH   8  11
ENDBRANCH   7   8
ENDBRANCH   1   7
BRANCH   4  18
ATOM     18  C   UNL     1      48.802   5.972  17.098  0.00  0.00    +0.000 C 
BRANCH  18  19
ATOM     19  N   UNL     1      47.888   5.903  15.988  0.00  0.00    +0.000 N 
ATOM     20  C   UNL     1      48.276   6.301  14.735  0.00  0.00    +0.000 C 
ATOM     21  O   UNL     1      49.420   6.680  14.499  0.00  0.00    +0.000 OA
ATOM     22  H   UNL     1      46.902   5.794  16.203  0.00  0.00    +0.000 HD
BRANCH  20  23
ATOM     23  C   UNL     1      47.273   6.195  13.669  0.00  0.00    +0.000 A 
ATOM     24  C   UNL     1      46.850   7.344  13.013  0.00  0.00    +0.000 A 
ATOM     25  S   UNL     1      45.712   7.051  11.779  0.00  0.00    +0.000 S 
ATOM     26  C   UNL     1      45.704   5.381  12.109  0.00  0.00    +0.000 A 
ATOM     27  N   UNL     1      44.902   4.536  11.408  0.00  0.00    +0.000 NA
ATOM     28  C   UNL     1      44.978   3.301  11.776  0.00  0.00    +0.000 A 
ATOM     29  N   UNL     1      45.788   2.834  12.779  0.00  0.00    +0.000 N 
ATOM     30  C   UNL     1      46.635   3.648  13.496  0.00  0.00    +0.000 A 
ATOM     31  O   UNL     1      47.375   3.188  14.358  0.00  0.00    +0.000 OA
ATOM     32  C   UNL     1      46.577   5.049  13.130  0.00  0.00    +0.000 A 
ATOM     33  H   UNL     1      45.806   1.852  13.014  0.00  0.00    +0.000 HD
ENDBRANCH  20  23
ENDBRANCH  18  19
ENDBRANCH   4  18
TORSDOF 7
ENDMDL
MODEL 5
REMARK VINA RESULT:    -7.374      1.560      2.065
REMARK INTER + INTRA:         -11.641
REMARK INTER:                 -10.571
REMARK INTRA:                  -1.070
REMARK UNBOUND:                -1.250
REMARK  Name = 
REMARK  8 active torsions:
REMARK  status: ('A' for Active; 'I' for Inactive)
REMARK    1  A    between atoms: C_1  and  C_2
REMARK    2  A    between atoms: C_2  and  N_3
REMARK    3  A    between atoms: C_2  and  C_25
REMARK    4  A    between atoms: N_3  and  C_4
REMARK    5  A    between atoms: C_4  and  C_5
REMARK    6  A    between atoms: C_8  and  C_9
REMARK    7  A    between atoms: C_9  and  N_10
REMARK    8  A    between atoms: C_11  and  C_13
REMARK                            x       y       z     vdW  Elec       q    Type
REMARK                         _______ _______ _______ _____ _____    ______ ____
ROOT
ATOM      1  C   UNL     1      45.414   6.650  11.951  0.00  0.00    +0.000 A 
ATOM      2  C   UNL     1      45.257   7.983  12.360  0.00  0.00    +0.000 A 
ATOM      3  C   UNL     1      46.232   8.608  13.142  0.00  0.00    +0.000 A 
ATOM      4  C   UNL     1      47.380   7.911  13.537  0.00  0.00    +0.000 A 
ATOM      5  C   UNL     1      47.506   6.561  13.187  0.00  0.00    +0.000 A 
ATOM      6  C   UNL     1      46.539   5.939  12.393  0.00  0.00    +0.000 A 
ENDROOT
BRANCH   1   7
ATOM      7  C   UNL     1      44.400   5.998  11.034  0.00  0.00    +0.000 C 
BRANCH   7   8
ATOM      8  N   UNL     1      45.063   5.377   9.888  0.00  0.00    +0.000 NA
ATOM      9  H   UNL     1      45.036   6.034   9.108  0.00  0.00    +0.000 HD
BRANCH   8  11
ATOM     10  C   UNL     1      43.945   3.245  10.579  0.00  0.00    +0.000 C 
ATOM     11  C   UNL     1      44.413   4.137   9.424  0.00  0.00    +0.000 C 
BRANCH  11  12
ATOM     12  C   UNL     1      45.361   3.344   8.520  0.00  0.00    +0.000 A 
ATOM     13  C   UNL     1      45.599   1.987   8.754  0.00  0.00    +0.000 A 
ATOM     14  C   UNL     1      46.445   1.288   7.899  0.00  0.00    +0.000 A 
ATOM     15  C   UNL     1      47.044   1.958   6.842  0.00  0.00    +0.000 A 
ATOM     16  C   UNL     1      46.775   3.307   6.687  0.00  0.00    +0.000 A 
ATOM     17  N   UNL     1      45.952   4.013   7.496  0.00  0.00    +0.000 NA
ENDBRANCH  11  12
ENDBRANCH   8  11
ENDBRANCH   7   8
ENDBRANCH   1   7
BRANCH   4  18
ATOM     18  C   UNL     1      48.451   8.593  14.344  0.00  0.00    +0.000 C 
BRANCH  18  19
ATOM     19  N   UNL     1      49.377   7.642  14.899  0.00  0.00    +0.000 N 
ATOM     20  C   UNL     1      49.385   7.372  16.243  0.00  0.00    +0.000 C 
ATOM     21  O   UNL     1      48.578   7.888  17.013  0.00  0.00    +0.000 OA
ATOM     22  H   UNL     1      50.168   7.371  14.323  0.00  0.00    +0.000 HD
BRANCH  20  23
ATOM     23  C   UNL     1      50.367   6.389  16.714  0.00  0.00    +0.000 A 
ATOM     24  C   UNL     1      51.689   6.775  16.891  0.00  0.00    +0.000 A 
ATOM     25  S   UNL     1      52.695   5.531  17.476  0.00  0.00    +0.000 S 
ATOM     26  C   UNL     1      51.410   4.415  17.467  0.00  0.00    +0.000 A 
ATOM     27  N   UNL     1      51.608   3.122  17.841  0.00  0.00    +0.000 NA
ATOM     28  C   UNL     1      50.555   2.379  17.765  0.00  0.00    +0.000 A 
ATOM     29  N   UNL     1      49.321   2.812  17.354  0.00  0.00    +0.000 N 
ATOM     30  C   UNL     1      49.069   4.116  16.994  0.00  0.00    +0.000 A 
ATOM     31  O   UNL     1      47.943   4.477  16.671  0.00  0.00    +0.000 OA
ATOM     32  C   UNL     1      50.224   4.990  17.048  0.00  0.00    +0.000 A 
ATOM     33  H   UNL     1      48.534   2.181  17.324  0.00  0.00    +0.000 HD
ENDBRANCH  20  23
ENDBRANCH  18  19
ENDBRANCH   4  18
TORSDOF 7
ENDMDL
MODEL 6
REMARK VINA RESULT:    -7.256      2.900      8.388
REMARK INTER + INTRA:         -11.475
REMARK INTER:                  -9.829
REMARK INTRA:                  -1.646
REMARK UNBOUND:                -1.250
REMARK  Name = 
REMARK  8 active torsions:
REMARK  status: ('A' for Active; 'I' for Inactive)
REMARK    1  A    between atoms: C_1  and  C_2
REMARK    2  A    between atoms: C_2  and  N_3
REMARK    3  A    between atoms: C_2  and  C_25
REMARK    4  A    between atoms: N_3  and  C_4
REMARK    5  A    between atoms: C_4  and  C_5
REMARK    6  A    between atoms: C_8  and  C_9
REMARK    7  A    between atoms: C_9  and  N_10
REMARK    8  A    between atoms: C_11  and  C_13
REMARK                            x       y       z     vdW  Elec       q    Type
REMARK                         _______ _______ _______ _____ _____    ______ ____
ROOT
ATOM      1  C   UNL     1      48.656   7.840  16.181  0.00  0.00    +0.000 A 
ATOM      2  C   UNL     1      48.214   9.006  15.537  0.00  0.00    +0.000 A 
ATOM      3  C   UNL     1      47.823   8.976  14.196  0.00  0.00    +0.000 A 
ATOM      4  C   UNL     1      47.875   7.782  13.468  0.00  0.00    +0.000 A 
ATOM      5  C   UNL     1      48.380   6.632  14.088  0.00  0.00    +0.000 A 
ATOM      6  C   UNL     1      48.757   6.658  15.434  0.00  0.00    +0.000 A 
ENDROOT
BRANCH   1   7
ATOM      7  C   UNL     1      48.998   7.853  17.655  0.00  0.00    +0.000 C 
BRANCH   7   8
ATOM      8  N   UNL     1      47.832   7.489  18.460  0.00  0.00    +0.000 NA
ATOM      9  H   UNL     1      47.599   8.280  19.061  0.00  0.00    +0.000 HD
BRANCH   8  11
ATOM     10  C   UNL     1      49.270   6.521  20.268  0.00  0.00    +0.000 C 
ATOM     11  C   UNL     1      48.059   6.333  19.347  0.00  0.00    +0.000 C 
BRANCH  11  12
ATOM     12  C   UNL     1      48.239   5.055  18.523  0.00  0.00    +0.000 A 
ATOM     13  C   UNL     1      47.162   4.499  17.827  0.00  0.00    +0.000 A 
ATOM     14  C   UNL     1      47.363   3.353  17.065  0.00  0.00    +0.000 A 
ATOM     15  C   UNL     1      48.627   2.780  17.025  0.00  0.00    +0.000 A 
ATOM     16  C   UNL     1      49.639   3.377  17.757  0.00  0.00    +0.000 A 
ATOM     17  N   UNL     1      49.476   4.495  18.500  0.00  0.00    +0.000 NA
ENDBRANCH  11  12
ENDBRANCH   8  11
ENDBRANCH   7   8
ENDBRANCH   1   7
BRANCH   4  18
ATOM     18  C   UNL     1      47.416   7.736  12.036  0.00  0.00    +0.000 C 
BRANCH  18  19
ATOM     19  N   UNL     1      46.769   6.488  11.731  0.00  0.00    +0.000 N 
ATOM     20  C   UNL     1      45.404   6.371  11.792  0.00  0.00    +0.000 C 
ATOM     21  O   UNL     1      44.683   7.329  12.057  0.00  0.00    +0.000 OA
ATOM     22  H   UNL     1      47.348   5.654  11.715  0.00  0.00    +0.000 HD
BRANCH  20  23
ATOM     23  C   UNL     1      44.838   5.057  11.465  0.00  0.00    +0.000 A 
ATOM     24  C   UNL     1      44.098   4.376  12.423  0.00  0.00    +0.000 A 
ATOM     25  S   UNL     1      43.480   2.885  11.879  0.00  0.00    +0.000 S 
ATOM     26  C   UNL     1      44.220   3.071  10.358  0.00  0.00    +0.000 A 
ATOM     27  N   UNL     1      44.104   2.109   9.404  0.00  0.00    +0.000 NA
ATOM     28  C   UNL     1      44.734   2.368   8.307  0.00  0.00    +0.000 A 
ATOM     29  N   UNL     1      45.465   3.504   8.076  0.00  0.00    +0.000 N 
ATOM     30  C   UNL     1      45.587   4.515   9.002  0.00  0.00    +0.000 A 
ATOM     31  O   UNL     1      46.215   5.536   8.744  0.00  0.00    +0.000 OA
ATOM     32  C   UNL     1      44.909   4.266  10.258  0.00  0.00    +0.000 A 
ATOM     33  H   UNL     1      45.929   3.650   7.192  0.00  0.00    +0.000 HD
ENDBRANCH  20  23
ENDBRANCH  18  19
ENDBRANCH   4  18
TORSDOF 7
ENDMDL
MODEL 7
REMARK VINA RESULT:    -7.135      3.334      4.525
REMARK INTER + INTRA:         -11.304
REMARK INTER:                 -10.325
REMARK INTRA:                  -0.979
REMARK UNBOUND:                -1.250
REMARK  Name = 
REMARK  8 active torsions:
REMARK  status: ('A' for Active; 'I' for Inactive)
REMARK    1  A    between atoms: C_1  and  C_2
REMARK    2  A    between atoms: C_2  and  N_3
REMARK    3  A    between atoms: C_2  and  C_25
REMARK    4  A    between atoms: N_3  and  C_4
REMARK    5  A    between atoms: C_4  and  C_5
REMARK    6  A    between atoms: C_8  and  C_9
REMARK    7  A    between atoms: C_9  and  N_10
REMARK    8  A    between atoms: C_11  and  C_13
REMARK                            x       y       z     vdW  Elec       q    Type
REMARK                         _______ _______ _______ _____ _____    ______ ____
ROOT
ATOM      1  C   UNL     1      47.145   5.620  13.635  0.00  0.00    +0.000 A 
ATOM      2  C   UNL     1      48.033   6.574  14.155  0.00  0.00    +0.000 A 
ATOM      3  C   UNL     1      48.577   6.421  15.433  0.00  0.00    +0.000 A 
ATOM      4  C   UNL     1      48.237   5.316  16.222  0.00  0.00    +0.000 A 
ATOM      5  C   UNL     1      47.298   4.398  15.732  0.00  0.00    +0.000 A 
ATOM      6  C   UNL     1      46.765   4.542  14.448  0.00  0.00    +0.000 A 
ENDROOT
BRANCH   1   7
ATOM      7  C   UNL     1      46.622   5.741  12.219  0.00  0.00    +0.000 C 
BRANCH   7   8
ATOM      8  N   UNL     1      45.420   4.928  12.041  0.00  0.00    +0.000 NA
ATOM      9  H   UNL     1      45.698   3.946  12.021  0.00  0.00    +0.000 HD
BRANCH   8  11
ATOM     10  C   UNL     1      43.181   5.078  10.927  0.00  0.00    +0.000 C 
ATOM     11  C   UNL     1      44.703   5.193  10.779  0.00  0.00    +0.000 C 
BRANCH  11  12
ATOM     12  C   UNL     1      45.182   4.238   9.683  0.00  0.00    +0.000 A 
ATOM     13  C   UNL     1      44.995   2.859   9.809  0.00  0.00    +0.000 A 
ATOM     14  C   UNL     1      45.417   2.018   8.784  0.00  0.00    +0.000 A 
ATOM     15  C   UNL     1      46.028   2.568   7.666  0.00  0.00    +0.000 A 
ATOM     16  C   UNL     1      46.196   3.942   7.623  0.00  0.00    +0.000 A 
ATOM     17  N   UNL     1      45.790   4.785   8.599  0.00  0.00    +0.000 NA
ENDBRANCH  11  12
ENDBRANCH   8  11
ENDBRANCH   7   8
ENDBRANCH   1   7
BRANCH   4  18
ATOM     18  C   UNL     1      48.851   5.126  17.581  0.00  0.00    +0.000 C 
BRANCH  18  19
ATOM     19  N   UNL     1      50.166   4.547  17.488  0.00  0.00    +0.000 N 
ATOM     20  C   UNL     1      50.955   4.413  18.600  0.00  0.00    +0.000 C 
ATOM     21  O   UNL     1      50.559   4.732  19.719  0.00  0.00    +0.000 OA
ATOM     22  H   UNL     1      50.577   4.474  16.563  0.00  0.00    +0.000 HD
BRANCH  20  23
ATOM     23  C   UNL     1      52.280   3.814  18.403  0.00  0.00    +0.000 A 
ATOM     24  C   UNL     1      53.415   4.555  18.699  0.00  0.00    +0.000 A 
ATOM     25  S   UNL     1      54.873   3.708  18.451  0.00  0.00    +0.000 S 
ATOM     26  C   UNL     1      54.040   2.333  17.891  0.00  0.00    +0.000 A 
ATOM     27  N   UNL     1      54.717   1.227  17.480  0.00  0.00    +0.000 NA
ATOM     28  C   UNL     1      53.964   0.268  17.058  0.00  0.00    +0.000 A 
ATOM     29  N   UNL     1      52.595   0.311  17.014  0.00  0.00    +0.000 N 
ATOM     30  C   UNL     1      51.867   1.398  17.445  0.00  0.00    +0.000 A 
ATOM     31  O   UNL     1      50.641   1.385  17.430  0.00  0.00    +0.000 OA
ATOM     32  C   UNL     1      52.668   2.510  17.916  0.00  0.00    +0.000 A 
ATOM     33  H   UNL     1      52.062  -0.478  16.679  0.00  0.00    +0.000 HD
ENDBRANCH  20  23
ENDBRANCH  18  19
ENDBRANCH   4  18
TORSDOF 7
ENDMDL
MODEL 8
REMARK VINA RESULT:    -7.106      3.169      7.950
REMARK INTER + INTRA:         -11.264
REMARK INTER:                  -9.734
REMARK INTRA:                  -1.530
REMARK UNBOUND:                -1.250
REMARK  Name = 
REMARK  8 active torsions:
REMARK  status: ('A' for Active; 'I' for Inactive)
REMARK    1  A    between atoms: C_1  and  C_2
REMARK    2  A    between atoms: C_2  and  N_3
REMARK    3  A    between atoms: C_2  and  C_25
REMARK    4  A    between atoms: N_3  and  C_4
REMARK    5  A    between atoms: C_4  and  C_5
REMARK    6  A    between atoms: C_8  and  C_9
REMARK    7  A    between atoms: C_9  and  N_10
REMARK    8  A    between atoms: C_11  and  C_13
REMARK                            x       y       z     vdW  Elec       q    Type
REMARK                         _______ _______ _______ _____ _____    ______ ____
ROOT
ATOM      1  C   UNL     1      48.668   7.713  16.401  0.00  0.00    +0.000 A 
ATOM      2  C   UNL     1      48.647   6.573  15.583  0.00  0.00    +0.000 A 
ATOM      3  C   UNL     1      48.494   6.692  14.198  0.00  0.00    +0.000 A 
ATOM      4  C   UNL     1      48.349   7.951  13.605  0.00  0.00    +0.000 A 
ATOM      5  C   UNL     1      48.302   9.084  14.426  0.00  0.00    +0.000 A 
ATOM      6  C   UNL     1      48.470   8.969  15.809  0.00  0.00    +0.000 A 
ENDROOT
BRANCH   1   7
ATOM      7  C   UNL     1      48.919   7.591  17.889  0.00  0.00    +0.000 C 
BRANCH   7   8
ATOM      8  N   UNL     1      47.736   7.068  18.572  0.00  0.00    +0.000 NA
ATOM      9  H   UNL     1      47.400   7.781  19.220  0.00  0.00    +0.000 HD
BRANCH   8  11
ATOM     10  C   UNL     1      49.186   6.019  20.323  0.00  0.00    +0.000 C 
ATOM     11  C   UNL     1      47.997   5.855  19.370  0.00  0.00    +0.000 C 
BRANCH  11  12
ATOM     12  C   UNL     1      48.241   4.655  18.451  0.00  0.00    +0.000 A 
ATOM     13  C   UNL     1      49.517   4.098  18.331  0.00  0.00    +0.000 A 
ATOM     14  C   UNL     1      49.701   2.992  17.509  0.00  0.00    +0.000 A 
ATOM     15  C   UNL     1      48.616   2.475  16.815  0.00  0.00    +0.000 A 
ATOM     16  C   UNL     1      47.387   3.094  16.969  0.00  0.00    +0.000 A 
ATOM     17  N   UNL     1      47.174   4.165  17.767  0.00  0.00    +0.000 NA
ENDBRANCH  11  12
ENDBRANCH   8  11
ENDBRANCH   7   8
ENDBRANCH   1   7
BRANCH   4  18
ATOM     18  C   UNL     1      48.225   8.085  12.112  0.00  0.00    +0.000 C 
BRANCH  18  19
ATOM     19  N   UNL     1      47.565   6.944  11.535  0.00  0.00    +0.000 N 
ATOM     20  C   UNL     1      46.205   6.933  11.361  0.00  0.00    +0.000 C 
ATOM     21  O   UNL     1      45.508   7.904  11.641  0.00  0.00    +0.000 OA
ATOM     22  H   UNL     1      48.088   6.074  11.494  0.00  0.00    +0.000 HD
BRANCH  20  23
ATOM     23  C   UNL     1      45.624   5.723  10.767  0.00  0.00    +0.000 A 
ATOM     24  C   UNL     1      45.805   5.473   9.413  0.00  0.00    +0.000 A 
ATOM     25  S   UNL     1      45.102   4.014   8.885  0.00  0.00    +0.000 S 
ATOM     26  C   UNL     1      44.487   3.686  10.437  0.00  0.00    +0.000 A 
ATOM     27  N   UNL     1      43.745   2.570  10.672  0.00  0.00    +0.000 NA
ATOM     28  C   UNL     1      43.322   2.457  11.886  0.00  0.00    +0.000 A 
ATOM     29  N   UNL     1      43.578   3.355  12.889  0.00  0.00    +0.000 N 
ATOM     30  C   UNL     1      44.347   4.483  12.705  0.00  0.00    +0.000 A 
ATOM     31  O   UNL     1      44.589   5.242  13.636  0.00  0.00    +0.000 OA
ATOM     32  C   UNL     1      44.834   4.664  11.352  0.00  0.00    +0.000 A 
ATOM     33  H   UNL     1      43.224   3.205  13.822  0.00  0.00    +0.000 HD
ENDBRANCH  20  23
ENDBRANCH  18  19
ENDBRANCH   4  18
TORSDOF 7
ENDMDL
MODEL 9
REMARK VINA RESULT:    -6.895      3.298      5.695
REMARK INTER + INTRA:         -10.967
REMARK INTER:                  -9.662
REMARK INTRA:                  -1.305
REMARK UNBOUND:                -1.250
REMARK  Name = 
REMARK  8 active torsions:
REMARK  status: ('A' for Active; 'I' for Inactive)
REMARK    1  A    between atoms: C_1  and  C_2
REMARK    2  A    between atoms: C_2  and  N_3
REMARK    3  A    between atoms: C_2  and  C_25
REMARK    4  A    between atoms: N_3  and  C_4
REMARK    5  A    between atoms: C_4  and  C_5
REMARK    6  A    between atoms: C_8  and  C_9
REMARK    7  A    between atoms: C_9  and  N_10
REMARK    8  A    between atoms: C_11  and  C_13
REMARK                            x       y       z     vdW  Elec       q    Type
REMARK                         _______ _______ _______ _____ _____    ______ ____
ROOT
ATOM      1  C   UNL     1      47.627   5.824  14.319  0.00  0.00    +0.000 A 
ATOM      2  C   UNL     1      48.312   6.235  15.473  0.00  0.00    +0.000 A 
ATOM      3  C   UNL     1      48.447   5.375  16.566  0.00  0.00    +0.000 A 
ATOM      4  C   UNL     1      47.893   4.090  16.531  0.00  0.00    +0.000 A 
ATOM      5  C   UNL     1      47.151   3.703  15.408  0.00  0.00    +0.000 A 
ATOM      6  C   UNL     1      47.028   4.557  14.308  0.00  0.00    +0.000 A 
ENDROOT
BRANCH   1   7
ATOM      7  C   UNL     1      47.554   6.723  13.102  0.00  0.00    +0.000 C 
BRANCH   7   8
ATOM      8  N   UNL     1      46.263   7.409  13.044  0.00  0.00    +0.000 NA
ATOM      9  H   UNL     1      45.679   7.057  13.802  0.00  0.00    +0.000 HD
BRANCH   8  11
ATOM     10  C   UNL     1      44.533   8.303  11.469  0.00  0.00    +0.000 C 
ATOM     11  C   UNL     1      45.521   7.176  11.791  0.00  0.00    +0.000 C 
BRANCH  11  12
ATOM     12  C   UNL     1      44.770   5.843  11.856  0.00  0.00    +0.000 A 
ATOM     13  C   UNL     1      44.953   4.874  10.867  0.00  0.00    +0.000 A 
ATOM     14  C   UNL     1      44.277   3.662  10.968  0.00  0.00    +0.000 A 
ATOM     15  C   UNL     1      43.425   3.451  12.043  0.00  0.00    +0.000 A 
ATOM     16  C   UNL     1      43.280   4.467  12.972  0.00  0.00    +0.000 A 
ATOM     17  N   UNL     1      43.929   5.652  12.905  0.00  0.00    +0.000 NA
ENDBRANCH  11  12
ENDBRANCH   8  11
ENDBRANCH   7   8
ENDBRANCH   1   7
BRANCH   4  18
ATOM     18  C   UNL     1      48.071   3.147  17.689  0.00  0.00    +0.000 C 
BRANCH  18  19
ATOM     19  N   UNL     1      49.464   2.931  17.981  0.00  0.00    +0.000 N 
ATOM     20  C   UNL     1      50.242   2.158  17.159  0.00  0.00    +0.000 C 
ATOM     21  O   UNL     1      49.801   1.665  16.124  0.00  0.00    +0.000 OA
ATOM     22  H   UNL     1      49.783   3.153  18.919  0.00  0.00    +0.000 HD
BRANCH  20  23
ATOM     23  C   UNL     1      51.649   1.995  17.542  0.00  0.00    +0.000 A 
ATOM     24  C   UNL     1      52.169   0.718  17.705  0.00  0.00    +0.000 A 
ATOM     25  S   UNL     1      53.823   0.697  18.114  0.00  0.00    +0.000 S 
ATOM     26  C   UNL     1      53.894   2.397  18.138  0.00  0.00    +0.000 A 
ATOM     27  N   UNL     1      55.049   3.043  18.452  0.00  0.00    +0.000 NA
ATOM     28  C   UNL     1      54.956   4.330  18.455  0.00  0.00    +0.000 A 
ATOM     29  N   UNL     1      53.814   5.031  18.167  0.00  0.00    +0.000 N 
ATOM     30  C   UNL     1      52.631   4.422  17.817  0.00  0.00    +0.000 A 
ATOM     31  O   UNL     1      51.640   5.083  17.526  0.00  0.00    +0.000 OA
ATOM     32  C   UNL     1      52.678   2.973  17.813  0.00  0.00    +0.000 A 
ATOM     33  H   UNL     1      53.809   6.041  18.180  0.00  0.00    +0.000 HD
ENDBRANCH  20  23
ENDBRANCH  18  19
ENDBRANCH   4  18
TORSDOF 7
ENDMDL
