MODEL 1
REMARK VINA RESULT:    -7.657      0.000      0.000
REMARK INTER + INTRA:         -10.901
REMARK INTER:                 -10.343
REMARK INTRA:                  -0.558
REMARK UNBOUND:                -0.558
REMARK  Name = 
REMARK  7 active torsions:
REMARK  status: ('A' for Active; 'I' for Inactive)
REMARK    1  A    between atoms: C_1  and  C_2
REMARK    2  A    between atoms: C_2  and  O_3
REMARK    3  A    between atoms: O_3  and  C_4
REMARK    4  A    between atoms: C_4  and  C_6
REMARK    5  A    between atoms: C_9  and  N_10
REMARK    6  A    between atoms: N_10  and  C_11
REMARK    7  A    between atoms: C_11  and  C_12
REMARK                            x       y       z     vdW  Elec       q    Type
REMARK                         _______ _______ _______ _____ _____    ______ ____
ROOT
ATOM      1  C   UNL     1      46.324   4.594  13.480  0.00  0.00    +0.000 A 
ATOM      2  C   UNL     1      46.213   5.629  12.562  0.00  0.00    +0.000 A 
ATOM      3  C   UNL     1      45.539   5.381  11.367  0.00  0.00    +0.000 A 
ATOM      4  C   UNL     1      44.963   4.131  11.123  0.00  0.00    +0.000 A 
ATOM      5  C   UNL     1      45.153   3.160  12.108  0.00  0.00    +0.000 A 
ATOM      6  N   UNL     1      45.808   3.359  13.272  0.00  0.00    +0.000 NA
ENDROOT
BRANCH   1   7
ATOM      7  C   UNL     1      47.146   4.803  14.713  0.00  0.00    +0.000 C 
ATOM      8  O   UNL     1      48.105   5.558  14.772  0.00  0.00    +0.000 OA
BRANCH   7   9
ATOM      9  O   UNL     1      46.729   3.950  15.680  0.00  0.00    +0.000 OA
BRANCH   9  11
ATOM     10  C   UNL     1      48.387   2.707  16.855  0.00  0.00    +0.000 C 
ATOM     11  C   UNL     1      47.510   3.947  16.878  0.00  0.00    +0.000 C 
ENDBRANCH   9  11
ENDBRANCH   7   9
ENDBRANCH   1   7
BRANCH   4  12
ATOM     12  N   UNL     1      44.302   3.927   9.908  0.00  0.00    +0.000 N 
ATOM     13  H   UNL     1      44.553   4.646   9.233  0.00  0.00    +0.000 HD
BRANCH  12  14
ATOM     14  C   UNL     1      44.368   2.595   9.315  0.00  0.00    +0.000 C 
BRANCH  14  15
ATOM     15  C   UNL     1      45.514   2.517   8.338  0.00  0.00    +0.000 A 
ATOM     16  C   UNL     1      46.238   1.329   8.170  0.00  0.00    +0.000 A 
ATOM     17  C   UNL     1      47.231   1.238   7.194  0.00  0.00    +0.000 A 
ATOM     18  C   UNL     1      47.510   2.332   6.376  0.00  0.00    +0.000 A 
ATOM     19  C   UNL     1      46.809   3.524   6.543  0.00  0.00    +0.000 A 
ATOM     20  C   UNL     1      45.817   3.618   7.518  0.00  0.00    +0.000 A 
ENDBRANCH  14  15
ENDBRANCH  12  14
ENDBRANCH   4  12
TORSDOF 6
ENDMDL
MODEL 2
REMARK VINA RESULT:    -7.506      0.499      1.205
REMARK INTER + INTRA:         -10.697
REMARK INTER:                 -10.233
REMARK INTRA:                  -0.465
REMARK UNBOUND:                -0.558
REMARK  Name = 
REMARK  7 active torsions:
REMARK  status: ('A' for Active; 'I' for Inactive)
REMARK    1  A    between atoms: C_1  and  C_2
REMARK    2  A    between atoms: C_2  and  O_3
REMARK    3  A    between atoms: O_3  and  C_4
REMARK    4  A    between atoms: C_4  and  C_6
REMARK    5  A    between atoms: C_9  and  N_10
REMARK    6  A    between atoms: N_10  and  C_11
REMARK    7  A    between atoms: C_11  and  C_12
REMARK                            x       y       z     vdW  Elec       q    Type
REMARK                         _______ _______ _______ _____ _____    ______ ____
ROOT
ATOM      1  C   UNL     1      46.295   4.528  13.515  0.00  0.00    +0.000 A 
ATOM      2  C   UNL     1      46.047   5.589  12.654  0.00  0.00    +0.000 A 
ATOM      3  C   UNL     1      45.376   5.325  11.460  0.00  0.00    +0.000 A 
ATOM      4  C   UNL     1      44.937   4.032  11.162  0.00  0.00    +0.000 A 
ATOM      5  C   UNL     1      45.258   3.041  12.092  0.00  0.00    +0.000 A 
ATOM      6  N   UNL     1      45.915   3.255  13.252  0.00  0.00    +0.000 NA
ENDROOT
BRANCH   1   7
ATOM      7  C   UNL     1      47.118   4.767  14.741  0.00  0.00    +0.000 C 
ATOM      8  O   UNL     1      48.078   5.522  14.781  0.00  0.00    +0.000 OA
BRANCH   7   9
ATOM      9  O   UNL     1      46.701   3.939  15.729  0.00  0.00    +0.000 OA
BRANCH   9  11
ATOM     10  C   UNL     1      48.238   2.844  17.183  0.00  0.00    +0.000 C 
ATOM     11  C   UNL     1      47.379   4.080  16.980  0.00  0.00    +0.000 C 
ENDBRANCH   9  11
ENDBRANCH   7   9
ENDBRANCH   1   7
BRANCH   4  12
ATOM     12  N   UNL     1      44.273   3.815   9.951  0.00  0.00    +0.000 N 
ATOM     13  H   UNL     1      43.293   4.080  10.023  0.00  0.00    +0.000 HD
BRANCH  12  14
ATOM     14  C   UNL     1      44.881   4.353   8.738  0.00  0.00    +0.000 C 
BRANCH  14  15
ATOM     15  C   UNL     1      45.693   3.287   8.047  0.00  0.00    +0.000 A 
ATOM     16  C   UNL     1      46.566   3.612   6.999  0.00  0.00    +0.000 A 
ATOM     17  C   UNL     1      47.386   2.634   6.434  0.00  0.00    +0.000 A 
ATOM     18  C   UNL     1      47.343   1.324   6.909  0.00  0.00    +0.000 A 
ATOM     19  C   UNL     1      46.469   0.984   7.939  0.00  0.00    +0.000 A 
ATOM     20  C   UNL     1      45.648   1.959   8.506  0.00  0.00    +0.000 A 
ENDBRANCH  14  15
ENDBRANCH  12  14
ENDBRANCH   4  12
TORSDOF 6
ENDMDL
MODEL 3
REMARK VINA RESULT:    -7.316      1.116      1.515
REMARK INTER + INTRA:         -10.440
REMARK INTER:                  -9.905
REMARK INTRA:                  -0.535
REMARK UNBOUND:                -0.558
REMARK  Name = 
REMARK  7 active torsions:
REMARK  status: ('A' for Active; 'I' for Inactive)
REMARK    1  A    between atoms: C_1  and  C_2
REMARK    2  A    between atoms: C_2  and  O_3
REMARK    3  A    between atoms: O_3  and  C_4
REMARK    4  A    between atoms: C_4  and  C_6
REMARK    5  A    between atoms: C_9  and  N_10
REMARK    6  A    between atoms: N_10  and  C_11
REMARK    7  A    between atoms: C_11  and  C_12
REMARK                            x       y       z     vdW  Elec       q    Type
REMARK                         _______ _______ _______ _____ _____    ______ ____
ROOT
ATOM      1  C   UNL     1      46.470   4.726  13.681  0.00  0.00    +0.000 A 
ATOM      2  C   UNL     1      46.829   5.838  12.931  0.00  0.00    +0.000 A 
ATOM      3  C   UNL     1      46.311   5.959  11.643  0.00  0.00    +0.000 A 
ATOM      4  C   UNL     1      45.427   5.001  11.140  0.00  0.00    +0.000 A 
ATOM      5  C   UNL     1      45.151   3.916  11.974  0.00  0.00    +0.000 A 
ATOM      6  N   UNL     1      45.641   3.758  13.222  0.00  0.00    +0.000 NA
ENDROOT
BRANCH   1   7
ATOM      7  C   UNL     1      47.109   4.516  15.018  0.00  0.00    +0.000 C 
ATOM      8  O   UNL     1      46.770   3.646  15.806  0.00  0.00    +0.000 OA
BRANCH   7   9
ATOM      9  O   UNL     1      48.015   5.498  15.241  0.00  0.00    +0.000 OA
BRANCH   9  11
ATOM     10  C   UNL     1      48.967   6.903  16.913  0.00  0.00    +0.000 C 
ATOM     11  C   UNL     1      48.655   5.470  16.520  0.00  0.00    +0.000 C 
ENDBRANCH   9  11
ENDBRANCH   7   9
ENDBRANCH   1   7
BRANCH   4  12
ATOM     12  N   UNL     1      44.937   5.162   9.840  0.00  0.00    +0.000 N 
ATOM     13  H   UNL     1      45.633   5.603   9.243  0.00  0.00    +0.000 HD
BRANCH  12  14
ATOM     14  C   UNL     1      44.340   3.999   9.191  0.00  0.00    +0.000 C 
BRANCH  14  15
ATOM     15  C   UNL     1      45.395   3.222   8.445  0.00  0.00    +0.000 A 
ATOM     16  C   UNL     1      45.588   1.855   8.686  0.00  0.00    +0.000 A 
ATOM     17  C   UNL     1      46.498   1.123   7.920  0.00  0.00    +0.000 A 
ATOM     18  C   UNL     1      47.221   1.749   6.906  0.00  0.00    +0.000 A 
ATOM     19  C   UNL     1      47.050   3.111   6.666  0.00  0.00    +0.000 A 
ATOM     20  C   UNL     1      46.142   3.844   7.430  0.00  0.00    +0.000 A 
ENDBRANCH  14  15
ENDBRANCH  12  14
ENDBRANCH   4  12
TORSDOF 6
ENDMDL
MODEL 4
REMARK VINA RESULT:    -6.713      3.291      6.769
REMARK INTER + INTRA:          -9.626
REMARK INTER:                  -8.923
REMARK INTRA:                  -0.702
REMARK UNBOUND:                -0.558
REMARK  Name = 
REMARK  7 active torsions:
REMARK  status: ('A' for Active; 'I' for Inactive)
REMARK    1  A    between atoms: C_1  and  C_2
REMARK    2  A    between atoms: C_2  and  O_3
REMARK    3  A    between atoms: O_3  and  C_4
REMARK    4  A    between atoms: C_4  and  C_6
REMARK    5  A    between atoms: C_9  and  N_10
REMARK    6  A    between atoms: N_10  and  C_11
REMARK    7  A    between atoms: C_11  and  C_12
REMARK                            x       y       z     vdW  Elec       q    Type
REMARK                         _______ _______ _______ _____ _____    ______ ____
ROOT
ATOM      1  C   UNL     1      45.685   2.537   8.766  0.00  0.00    +0.000 A 
ATOM      2  C   UNL     1      45.832   3.884   8.462  0.00  0.00    +0.000 A 
ATOM      3  C   UNL     1      44.996   4.798   9.101  0.00  0.00    +0.000 A 
ATOM      4  C   UNL     1      44.062   4.366  10.047  0.00  0.00    +0.000 A 
ATOM      5  C   UNL     1      43.989   2.989  10.259  0.00  0.00    +0.000 A 
ATOM      6  N   UNL     1      44.773   2.071   9.652  0.00  0.00    +0.000 NA
ENDROOT
BRANCH   1   7
ATOM      7  C   UNL     1      46.488   1.530   8.003  0.00  0.00    +0.000 C 
ATOM      8  O   UNL     1      46.282   0.326   8.039  0.00  0.00    +0.000 OA
BRANCH   7   9
ATOM      9  O   UNL     1      47.518   2.154   7.383  0.00  0.00    +0.000 OA
BRANCH   9  11
ATOM     10  C   UNL     1      46.977   2.963   5.209  0.00  0.00    +0.000 C 
ATOM     11  C   UNL     1      47.670   1.862   5.992  0.00  0.00    +0.000 C 
ENDBRANCH   9  11
ENDBRANCH   7   9
ENDBRANCH   1   7
BRANCH   4  12
ATOM     12  N   UNL     1      43.241   5.320  10.658  0.00  0.00    +0.000 N 
ATOM     13  H   UNL     1      42.284   5.242  10.323  0.00  0.00    +0.000 HD
BRANCH  12  14
ATOM     14  C   UNL     1      43.289   5.423  12.112  0.00  0.00    +0.000 C 
BRANCH  14  15
ATOM     15  C   UNL     1      44.689   5.757  12.564  0.00  0.00    +0.000 A 
ATOM     16  C   UNL     1      45.232   7.031  12.349  0.00  0.00    +0.000 A 
ATOM     17  C   UNL     1      46.489   7.359  12.859  0.00  0.00    +0.000 A 
ATOM     18  C   UNL     1      47.215   6.419  13.589  0.00  0.00    +0.000 A 
ATOM     19  C   UNL     1      46.695   5.144  13.796  0.00  0.00    +0.000 A 
ATOM     20  C   UNL     1      45.439   4.813  13.287  0.00  0.00    +0.000 A 
ENDBRANCH  14  15
ENDBRANCH  12  14
ENDBRANCH   4  12
TORSDOF 6
ENDMDL
MODEL 5
REMARK VINA RESULT:    -6.622      1.713      2.852
REMARK INTER + INTRA:          -9.503
REMARK INTER:                  -8.854
REMARK INTRA:                  -0.648
REMARK UNBOUND:                -0.558
REMARK  Name = 
REMARK  7 active torsions:
REMARK  status: ('A' for Active; 'I' for Inactive)
REMARK    1  A    between atoms: C_1  and  C_2
REMARK    2  A    between atoms: C_2  and  O_3
REMARK    3  A    between atoms: O_3  and  C_4
REMARK    4  A    between atoms: C_4  and  C_6
REMARK    5  A    between atoms: C_9  and  N_10
REMARK    6  A    between atoms: N_10  and  C_11
REMARK    7  A    between atoms: C_11  and  C_12
REMARK                            x       y       z     vdW  Elec       q    Type
REMARK                         _______ _______ _______ _____ _____    ______ ____
ROOT
ATOM      1  C   UNL     1      47.005   5.421  13.347  0.00  0.00    +0.000 A 
ATOM      2  C   UNL     1      46.728   4.078  13.565  0.00  0.00    +0.000 A 
ATOM      3  C   UNL     1      45.820   3.445  12.718  0.00  0.00    +0.000 A 
ATOM      4  C   UNL     1      45.235   4.142  11.657  0.00  0.00    +0.000 A 
ATOM      5  C   UNL     1      45.571   5.492  11.543  0.00  0.00    +0.000 A 
ATOM      6  N   UNL     1      46.437   6.142  12.350  0.00  0.00    +0.000 NA
ENDROOT
BRANCH   1   7
ATOM      7  C   UNL     1      47.881   6.148  14.317  0.00  0.00    +0.000 C 
ATOM      8  O   UNL     1      48.271   5.672  15.373  0.00  0.00    +0.000 OA
BRANCH   7   9
ATOM      9  O   UNL     1      48.061   7.421  13.891  0.00  0.00    +0.000 OA
BRANCH   9  11
ATOM     10  C   UNL     1      49.512   7.933  12.071  0.00  0.00    +0.000 C 
ATOM     11  C   UNL     1      49.409   7.784  13.579  0.00  0.00    +0.000 C 
ENDBRANCH   9  11
ENDBRANCH   7   9
ENDBRANCH   1   7
BRANCH   4  12
ATOM     12  N   UNL     1      44.326   3.467  10.836  0.00  0.00    +0.000 N 
ATOM     13  H   UNL     1      43.413   3.403  11.281  0.00  0.00    +0.000 HD
BRANCH  12  14
ATOM     14  C   UNL     1      44.211   3.904   9.449  0.00  0.00    +0.000 C 
BRANCH  14  15
ATOM     15  C   UNL     1      45.216   3.178   8.590  0.00  0.00    +0.000 A 
ATOM     16  C   UNL     1      46.014   3.874   7.671  0.00  0.00    +0.000 A 
ATOM     17  C   UNL     1      47.009   3.208   6.953  0.00  0.00    +0.000 A 
ATOM     18  C   UNL     1      47.217   1.843   7.147  0.00  0.00    +0.000 A 
ATOM     19  C   UNL     1      46.421   1.137   8.045  0.00  0.00    +0.000 A 
ATOM     20  C   UNL     1      45.425   1.800   8.763  0.00  0.00    +0.000 A 
ENDBRANCH  14  15
ENDBRANCH  12  14
ENDBRANCH   4  12
TORSDOF 6
ENDMDL
MODEL 6
REMARK VINA RESULT:    -6.377      2.921      3.847
REMARK INTER + INTRA:          -9.172
REMARK INTER:                  -8.802
REMARK INTRA:                  -0.371
REMARK UNBOUND:                -0.558
REMARK  Name = 
REMARK  7 active torsions:
REMARK  status: ('A' for Active; 'I' for Inactive)
REMARK    1  A    between atoms: C_1  and  C_2
REMARK    2  A    between atoms: C_2  and  O_3
REMARK    3  A    between atoms: O_3  and  C_4
REMARK    4  A    between atoms: C_4  and  C_6
REMARK    5  A    between atoms: C_9  and  N_10
REMARK    6  A    between atoms: N_10  and  C_11
REMARK    7  A    between atoms: C_11  and  C_12
REMARK                            x       y       z     vdW  Elec       q    Type
REMARK                         _______ _______ _______ _____ _____    ______ ____
ROOT
ATOM      1  C   UNL     1      45.422   6.882  11.991  0.00  0.00    +0.000 A 
ATOM      2  C   UNL     1      44.090   6.496  12.065  0.00  0.00    +0.000 A 
ATOM      3  C   UNL     1      43.613   5.590  11.119  0.00  0.00    +0.000 A 
ATOM      4  C   UNL     1      44.467   5.063  10.146  0.00  0.00    +0.000 A 
ATOM      5  C   UNL     1      45.780   5.536  10.155  0.00  0.00    +0.000 A 
ATOM      6  N   UNL     1      46.276   6.420  11.047  0.00  0.00    +0.000 NA
ENDROOT
BRANCH   1   7
ATOM      7  C   UNL     1      45.922   7.943  12.920  0.00  0.00    +0.000 C 
ATOM      8  O   UNL     1      46.858   7.789  13.689  0.00  0.00    +0.000 OA
BRANCH   7   9
ATOM      9  O   UNL     1      45.108   9.024  12.845  0.00  0.00    +0.000 OA
BRANCH   9  11
ATOM     10  C   UNL     1      44.112  10.679  11.452  0.00  0.00    +0.000 C 
ATOM     11  C   UNL     1      45.397   9.942  11.787  0.00  0.00    +0.000 C 
ENDBRANCH   9  11
ENDBRANCH   7   9
ENDBRANCH   1   7
BRANCH   4  12
ATOM     12  N   UNL     1      43.941   4.161   9.215  0.00  0.00    +0.000 N 
ATOM     13  H   UNL     1      44.023   4.529   8.269  0.00  0.00    +0.000 HD
BRANCH  12  14
ATOM     14  C   UNL     1      44.388   2.775   9.287  0.00  0.00    +0.000 C 
BRANCH  14  15
ATOM     15  C   UNL     1      45.477   2.526   8.274  0.00  0.00    +0.000 A 
ATOM     16  C   UNL     1      46.168   1.306   8.243  0.00  0.00    +0.000 A 
ATOM     17  C   UNL     1      47.104   1.049   7.240  0.00  0.00    +0.000 A 
ATOM     18  C   UNL     1      47.359   2.006   6.259  0.00  0.00    +0.000 A 
ATOM     19  C   UNL     1      46.691   3.228   6.287  0.00  0.00    +0.000 A 
ATOM     20  C   UNL     1      45.756   3.488   7.288  0.00  0.00    +0.000 A 
ENDBRANCH  14  15
ENDBRANCH  12  14
ENDBRANCH   4  12
TORSDOF 6
ENDMDL
MODEL 7
REMARK VINA RESULT:    -6.355      1.994      2.612
REMARK INTER + INTRA:          -9.142
REMARK INTER:                  -8.498
REMARK INTRA:                  -0.643
REMARK UNBOUND:                -0.558
REMARK  Name = 
REMARK  7 active torsions:
REMARK  status: ('A' for Active; 'I' for Inactive)
REMARK    1  A    between atoms: C_1  and  C_2
REMARK    2  A    between atoms: C_2  and  O_3
REMARK    3  A    between atoms: O_3  and  C_4
REMARK    4  A    between atoms: C_4  and  C_6
REMARK    5  A    between atoms: C_9  and  N_10
REMARK    6  A    between atoms: N_10  and  C_11
REMARK    7  A    between atoms: C_11  and  C_12
REMARK                            x       y       z     vdW  Elec       q    Type
REMARK                         _______ _______ _______ _____ _____    ______ ____
ROOT
ATOM      1  C   UNL     1      47.535   6.172  13.092  0.00  0.00    +0.000 A 
ATOM      2  C   UNL     1      46.779   6.733  12.071  0.00  0.00    +0.000 A 
ATOM      3  C   UNL     1      45.722   5.989  11.549  0.00  0.00    +0.000 A 
ATOM      4  C   UNL     1      45.417   4.727  12.068  0.00  0.00    +0.000 A 
ATOM      5  C   UNL     1      46.255   4.256  13.080  0.00  0.00    +0.000 A 
ATOM      6  N   UNL     1      47.294   4.941  13.603  0.00  0.00    +0.000 NA
ENDROOT
BRANCH   1   7
ATOM      7  C   UNL     1      48.746   6.902  13.582  0.00  0.00    +0.000 C 
ATOM      8  O   UNL     1      49.267   7.834  12.988  0.00  0.00    +0.000 OA
BRANCH   7   9
ATOM      9  O   UNL     1      49.216   6.293  14.697  0.00  0.00    +0.000 OA
BRANCH   9  11
ATOM     10  C   UNL     1      48.817   7.722  16.561  0.00  0.00    +0.000 C 
ATOM     11  C   UNL     1      49.875   7.146  15.636  0.00  0.00    +0.000 C 
ENDBRANCH   9  11
ENDBRANCH   7   9
ENDBRANCH   1   7
BRANCH   4  12
ATOM     12  N   UNL     1      44.351   4.016  11.509  0.00  0.00    +0.000 N 
ATOM     13  H   UNL     1      43.547   4.018  12.133  0.00  0.00    +0.000 HD
BRANCH  12  14
ATOM     14  C   UNL     1      43.963   4.340  10.141  0.00  0.00    +0.000 C 
BRANCH  14  15
ATOM     15  C   UNL     1      44.846   3.608   9.162  0.00  0.00    +0.000 A 
ATOM     16  C   UNL     1      45.619   4.307   8.225  0.00  0.00    +0.000 A 
ATOM     17  C   UNL     1      46.507   3.626   7.391  0.00  0.00    +0.000 A 
ATOM     18  C   UNL     1      46.632   2.241   7.486  0.00  0.00    +0.000 A 
ATOM     19  C   UNL     1      45.859   1.531   8.401  0.00  0.00    +0.000 A 
ATOM     20  C   UNL     1      44.970   2.210   9.235  0.00  0.00    +0.000 A 
ENDBRANCH  14  15
ENDBRANCH  12  14
ENDBRANCH   4  12
TORSDOF 6
ENDMDL
MODEL 8
REMARK VINA RESULT:    -5.987      3.578      6.489
REMARK INTER + INTRA:          -8.646
REMARK INTER:                  -8.029
REMARK INTRA:                  -0.617
REMARK UNBOUND:                -0.558
REMARK  Name = 
REMARK  7 active torsions:
REMARK  status: ('A' for Active; 'I' for Inactive)
REMARK    1  A    between atoms: C_1  and  C_2
REMARK    2  A    between atoms: C_2  and  O_3
REMARK    3  A    between atoms: O_3  and  C_4
REMARK    4  A    between atoms: C_4  and  C_6
REMARK    5  A    between atoms: C_9  and  N_10
REMARK    6  A    between atoms: N_10  and  C_11
REMARK    7  A    between atoms: C_11  and  C_12
REMARK                            x       y       z     vdW  Elec       q    Type
REMARK                         _______ _______ _______ _____ _____    ______ ____
ROOT
ATOM      1  C   UNL     1      44.669   3.896  11.655  0.00  0.00    +0.000 A 
ATOM      2  C   UNL     1      44.853   5.155  11.100  0.00  0.00    +0.000 A 
ATOM      3  C   UNL     1      45.648   6.069  11.789  0.00  0.00    +0.000 A 
ATOM      4  C   UNL     1      46.268   5.709  12.989  0.00  0.00    +0.000 A 
ATOM      5  C   UNL     1      45.999   4.424  13.462  0.00  0.00    +0.000 A 
ATOM      6  N   UNL     1      45.226   3.515  12.830  0.00  0.00    +0.000 NA
ENDROOT
BRANCH   1   7
ATOM      7  C   UNL     1      43.724   2.943  10.994  0.00  0.00    +0.000 C 
ATOM      8  O   UNL     1      42.976   2.193  11.603  0.00  0.00    +0.000 OA
BRANCH   7   9
ATOM      9  O   UNL     1      43.921   2.972   9.654  0.00  0.00    +0.000 OA
BRANCH   9  11
ATOM     10  C   UNL     1      45.699   2.830   8.075  0.00  0.00    +0.000 C 
ATOM     11  C   UNL     1      44.935   2.093   9.160  0.00  0.00    +0.000 C 
ENDBRANCH   9  11
ENDBRANCH   7   9
ENDBRANCH   1   7
BRANCH   4  12
ATOM     12  N   UNL     1      47.053   6.662  13.647  0.00  0.00    +0.000 N 
ATOM     13  H   UNL     1      48.021   6.354  13.708  0.00  0.00    +0.000 HD
BRANCH  12  14
ATOM     14  C   UNL     1      46.962   8.045  13.194  0.00  0.00    +0.000 C 
BRANCH  14  15
ATOM     15  C   UNL     1      48.255   8.466  12.543  0.00  0.00    +0.000 A 
ATOM     16  C   UNL     1      49.297   7.548  12.350  0.00  0.00    +0.000 A 
ATOM     17  C   UNL     1      50.450   7.922  11.658  0.00  0.00    +0.000 A 
ATOM     18  C   UNL     1      50.573   9.215  11.151  0.00  0.00    +0.000 A 
ATOM     19  C   UNL     1      49.552  10.141  11.348  0.00  0.00    +0.000 A 
ATOM     20  C   UNL     1      48.399   9.770  12.040  0.00  0.00    +0.000 A 
ENDBRANCH  14  15
ENDBRANCH  12  14
ENDBRANCH   4  12
TORSDOF 6
ENDMDL
MODEL 9
REMARK VINA RESULT:    -5.440      2.055      3.211
REMARK INTER + INTRA:          -7.906
REMARK INTER:                  -7.431
REMARK INTRA:                  -0.475
REMARK UNBOUND:                -0.558
REMARK  Name = 
REMARK  7 active torsions:
REMARK  status: ('A' for Active; 'I' for Inactive)
REMARK    1  A    between atoms: C_1  and  C_2
REMARK    2  A    between atoms: C_2  and  O_3
REMARK    3  A    between atoms: O_3  and  C_4
REMARK    4  A    between atoms: C_4  and  C_6
REMARK    5  A    between atoms: C_9  and  N_10
REMARK    6  A    between atoms: N_10  and  C_11
REMARK    7  A    between atoms: C_11  and  C_12
REMARK                            x       y       z     vdW  Elec       q    Type
REMARK                         _______ _______ _______ _____ _____    ______ ____
ROOT
ATOM      1  C   UNL     1      48.171   5.845  15.303  0.00  0.00    +0.000 A 
ATOM      2  C   UNL     1      48.246   7.008  14.547  0.00  0.00    +0.000 A 
ATOM      3  C   UNL     1      47.572   7.044  13.327  0.00  0.00    +0.000 A 
ATOM      4  C   UNL     1      46.815   5.949  12.901  0.00  0.00    +0.000 A 
ATOM      5  C   UNL     1      46.826   4.828  13.732  0.00  0.00    +0.000 A 
ATOM      6  N   UNL     1      47.475   4.750  14.914  0.00  0.00    +0.000 NA
ENDROOT
BRANCH   1   7
ATOM      7  C   UNL     1      48.984   5.741  16.555  0.00  0.00    +0.000 C 
ATOM      8  O   UNL     1      49.739   4.813  16.802  0.00  0.00    +0.000 OA
BRANCH   7   9
ATOM      9  O   UNL     1      48.658   6.759  17.387  0.00  0.00    +0.000 OA
BRANCH   9  11
ATOM     10  C   UNL     1      47.100   5.876  18.958  0.00  0.00    +0.000 C 
ATOM     11  C   UNL     1      48.510   6.407  18.765  0.00  0.00    +0.000 C 
ENDBRANCH   9  11
ENDBRANCH   7   9
ENDBRANCH   1   7
BRANCH   4  12
ATOM     12  N   UNL     1      46.160   6.031  11.667  0.00  0.00    +0.000 N 
ATOM     13  H   UNL     1      46.810   5.868  10.901  0.00  0.00    +0.000 HD
BRANCH  12  14
ATOM     14  C   UNL     1      44.934   5.258  11.498  0.00  0.00    +0.000 C 
BRANCH  14  15
ATOM     15  C   UNL     1      45.019   4.416  10.249  0.00  0.00    +0.000 A 
ATOM     16  C   UNL     1      45.630   4.909   9.088  0.00  0.00    +0.000 A 
ATOM     17  C   UNL     1      45.790   4.088   7.971  0.00  0.00    +0.000 A 
ATOM     18  C   UNL     1      45.344   2.767   8.003  0.00  0.00    +0.000 A 
ATOM     19  C   UNL     1      44.721   2.270   9.145  0.00  0.00    +0.000 A 
ATOM     20  C   UNL     1      44.559   3.088  10.263  0.00  0.00    +0.000 A 
ENDBRANCH  14  15
ENDBRANCH  12  14
ENDBRANCH   4  12
TORSDOF 6
ENDMDL
