MODEL 1
REMARK VINA RESULT:    -8.770      0.000      0.000
REMARK INTER + INTRA:         -12.178
REMARK INTER:                 -11.333
REMARK INTRA:                  -0.845
REMARK UNBOUND:                -0.845
REMARK  Name = 
REMARK  5 active torsions:
REMARK  status: ('A' for Active; 'I' for Inactive)
REMARK    1  A    between atoms: C_2  and  C_4
REMARK    2  A    between atoms: C_7  and  O_8
REMARK    3  A    between atoms: O_8  and  C_9
REMARK    4  A    between atoms: C_9  and  C_10
REMARK    5  A    between atoms: C_14  and  C_15
REMARK                            x       y       z     vdW  Elec       q    Type
REMARK                         _______ _______ _______ _____ _____    ______ ____
ROOT
ATOM      1  C   UNL     1      43.488   4.950  10.893  0.00  0.00    +0.000 C 
ENDROOT
BRANCH   1   2
ATOM      2  C   UNL     1      44.687   5.089  11.789  0.00  0.00    +0.000 A 
ATOM      3  C   UNL     1      44.797   4.317  12.938  0.00  0.00    +0.000 A 
ATOM      4  N   UNL     1      45.801   4.417  13.828  0.00  0.00    +0.000 NA
ATOM      5  C   UNL     1      46.745   5.350  13.567  0.00  0.00    +0.000 A 
ATOM      6  C   UNL     1      46.748   6.206  12.467  0.00  0.00    +0.000 A 
ATOM      7  C   UNL     1      45.684   6.049  11.564  0.00  0.00    +0.000 A 
BRANCH   6   8
ATOM      8  C   UNL     1      47.769   7.254  12.296  0.00  0.00    +0.000 A 
ATOM      9  C   UNL     1      49.140   6.958  12.341  0.00  0.00    +0.000 A 
ATOM     10  C   UNL     1      50.104   7.932  12.078  0.00  0.00    +0.000 A 
ATOM     11  C   UNL     1      49.707   9.232  11.764  0.00  0.00    +0.000 A 
ATOM     12  C   UNL     1      48.357   9.558  11.745  0.00  0.00    +0.000 A 
ATOM     13 CL   UNL     1      47.861  11.151  11.335  0.00  0.00    +0.000 Cl
ATOM     14  C   UNL     1      47.394   8.586  12.021  0.00  0.00    +0.000 A 
ENDBRANCH   6   8
ENDBRANCH   1   2
BRANCH   1  15
ATOM     15  O   UNL     1      43.480   3.659  10.284  0.00  0.00    +0.000 OA
BRANCH  15  19
ATOM     16  C   UNL     1      46.477   2.604   7.587  0.00  0.00    +0.000 A 
ATOM     17  C   UNL     1      46.007   3.921   7.577  0.00  0.00    +0.000 A 
ATOM     18  C   UNL     1      45.004   4.317   8.467  0.00  0.00    +0.000 A 
ATOM     19  C   UNL     1      44.466   3.400   9.373  0.00  0.00    +0.000 A 
ATOM     20  C   UNL     1      44.934   2.084   9.377  0.00  0.00    +0.000 A 
ATOM     21  C   UNL     1      45.932   1.682   8.486  0.00  0.00    +0.000 A 
BRANCH  16  23
ATOM     22  N   UNL     1      47.578   2.775   5.426  0.00  0.00    +0.000 N 
ATOM     23  C   UNL     1      47.517   2.140   6.635  0.00  0.00    +0.000 C 
ATOM     24  O   UNL     1      48.304   1.251   6.923  0.00  0.00    +0.000 OA
ATOM     25  H   UNL     1      48.352   2.519   4.826  0.00  0.00    +0.000 HD
ATOM     26  H   UNL     1      47.131   3.665   5.260  0.00  0.00    +0.000 HD
ENDBRANCH  16  23
ENDBRANCH  15  19
ENDBRANCH   1  15
TORSDOF 5
ENDMDL
MODEL 2
REMARK VINA RESULT:    -8.755      1.178      1.791
REMARK INTER + INTRA:         -12.159
REMARK INTER:                 -11.308
REMARK INTRA:                  -0.851
REMARK UNBOUND:                -0.845
REMARK  Name = 
REMARK  5 active torsions:
REMARK  status: ('A' for Active; 'I' for Inactive)
REMARK    1  A    between atoms: C_2  and  C_4
REMARK    2  A    between atoms: C_7  and  O_8
REMARK    3  A    between atoms: O_8  and  C_9
REMARK    4  A    between atoms: C_9  and  C_10
REMARK    5  A    between atoms: C_14  and  C_15
REMARK                            x       y       z     vdW  Elec       q    Type
REMARK                         _______ _______ _______ _____ _____    ______ ____
ROOT
ATOM      1  C   UNL     1      43.486   4.544  11.312  0.00  0.00    +0.000 C 
ENDROOT
BRANCH   1   2
ATOM      2  C   UNL     1      44.735   4.911  12.064  0.00  0.00    +0.000 A 
ATOM      3  C   UNL     1      45.077   4.233  13.227  0.00  0.00    +0.000 A 
ATOM      4  N   UNL     1      46.140   4.531  13.997  0.00  0.00    +0.000 NA
ATOM      5  C   UNL     1      46.899   5.576  13.593  0.00  0.00    +0.000 A 
ATOM      6  C   UNL     1      46.661   6.356  12.464  0.00  0.00    +0.000 A 
ATOM      7  C   UNL     1      45.546   5.992  11.690  0.00  0.00    +0.000 A 
BRANCH   6   8
ATOM      8  C   UNL     1      47.487   7.530  12.137  0.00  0.00    +0.000 A 
ATOM      9  C   UNL     1      46.977   8.835  12.224  0.00  0.00    +0.000 A 
ATOM     10  C   UNL     1      47.788   9.950  12.013  0.00  0.00    +0.000 A 
ATOM     11  C   UNL     1      49.137   9.776  11.706  0.00  0.00    +0.000 A 
ATOM     12  C   UNL     1      49.660   8.495  11.583  0.00  0.00    +0.000 A 
ATOM     13 CL   UNL     1      51.327   8.274  11.230  0.00  0.00    +0.000 Cl
ATOM     14  C   UNL     1      48.844   7.380  11.782  0.00  0.00    +0.000 A 
ENDBRANCH   6   8
ENDBRANCH   1   2
BRANCH   1  15
ATOM     15  O   UNL     1      43.685   4.733   9.911  0.00  0.00    +0.000 OA
BRANCH  15  19
ATOM     16  C   UNL     1      46.275   2.199   7.852  0.00  0.00    +0.000 A 
ATOM     17  C   UNL     1      45.366   1.632   8.753  0.00  0.00    +0.000 A 
ATOM     18  C   UNL     1      44.478   2.447   9.462  0.00  0.00    +0.000 A 
ATOM     19  C   UNL     1      44.492   3.831   9.276  0.00  0.00    +0.000 A 
ATOM     20  C   UNL     1      45.404   4.394   8.379  0.00  0.00    +0.000 A 
ATOM     21  C   UNL     1      46.296   3.585   7.672  0.00  0.00    +0.000 A 
BRANCH  16  23
ATOM     22  N   UNL     1      48.372   1.998   6.638  0.00  0.00    +0.000 N 
ATOM     23  C   UNL     1      47.253   1.369   7.106  0.00  0.00    +0.000 C 
ATOM     24  O   UNL     1      47.085   0.169   6.940  0.00  0.00    +0.000 OA
ATOM     25  H   UNL     1      49.077   1.403   6.220  0.00  0.00    +0.000 HD
ATOM     26  H   UNL     1      48.665   2.903   6.977  0.00  0.00    +0.000 HD
ENDBRANCH  16  23
ENDBRANCH  15  19
ENDBRANCH   1  15
TORSDOF 5
ENDMDL
MODEL 3
REMARK VINA RESULT:    -8.380      2.817      3.632
REMARK INTER + INTRA:         -11.675
REMARK INTER:                 -10.950
REMARK INTRA:                  -0.724
REMARK UNBOUND:                -0.845
REMARK  Name = 
REMARK  5 active torsions:
REMARK  status: ('A' for Active; 'I' for Inactive)
REMARK    1  A    between atoms: C_2  and  C_4
REMARK    2  A    between atoms: C_7  and  O_8
REMARK    3  A    between atoms: O_8  and  C_9
REMARK    4  A    between atoms: C_9  and  C_10
REMARK    5  A    between atoms: C_14  and  C_15
REMARK                            x       y       z     vdW  Elec       q    Type
REMARK                         _______ _______ _______ _____ _____    ______ ____
ROOT
ATOM      1  C   UNL     1      43.773   4.402  11.360  0.00  0.00    +0.000 C 
ENDROOT
BRANCH   1   2
ATOM      2  C   UNL     1      44.762   5.358  11.964  0.00  0.00    +0.000 A 
ATOM      3  C   UNL     1      45.017   6.581  11.356  0.00  0.00    +0.000 A 
ATOM      4  N   UNL     1      45.927   7.472  11.791  0.00  0.00    +0.000 NA
ATOM      5  C   UNL     1      46.636   7.119  12.888  0.00  0.00    +0.000 A 
ATOM      6  C   UNL     1      46.500   5.919  13.583  0.00  0.00    +0.000 A 
ATOM      7  C   UNL     1      45.527   5.032  13.094  0.00  0.00    +0.000 A 
BRANCH   6   8
ATOM      8  C   UNL     1      47.369   5.573  14.721  0.00  0.00    +0.000 A 
ATOM      9  C   UNL     1      48.388   6.435  15.156  0.00  0.00    +0.000 A 
ATOM     10  C   UNL     1      49.142   6.153  16.295  0.00  0.00    +0.000 A 
ATOM     11  C   UNL     1      48.888   4.993  17.025  0.00  0.00    +0.000 A 
ATOM     12  C   UNL     1      47.907   4.108  16.597  0.00  0.00    +0.000 A 
ATOM     13 CL   UNL     1      47.571   2.689  17.507  0.00  0.00    +0.000 Cl
ATOM     14  C   UNL     1      47.160   4.384  15.450  0.00  0.00    +0.000 A 
ENDBRANCH   6   8
ENDBRANCH   1   2
BRANCH   1  15
ATOM     15  O   UNL     1      43.712   4.590   9.946  0.00  0.00    +0.000 OA
BRANCH  15  19
ATOM     16  C   UNL     1      46.425   2.317   7.745  0.00  0.00    +0.000 A 
ATOM     17  C   UNL     1      46.465   3.710   7.616  0.00  0.00    +0.000 A 
ATOM     18  C   UNL     1      45.574   4.509   8.339  0.00  0.00    +0.000 A 
ATOM     19  C   UNL     1      44.639   3.923   9.194  0.00  0.00    +0.000 A 
ATOM     20  C   UNL     1      44.598   2.531   9.317  0.00  0.00    +0.000 A 
ATOM     21  C   UNL     1      45.482   1.728   8.593  0.00  0.00    +0.000 A 
BRANCH  16  23
ATOM     22  N   UNL     1      48.406   2.029   6.365  0.00  0.00    +0.000 N 
ATOM     23  C   UNL     1      47.333   1.436   6.968  0.00  0.00    +0.000 C 
ATOM     24  O   UNL     1      47.150   0.230   6.891  0.00  0.00    +0.000 OA
ATOM     25  H   UNL     1      49.071   1.406   5.924  0.00  0.00    +0.000 HD
ATOM     26  H   UNL     1      48.728   2.952   6.621  0.00  0.00    +0.000 HD
ENDBRANCH  16  23
ENDBRANCH  15  19
ENDBRANCH   1  15
TORSDOF 5
ENDMDL
MODEL 4
REMARK VINA RESULT:    -8.351      1.808      2.331
REMARK INTER + INTRA:         -11.636
REMARK INTER:                 -10.764
REMARK INTRA:                  -0.872
REMARK UNBOUND:                -0.845
REMARK  Name = 
REMARK  5 active torsions:
REMARK  status: ('A' for Active; 'I' for Inactive)
REMARK    1  A    between atoms: C_2  and  C_4
REMARK    2  A    between atoms: C_7  and  O_8
REMARK    3  A    between atoms: O_8  and  C_9
REMARK    4  A    between atoms: C_9  and  C_10
REMARK    5  A    between atoms: C_14  and  C_15
REMARK                            x       y       z     vdW  Elec       q    Type
REMARK                         _______ _______ _______ _____ _____    ______ ____
ROOT
ATOM      1  C   UNL     1      43.892   3.587  11.544  0.00  0.00    +0.000 C 
ENDROOT
BRANCH   1   2
ATOM      2  C   UNL     1      44.381   5.002  11.678  0.00  0.00    +0.000 A 
ATOM      3  C   UNL     1      43.551   6.065  11.348  0.00  0.00    +0.000 A 
ATOM      4  N   UNL     1      43.922   7.359  11.380  0.00  0.00    +0.000 NA
ATOM      5  C   UNL     1      45.199   7.608  11.747  0.00  0.00    +0.000 A 
ATOM      6  C   UNL     1      46.144   6.641  12.082  0.00  0.00    +0.000 A 
ATOM      7  C   UNL     1      45.699   5.308  12.046  0.00  0.00    +0.000 A 
BRANCH   6   8
ATOM      8  C   UNL     1      47.542   6.988  12.392  0.00  0.00    +0.000 A 
ATOM      9  C   UNL     1      48.356   7.655  11.463  0.00  0.00    +0.000 A 
ATOM     10  C   UNL     1      49.645   8.073  11.794  0.00  0.00    +0.000 A 
ATOM     11  C   UNL     1      50.146   7.827  13.072  0.00  0.00    +0.000 A 
ATOM     12  C   UNL     1      49.373   7.141  13.999  0.00  0.00    +0.000 A 
ATOM     13 CL   UNL     1      49.975   6.857  15.583  0.00  0.00    +0.000 Cl
ATOM     14  C   UNL     1      48.087   6.711  13.663  0.00  0.00    +0.000 A 
ENDBRANCH   6   8
ENDBRANCH   1   2
BRANCH   1  15
ATOM     15  O   UNL     1      43.471   3.341  10.202  0.00  0.00    +0.000 OA
BRANCH  15  19
ATOM     16  C   UNL     1      46.413   2.468   7.384  0.00  0.00    +0.000 A 
ATOM     17  C   UNL     1      46.047   1.470   8.294  0.00  0.00    +0.000 A 
ATOM     18  C   UNL     1      45.062   1.721   9.254  0.00  0.00    +0.000 A 
ATOM     19  C   UNL     1      44.437   2.969   9.310  0.00  0.00    +0.000 A 
ATOM     20  C   UNL     1      44.809   3.964   8.403  0.00  0.00    +0.000 A 
ATOM     21  C   UNL     1      45.796   3.720   7.445  0.00  0.00    +0.000 A 
BRANCH  16  23
ATOM     22  N   UNL     1      47.510   3.103   5.308  0.00  0.00    +0.000 N 
ATOM     23  C   UNL     1      47.478   2.247   6.373  0.00  0.00    +0.000 C 
ATOM     24  O   UNL     1      48.308   1.358   6.495  0.00  0.00    +0.000 OA
ATOM     25  H   UNL     1      48.298   3.005   4.680  0.00  0.00    +0.000 HD
ATOM     26  H   UNL     1      47.020   3.987   5.311  0.00  0.00    +0.000 HD
ENDBRANCH  16  23
ENDBRANCH  15  19
ENDBRANCH   1  15
TORSDOF 5
ENDMDL
MODEL 5
REMARK VINA RESULT:    -7.981      3.909      7.357
REMARK INTER + INTRA:         -11.158
REMARK INTER:                 -10.662
REMARK INTRA:                  -0.496
REMARK UNBOUND:                -0.845
REMARK  Name = 
REMARK  5 active torsions:
REMARK  status: ('A' for Active; 'I' for Inactive)
REMARK    1  A    between atoms: C_2  and  C_4
REMARK    2  A    between atoms: C_7  and  O_8
REMARK    3  A    between atoms: O_8  and  C_9
REMARK    4  A    between atoms: C_9  and  C_10
REMARK    5  A    between atoms: C_14  and  C_15
REMARK                            x       y       z     vdW  Elec       q    Type
REMARK                         _______ _______ _______ _____ _____    ______ ____
ROOT
ATOM      1  C   UNL     1      45.916   7.067  11.782  0.00  0.00    +0.000 C 
ENDROOT
BRANCH   1   2
ATOM      2  C   UNL     1      45.194   6.013  10.990  0.00  0.00    +0.000 A 
ATOM      3  C   UNL     1      43.896   5.649  11.327  0.00  0.00    +0.000 A 
ATOM      4  N   UNL     1      43.195   4.677  10.715  0.00  0.00    +0.000 NA
ATOM      5  C   UNL     1      43.828   4.018   9.717  0.00  0.00    +0.000 A 
ATOM      6  C   UNL     1      45.131   4.263   9.290  0.00  0.00    +0.000 A 
ATOM      7  C   UNL     1      45.812   5.297   9.955  0.00  0.00    +0.000 A 
BRANCH   6   8
ATOM      8  C   UNL     1      45.779   3.445   8.251  0.00  0.00    +0.000 A 
ATOM      9  C   UNL     1      46.389   4.029   7.129  0.00  0.00    +0.000 A 
ATOM     10  C   UNL     1      47.089   3.261   6.199  0.00  0.00    +0.000 A 
ATOM     11  C   UNL     1      47.193   1.882   6.377  0.00  0.00    +0.000 A 
ATOM     12  C   UNL     1      46.572   1.275   7.461  0.00  0.00    +0.000 A 
ATOM     13 CL   UNL     1      46.717  -0.420   7.699  0.00  0.00    +0.000 Cl
ATOM     14  C   UNL     1      45.860   2.043   8.385  0.00  0.00    +0.000 A 
ENDBRANCH   6   8
ENDBRANCH   1   2
BRANCH   1  15
ATOM     15  O   UNL     1      47.225   6.611  12.124  0.00  0.00    +0.000 OA
BRANCH  15  19
ATOM     16  C   UNL     1      47.510   4.470  15.687  0.00  0.00    +0.000 A 
ATOM     17  C   UNL     1      48.136   5.719  15.610  0.00  0.00    +0.000 A 
ATOM     18  C   UNL     1      48.062   6.471  14.434  0.00  0.00    +0.000 A 
ATOM     19  C   UNL     1      47.363   5.980  13.329  0.00  0.00    +0.000 A 
ATOM     20  C   UNL     1      46.744   4.730  13.408  0.00  0.00    +0.000 A 
ATOM     21  C   UNL     1      46.819   3.973  14.579  0.00  0.00    +0.000 A 
BRANCH  16  23
ATOM     22  N   UNL     1      48.830   3.486  17.477  0.00  0.00    +0.000 N 
ATOM     23  C   UNL     1      47.596   3.630  16.909  0.00  0.00    +0.000 C 
ATOM     24  O   UNL     1      46.606   3.111  17.405  0.00  0.00    +0.000 OA
ATOM     25  H   UNL     1      48.859   2.995  18.363  0.00  0.00    +0.000 HD
ATOM     26  H   UNL     1      49.602   4.098  17.256  0.00  0.00    +0.000 HD
ENDBRANCH  16  23
ENDBRANCH  15  19
ENDBRANCH   1  15
TORSDOF 5
ENDMDL
MODEL 6
REMARK VINA RESULT:    -7.928      3.788      6.781
REMARK INTER + INTRA:         -11.090
REMARK INTER:                 -10.135
REMARK INTRA:                  -0.956
REMARK UNBOUND:                -0.845
REMARK  Name = 
REMARK  5 active torsions:
REMARK  status: ('A' for Active; 'I' for Inactive)
REMARK    1  A    between atoms: C_2  and  C_4
REMARK    2  A    between atoms: C_7  and  O_8
REMARK    3  A    between atoms: O_8  and  C_9
REMARK    4  A    between atoms: C_9  and  C_10
REMARK    5  A    between atoms: C_14  and  C_15
REMARK                            x       y       z     vdW  Elec       q    Type
REMARK                         _______ _______ _______ _____ _____    ______ ____
ROOT
ATOM      1  C   UNL     1      44.403   7.066  11.834  0.00  0.00    +0.000 C 
ENDROOT
BRANCH   1   2
ATOM      2  C   UNL     1      44.203   5.653  11.363  0.00  0.00    +0.000 A 
ATOM      3  C   UNL     1      43.405   4.778  12.089  0.00  0.00    +0.000 A 
ATOM      4  N   UNL     1      43.218   3.482  11.777  0.00  0.00    +0.000 NA
ATOM      5  C   UNL     1      43.876   3.026  10.687  0.00  0.00    +0.000 A 
ATOM      6  C   UNL     1      44.724   3.784   9.882  0.00  0.00    +0.000 A 
ATOM      7  C   UNL     1      44.872   5.133  10.245  0.00  0.00    +0.000 A 
BRANCH   6   8
ATOM      8  C   UNL     1      45.470   3.192   8.759  0.00  0.00    +0.000 A 
ATOM      9  C   UNL     1      46.071   3.991   7.773  0.00  0.00    +0.000 A 
ATOM     10  C   UNL     1      46.862   3.435   6.769  0.00  0.00    +0.000 A 
ATOM     11  C   UNL     1      47.067   2.056   6.731  0.00  0.00    +0.000 A 
ATOM     12  C   UNL     1      46.458   1.240   7.676  0.00  0.00    +0.000 A 
ATOM     13 CL   UNL     1      46.728  -0.457   7.651  0.00  0.00    +0.000 Cl
ATOM     14  C   UNL     1      45.656   1.796   8.674  0.00  0.00    +0.000 A 
ENDBRANCH   6   8
ENDBRANCH   1   2
BRANCH   1  15
ATOM     15  O   UNL     1      45.363   7.099  12.889  0.00  0.00    +0.000 OA
BRANCH  15  19
ATOM     16  C   UNL     1      49.295   8.088  11.925  0.00  0.00    +0.000 A 
ATOM     17  C   UNL     1      48.321   9.089  11.853  0.00  0.00    +0.000 A 
ATOM     18  C   UNL     1      46.990   8.800  12.171  0.00  0.00    +0.000 A 
ATOM     19  C   UNL     1      46.625   7.510  12.562  0.00  0.00    +0.000 A 
ATOM     20  C   UNL     1      47.600   6.511  12.629  0.00  0.00    +0.000 A 
ATOM     21  C   UNL     1      48.930   6.794  12.308  0.00  0.00    +0.000 A 
BRANCH  16  23
ATOM     22  N   UNL     1      51.457   7.280  11.159  0.00  0.00    +0.000 N 
ATOM     23  C   UNL     1      50.711   8.351  11.563  0.00  0.00    +0.000 C 
ATOM     24  O   UNL     1      51.185   9.477  11.597  0.00  0.00    +0.000 OA
ATOM     25  H   UNL     1      52.389   7.488  10.821  0.00  0.00    +0.000 HD
ATOM     26  H   UNL     1      51.039   6.407  10.872  0.00  0.00    +0.000 HD
ENDBRANCH  16  23
ENDBRANCH  15  19
ENDBRANCH   1  15
TORSDOF 5
ENDMDL
MODEL 7
REMARK VINA RESULT:    -7.381      4.587      8.063
REMARK INTER + INTRA:         -10.383
REMARK INTER:                  -9.838
REMARK INTRA:                  -0.545
REMARK UNBOUND:                -0.845
REMARK  Name = 
REMARK  5 active torsions:
REMARK  status: ('A' for Active; 'I' for Inactive)
REMARK    1  A    between atoms: C_2  and  C_4
REMARK    2  A    between atoms: C_7  and  O_8
REMARK    3  A    between atoms: O_8  and  C_9
REMARK    4  A    between atoms: C_9  and  C_10
REMARK    5  A    between atoms: C_14  and  C_15
REMARK                            x       y       z     vdW  Elec       q    Type
REMARK                         _______ _______ _______ _____ _____    ______ ____
ROOT
ATOM      1  C   UNL     1      45.952   5.052  13.885  0.00  0.00    +0.000 C 
ENDROOT
BRANCH   1   2
ATOM      2  C   UNL     1      45.119   4.674  12.693  0.00  0.00    +0.000 A 
ATOM      3  C   UNL     1      43.734   4.621  12.793  0.00  0.00    +0.000 A 
ATOM      4  N   UNL     1      42.914   4.236  11.799  0.00  0.00    +0.000 NA
ATOM      5  C   UNL     1      43.506   3.868  10.640  0.00  0.00    +0.000 A 
ATOM      6  C   UNL     1      44.879   3.851  10.408  0.00  0.00    +0.000 A 
ATOM      7  C   UNL     1      45.688   4.275  11.475  0.00  0.00    +0.000 A 
BRANCH   6   8
ATOM      8  C   UNL     1      45.452   3.357   9.144  0.00  0.00    +0.000 A 
ATOM      9  C   UNL     1      45.821   4.233   8.111  0.00  0.00    +0.000 A 
ATOM     10  C   UNL     1      46.455   3.773   6.958  0.00  0.00    +0.000 A 
ATOM     11  C   UNL     1      46.733   2.414   6.815  0.00  0.00    +0.000 A 
ATOM     12  C   UNL     1      46.350   1.521   7.808  0.00  0.00    +0.000 A 
ATOM     13 CL   UNL     1      46.712  -0.151   7.650  0.00  0.00    +0.000 Cl
ATOM     14  C   UNL     1      45.703   1.981   8.957  0.00  0.00    +0.000 A 
ENDBRANCH   6   8
ENDBRANCH   1   2
BRANCH   1  15
ATOM     15  O   UNL     1      46.504   3.881  14.487  0.00  0.00    +0.000 OA
BRANCH  15  19
ATOM     16  C   UNL     1      49.326   4.188  17.538  0.00  0.00    +0.000 A 
ATOM     17  C   UNL     1      48.875   5.364  16.929  0.00  0.00    +0.000 A 
ATOM     18  C   UNL     1      47.926   5.305  15.903  0.00  0.00    +0.000 A 
ATOM     19  C   UNL     1      47.423   4.073  15.480  0.00  0.00    +0.000 A 
ATOM     20  C   UNL     1      47.879   2.900  16.088  0.00  0.00    +0.000 A 
ATOM     21  C   UNL     1      48.830   2.953  17.110  0.00  0.00    +0.000 A 
BRANCH  16  23
ATOM     22  N   UNL     1      49.912   4.355  19.892  0.00  0.00    +0.000 N 
ATOM     23  C   UNL     1      50.355   4.210  18.608  0.00  0.00    +0.000 C 
ATOM     24  O   UNL     1      51.545   4.078  18.359  0.00  0.00    +0.000 OA
ATOM     25  H   UNL     1      50.613   4.269  20.618  0.00  0.00    +0.000 HD
ATOM     26  H   UNL     1      48.948   4.204  20.152  0.00  0.00    +0.000 HD
ENDBRANCH  16  23
ENDBRANCH  15  19
ENDBRANCH   1  15
TORSDOF 5
ENDMDL
MODEL 8
REMARK VINA RESULT:    -6.500      2.070      2.598
REMARK INTER + INTRA:          -9.245
REMARK INTER:                  -8.412
REMARK INTRA:                  -0.833
REMARK UNBOUND:                -0.845
REMARK  Name = 
REMARK  5 active torsions:
REMARK  status: ('A' for Active; 'I' for Inactive)
REMARK    1  A    between atoms: C_2  and  C_4
REMARK    2  A    between atoms: C_7  and  O_8
REMARK    3  A    between atoms: O_8  and  C_9
REMARK    4  A    between atoms: C_9  and  C_10
REMARK    5  A    between atoms: C_14  and  C_15
REMARK                            x       y       z     vdW  Elec       q    Type
REMARK                         _______ _______ _______ _____ _____    ______ ____
ROOT
ATOM      1  C   UNL     1      44.968   5.194  12.580  0.00  0.00    +0.000 C 
ENDROOT
BRANCH   1   2
ATOM      2  C   UNL     1      45.602   6.552  12.472  0.00  0.00    +0.000 A 
ATOM      3  C   UNL     1      44.820   7.673  12.226  0.00  0.00    +0.000 A 
ATOM      4  N   UNL     1      45.305   8.917  12.055  0.00  0.00    +0.000 NA
ATOM      5  C   UNL     1      46.650   9.050  12.116  0.00  0.00    +0.000 A 
ATOM      6  C   UNL     1      47.553   8.012  12.333  0.00  0.00    +0.000 A 
ATOM      7  C   UNL     1      46.991   6.738  12.519  0.00  0.00    +0.000 A 
BRANCH   6   8
ATOM      8  C   UNL     1      49.010   8.225  12.303  0.00  0.00    +0.000 A 
ATOM      9  C   UNL     1      49.690   8.804  13.385  0.00  0.00    +0.000 A 
ATOM     10  C   UNL     1      51.081   8.912  13.397  0.00  0.00    +0.000 A 
ATOM     11  C   UNL     1      51.821   8.439  12.315  0.00  0.00    +0.000 A 
ATOM     12  C   UNL     1      51.170   7.891  11.217  0.00  0.00    +0.000 A 
ATOM     13 CL   UNL     1      52.079   7.284   9.891  0.00  0.00    +0.000 Cl
ATOM     14  C   UNL     1      49.778   7.795  11.200  0.00  0.00    +0.000 A 
ENDBRANCH   6   8
ENDBRANCH   1   2
BRANCH   1  15
ATOM     15  O   UNL     1      44.159   4.938  11.432  0.00  0.00    +0.000 OA
BRANCH  15  19
ATOM     16  C   UNL     1      45.950   2.940   8.244  0.00  0.00    +0.000 A 
ATOM     17  C   UNL     1      46.027   4.337   8.280  0.00  0.00    +0.000 A 
ATOM     18  C   UNL     1      45.441   5.046   9.334  0.00  0.00    +0.000 A 
ATOM     19  C   UNL     1      44.777   4.364  10.356  0.00  0.00    +0.000 A 
ATOM     20  C   UNL     1      44.698   2.969  10.314  0.00  0.00    +0.000 A 
ATOM     21  C   UNL     1      45.277   2.257   9.261  0.00  0.00    +0.000 A 
BRANCH  16  23
ATOM     22  N   UNL     1      46.897   0.868   7.392  0.00  0.00    +0.000 N 
ATOM     23  C   UNL     1      46.532   2.158   7.124  0.00  0.00    +0.000 C 
ATOM     24  O   UNL     1      46.655   2.631   6.003  0.00  0.00    +0.000 OA
ATOM     25  H   UNL     1      47.198   0.316   6.598  0.00  0.00    +0.000 HD
ATOM     26  H   UNL     1      46.572   0.374   8.211  0.00  0.00    +0.000 HD
ENDBRANCH  16  23
ENDBRANCH  15  19
ENDBRANCH   1  15
TORSDOF 5
ENDMDL
MODEL 9
REMARK VINA RESULT:    -6.463      4.732      8.529
REMARK INTER + INTRA:          -9.197
REMARK INTER:                  -8.406
REMARK INTRA:                  -0.791
REMARK UNBOUND:                -0.845
REMARK  Name = 
REMARK  5 active torsions:
REMARK  status: ('A' for Active; 'I' for Inactive)
REMARK    1  A    between atoms: C_2  and  C_4
REMARK    2  A    between atoms: C_7  and  O_8
REMARK    3  A    between atoms: O_8  and  C_9
REMARK    4  A    between atoms: C_9  and  C_10
REMARK    5  A    between atoms: C_14  and  C_15
REMARK                            x       y       z     vdW  Elec       q    Type
REMARK                         _______ _______ _______ _____ _____    ______ ____
ROOT
ATOM      1  C   UNL     1      48.649   7.540  14.182  0.00  0.00    +0.000 C 
ENDROOT
BRANCH   1   2
ATOM      2  C   UNL     1      47.427   7.634  13.311  0.00  0.00    +0.000 A 
ATOM      3  C   UNL     1      46.624   8.767  13.351  0.00  0.00    +0.000 A 
ATOM      4  N   UNL     1      45.483   8.916  12.654  0.00  0.00    +0.000 NA
ATOM      5  C   UNL     1      45.109   7.869  11.883  0.00  0.00    +0.000 A 
ATOM      6  C   UNL     1      45.805   6.667  11.766  0.00  0.00    +0.000 A 
ATOM      7  C   UNL     1      46.996   6.572  12.504  0.00  0.00    +0.000 A 
BRANCH   6   8
ATOM      8  C   UNL     1      45.289   5.541  10.970  0.00  0.00    +0.000 A 
ATOM      9  C   UNL     1      45.637   5.375   9.620  0.00  0.00    +0.000 A 
ATOM     10  C   UNL     1      45.230   4.255   8.895  0.00  0.00    +0.000 A 
ATOM     11  C   UNL     1      44.460   3.271   9.515  0.00  0.00    +0.000 A 
ATOM     12  C   UNL     1      44.075   3.426  10.841  0.00  0.00    +0.000 A 
ATOM     13 CL   UNL     1      43.148   2.206  11.618  0.00  0.00    +0.000 Cl
ATOM     14  C   UNL     1      44.472   4.554  11.561  0.00  0.00    +0.000 A 
ENDBRANCH   6   8
ENDBRANCH   1   2
BRANCH   1  15
ATOM     15  O   UNL     1      48.870   6.184  14.568  0.00  0.00    +0.000 OA
BRANCH  15  19
ATOM     16  C   UNL     1      48.245   5.453  18.623  0.00  0.00    +0.000 A 
ATOM     17  C   UNL     1      47.705   4.556  17.695  0.00  0.00    +0.000 A 
ATOM     18  C   UNL     1      47.894   4.763  16.325  0.00  0.00    +0.000 A 
ATOM     19  C   UNL     1      48.623   5.866  15.875  0.00  0.00    +0.000 A 
ATOM     20  C   UNL     1      49.157   6.762  16.804  0.00  0.00    +0.000 A 
ATOM     21  C   UNL     1      48.967   6.563  18.173  0.00  0.00    +0.000 A 
BRANCH  16  23
ATOM     22  N   UNL     1      48.488   4.120  20.642  0.00  0.00    +0.000 N 
ATOM     23  C   UNL     1      48.037   5.282  20.083  0.00  0.00    +0.000 C 
ATOM     24  O   UNL     1      47.511   6.150  20.765  0.00  0.00    +0.000 OA
ATOM     25  H   UNL     1      48.431   4.058  21.651  0.00  0.00    +0.000 HD
ATOM     26  H   UNL     1      49.146   3.514  20.173  0.00  0.00    +0.000 HD
ENDBRANCH  16  23
ENDBRANCH  15  19
ENDBRANCH   1  15
TORSDOF 5
ENDMDL
