MODEL 1
REMARK VINA RESULT:    -7.880      0.000      0.000
REMARK INTER + INTRA:         -11.611
REMARK INTER:                 -10.644
REMARK INTRA:                  -0.967
REMARK UNBOUND:                -0.967
REMARK  Name = 
REMARK  8 active torsions:
REMARK  status: ('A' for Active; 'I' for Inactive)
REMARK    1  A    between atoms: C_1  and  C_2
REMARK    2  A    between atoms: C_4  and  O_5
REMARK    3  A    between atoms: O_5  and  C_6
REMARK    4  A    between atoms: C_6  and  C_7
REMARK    5  A    between atoms: C_7  and  C_10
REMARK    6  A    between atoms: C_14  and  C_15
REMARK    7  A    between atoms: C_15  and  C_16
REMARK    8  A    between atoms: C_17  and  C_18
REMARK                            x       y       z     vdW  Elec       q    Type
REMARK                         _______ _______ _______ _____ _____    ______ ____
ROOT
ATOM      1  C   UNL     1      45.302   5.074  12.444  0.00  0.00    +0.000 A 
ATOM      2  C   UNL     1      45.938   6.064  11.687  0.00  0.00    +0.000 A 
ATOM      3  C   UNL     1      47.144   6.615  12.116  0.00  0.00    +0.000 A 
ATOM      4  C   UNL     1      47.737   6.179  13.304  0.00  0.00    +0.000 A 
ATOM      5  C   UNL     1      47.133   5.194  14.097  0.00  0.00    +0.000 A 
ATOM      6  C   UNL     1      45.917   4.653  13.643  0.00  0.00    +0.000 A 
ENDROOT
BRANCH   1   7
ATOM      7  C   UNL     1      43.981   4.422  12.064  0.00  0.00    +0.000 C 
ATOM      8  F   UNL     1      42.951   4.940  12.807  0.00  0.00    +0.000 F 
ATOM      9  F   UNL     1      44.000   3.090  12.398  0.00  0.00    +0.000 F 
BRANCH   7  10
ATOM     10  C   UNL     1      43.565   4.500  10.589  0.00  0.00    +0.000 C 
BRANCH  10  11
ATOM     11  O   UNL     1      43.753   3.233   9.929  0.00  0.00    +0.000 OA
BRANCH  11  15
ATOM     12  C   UNL     1      47.348   1.373   7.182  0.00  0.00    +0.000 C 
ATOM     13  C   UNL     1      46.365   2.303   7.778  0.00  0.00    +0.000 C 
ATOM     14  C   UNL     1      45.421   1.958   8.803  0.00  0.00    +0.000 C 
ATOM     15  C   UNL     1      44.722   3.216   9.013  0.00  0.00    +0.000 C 
ATOM     16  N   UNL     1      45.134   4.188   8.253  0.00  0.00    +0.000 NA
ATOM     17  C   UNL     1      46.146   3.602   7.506  0.00  0.00    +0.000 C 
ENDBRANCH  11  15
ENDBRANCH  10  11
ENDBRANCH   7  10
ENDBRANCH   1   7
BRANCH   5  18
ATOM     18  C   UNL     1      47.725   4.776  15.403  0.00  0.00    +0.000 C 
ATOM     19  C   UNL     1      48.486   5.820  16.187  0.00  0.00    +0.000 C 
ATOM     20  C   UNL     1      47.582   3.506  15.835  0.00  0.00    +0.000 C 
BRANCH  20  21
ATOM     21  C   UNL     1      48.111   2.980  17.122  0.00  0.00    +0.000 C 
ATOM     22  N   UNL     1      47.180   2.920  18.112  0.00  0.00    +0.000 N 
ATOM     23  O   UNL     1      49.264   2.630  17.320  0.00  0.00    +0.000 OA
ATOM     24  H   UNL     1      46.216   3.205  18.006  0.00  0.00    +0.000 HD
ATOM     25  H   UNL     1      47.487   2.578  19.014  0.00  0.00    +0.000 HD
ENDBRANCH  20  21
ENDBRANCH   5  18
TORSDOF 6
ENDMDL
MODEL 2
REMARK VINA RESULT:    -7.706      3.208      4.339
REMARK INTER + INTRA:         -11.376
REMARK INTER:                 -10.508
REMARK INTRA:                  -0.867
REMARK UNBOUND:                -0.967
REMARK  Name = 
REMARK  8 active torsions:
REMARK  status: ('A' for Active; 'I' for Inactive)
REMARK    1  A    between atoms: C_1  and  C_2
REMARK    2  A    between atoms: C_4  and  O_5
REMARK    3  A    between atoms: O_5  and  C_6
REMARK    4  A    between atoms: C_6  and  C_7
REMARK    5  A    between atoms: C_7  and  C_10
REMARK    6  A    between atoms: C_14  and  C_15
REMARK    7  A    between atoms: C_15  and  C_16
REMARK    8  A    between atoms: C_17  and  C_18
REMARK                            x       y       z     vdW  Elec       q    Type
REMARK                         _______ _______ _______ _____ _____    ______ ____
ROOT
ATOM      1  C   UNL     1      45.050   4.747  11.668  0.00  0.00    +0.000 A 
ATOM      2  C   UNL     1      45.541   3.892  12.662  0.00  0.00    +0.000 A 
ATOM      3  C   UNL     1      46.594   4.295  13.480  0.00  0.00    +0.000 A 
ATOM      4  C   UNL     1      47.166   5.561  13.325  0.00  0.00    +0.000 A 
ATOM      5  C   UNL     1      46.711   6.446  12.340  0.00  0.00    +0.000 A 
ATOM      6  C   UNL     1      45.647   6.018  11.526  0.00  0.00    +0.000 A 
ENDROOT
BRANCH   1   7
ATOM      7  C   UNL     1      43.913   4.393  10.721  0.00  0.00    +0.000 C 
ATOM      8  F   UNL     1      43.076   5.465  10.543  0.00  0.00    +0.000 F 
ATOM      9  F   UNL     1      43.111   3.430  11.286  0.00  0.00    +0.000 F 
BRANCH   7  10
ATOM     10  C   UNL     1      44.301   3.880   9.328  0.00  0.00    +0.000 C 
BRANCH  10  11
ATOM     11  O   UNL     1      44.670   2.488   9.371  0.00  0.00    +0.000 OA
BRANCH  11  15
ATOM     12  C   UNL     1      47.489   2.861   5.391  0.00  0.00    +0.000 C 
ATOM     13  C   UNL     1      46.834   2.347   6.612  0.00  0.00    +0.000 C 
ATOM     14  C   UNL     1      45.867   3.064   7.394  0.00  0.00    +0.000 C 
ATOM     15  C   UNL     1      45.561   2.114   8.451  0.00  0.00    +0.000 C 
ATOM     16  N   UNL     1      46.220   0.995   8.371  0.00  0.00    +0.000 NA
ATOM     17  C   UNL     1      46.993   1.162   7.231  0.00  0.00    +0.000 C 
ENDBRANCH  11  15
ENDBRANCH  10  11
ENDBRANCH   7  10
ENDBRANCH   1   7
BRANCH   5  18
ATOM     18  C   UNL     1      47.366   7.771  12.121  0.00  0.00    +0.000 C 
ATOM     19  C   UNL     1      48.797   7.766  11.636  0.00  0.00    +0.000 C 
ATOM     20  C   UNL     1      46.688   8.910  12.368  0.00  0.00    +0.000 C 
BRANCH  20  21
ATOM     21  C   UNL     1      47.227  10.282  12.172  0.00  0.00    +0.000 C 
ATOM     22  N   UNL     1      47.869  10.778  13.265  0.00  0.00    +0.000 N 
ATOM     23  O   UNL     1      47.122  10.943  11.151  0.00  0.00    +0.000 OA
ATOM     24  H   UNL     1      47.977  10.280  14.138  0.00  0.00    +0.000 HD
ATOM     25  H   UNL     1      48.248  11.714  13.191  0.00  0.00    +0.000 HD
ENDBRANCH  20  21
ENDBRANCH   5  18
TORSDOF 6
ENDMDL
MODEL 3
REMARK VINA RESULT:    -7.327      3.214      3.867
REMARK INTER + INTRA:         -10.864
REMARK INTER:                  -9.954
REMARK INTRA:                  -0.910
REMARK UNBOUND:                -0.967
REMARK  Name = 
REMARK  8 active torsions:
REMARK  status: ('A' for Active; 'I' for Inactive)
REMARK    1  A    between atoms: C_1  and  C_2
REMARK    2  A    between atoms: C_4  and  O_5
REMARK    3  A    between atoms: O_5  and  C_6
REMARK    4  A    between atoms: C_6  and  C_7
REMARK    5  A    between atoms: C_7  and  C_10
REMARK    6  A    between atoms: C_14  and  C_15
REMARK    7  A    between atoms: C_15  and  C_16
REMARK    8  A    between atoms: C_17  and  C_18
REMARK                            x       y       z     vdW  Elec       q    Type
REMARK                         _______ _______ _______ _____ _____    ______ ____
ROOT
ATOM      1  C   UNL     1      44.788   5.011  11.703  0.00  0.00    +0.000 A 
ATOM      2  C   UNL     1      43.850   6.020  11.456  0.00  0.00    +0.000 A 
ATOM      3  C   UNL     1      44.234   7.359  11.475  0.00  0.00    +0.000 A 
ATOM      4  C   UNL     1      45.562   7.711  11.731  0.00  0.00    +0.000 A 
ATOM      5  C   UNL     1      46.533   6.735  11.991  0.00  0.00    +0.000 A 
ATOM      6  C   UNL     1      46.123   5.390  11.966  0.00  0.00    +0.000 A 
ENDROOT
BRANCH   1   7
ATOM      7  C   UNL     1      44.463   3.525  11.715  0.00  0.00    +0.000 C 
ATOM      8  F   UNL     1      43.470   3.251  12.621  0.00  0.00    +0.000 F 
ATOM      9  F   UNL     1      45.543   2.811  12.175  0.00  0.00    +0.000 F 
BRANCH   7  10
ATOM     10  C   UNL     1      44.052   2.891  10.380  0.00  0.00    +0.000 C 
BRANCH  10  11
ATOM     11  O   UNL     1      44.680   3.562   9.271  0.00  0.00    +0.000 OA
BRANCH  11  15
ATOM     12  C   UNL     1      47.707   2.385   5.613  0.00  0.00    +0.000 C 
ATOM     13  C   UNL     1      46.876   2.316   6.833  0.00  0.00    +0.000 C 
ATOM     14  C   UNL     1      46.090   3.397   7.358  0.00  0.00    +0.000 C 
ATOM     15  C   UNL     1      45.490   2.797   8.538  0.00  0.00    +0.000 C 
ATOM     16  N   UNL     1      45.837   1.559   8.742  0.00  0.00    +0.000 NA
ATOM     17  C   UNL     1      46.686   1.287   7.679  0.00  0.00    +0.000 C 
ENDBRANCH  11  15
ENDBRANCH  10  11
ENDBRANCH   7  10
ENDBRANCH   1   7
BRANCH   5  18
ATOM     18  C   UNL     1      47.937   7.108  12.338  0.00  0.00    +0.000 C 
ATOM     19  C   UNL     1      48.471   6.640  13.672  0.00  0.00    +0.000 C 
ATOM     20  C   UNL     1      48.673   7.846  11.482  0.00  0.00    +0.000 C 
BRANCH  20  21
ATOM     21  C   UNL     1      50.082   8.263  11.710  0.00  0.00    +0.000 C 
ATOM     22  N   UNL     1      50.997   7.326  11.337  0.00  0.00    +0.000 N 
ATOM     23  O   UNL     1      50.434   9.329  12.191  0.00  0.00    +0.000 OA
ATOM     24  H   UNL     1      50.762   6.425  10.944  0.00  0.00    +0.000 HD
ATOM     25  H   UNL     1      51.973   7.553  11.479  0.00  0.00    +0.000 HD
ENDBRANCH  20  21
ENDBRANCH   5  18
TORSDOF 6
ENDMDL
MODEL 4
REMARK VINA RESULT:    -7.174      2.529      7.349
REMARK INTER + INTRA:         -10.657
REMARK INTER:                  -9.740
REMARK INTRA:                  -0.917
REMARK UNBOUND:                -0.967
REMARK  Name = 
REMARK  8 active torsions:
REMARK  status: ('A' for Active; 'I' for Inactive)
REMARK    1  A    between atoms: C_1  and  C_2
REMARK    2  A    between atoms: C_4  and  O_5
REMARK    3  A    between atoms: O_5  and  C_6
REMARK    4  A    between atoms: C_6  and  C_7
REMARK    5  A    between atoms: C_7  and  C_10
REMARK    6  A    between atoms: C_14  and  C_15
REMARK    7  A    between atoms: C_15  and  C_16
REMARK    8  A    between atoms: C_17  and  C_18
REMARK                            x       y       z     vdW  Elec       q    Type
REMARK                         _______ _______ _______ _____ _____    ______ ____
ROOT
ATOM      1  C   UNL     1      44.662   4.738  11.015  0.00  0.00    +0.000 A 
ATOM      2  C   UNL     1      43.668   3.937  11.589  0.00  0.00    +0.000 A 
ATOM      3  C   UNL     1      43.427   2.654  11.101  0.00  0.00    +0.000 A 
ATOM      4  C   UNL     1      44.179   2.149  10.037  0.00  0.00    +0.000 A 
ATOM      5  C   UNL     1      45.179   2.918   9.427  0.00  0.00    +0.000 A 
ATOM      6  C   UNL     1      45.405   4.209   9.938  0.00  0.00    +0.000 A 
ENDROOT
BRANCH   1   7
ATOM      7  C   UNL     1      44.991   6.151  11.471  0.00  0.00    +0.000 C 
ATOM      8  F   UNL     1      43.892   6.966  11.363  0.00  0.00    +0.000 F 
ATOM      9  F   UNL     1      45.913   6.717  10.623  0.00  0.00    +0.000 F 
BRANCH   7  10
ATOM     10  C   UNL     1      45.543   6.314  12.893  0.00  0.00    +0.000 C 
BRANCH  10  11
ATOM     11  O   UNL     1      46.948   6.002  12.943  0.00  0.00    +0.000 OA
BRANCH  11  15
ATOM     12  C   UNL     1      47.252   3.396  17.071  0.00  0.00    +0.000 C 
ATOM     13  C   UNL     1      47.493   4.408  16.022  0.00  0.00    +0.000 C 
ATOM     14  C   UNL     1      46.774   4.498  14.782  0.00  0.00    +0.000 C 
ATOM     15  C   UNL     1      47.401   5.645  14.146  0.00  0.00    +0.000 C 
ATOM     16  N   UNL     1      48.358   6.186  14.844  0.00  0.00    +0.000 NA
ATOM     17  C   UNL     1      48.391   5.409  15.992  0.00  0.00    +0.000 C 
ENDBRANCH  11  15
ENDBRANCH  10  11
ENDBRANCH   7  10
ENDBRANCH   1   7
BRANCH   5  18
ATOM     18  C   UNL     1      45.937   2.412   8.244  0.00  0.00    +0.000 C 
ATOM     19  C   UNL     1      46.071   0.914   8.093  0.00  0.00    +0.000 C 
ATOM     20  C   UNL     1      46.482   3.280   7.367  0.00  0.00    +0.000 C 
BRANCH  20  21
ATOM     21  C   UNL     1      47.241   2.896   6.147  0.00  0.00    +0.000 C 
ATOM     22  N   UNL     1      48.561   2.655   6.378  0.00  0.00    +0.000 N 
ATOM     23  O   UNL     1      46.771   2.800   5.024  0.00  0.00    +0.000 OA
ATOM     24  H   UNL     1      49.004   2.730   7.284  0.00  0.00    +0.000 HD
ATOM     25  H   UNL     1      49.129   2.399   5.580  0.00  0.00    +0.000 HD
ENDBRANCH  20  21
ENDBRANCH   5  18
TORSDOF 6
ENDMDL
MODEL 5
REMARK VINA RESULT:    -7.115      1.448      1.826
REMARK INTER + INTRA:         -10.577
REMARK INTER:                  -9.608
REMARK INTRA:                  -0.969
REMARK UNBOUND:                -0.967
REMARK  Name = 
REMARK  8 active torsions:
REMARK  status: ('A' for Active; 'I' for Inactive)
REMARK    1  A    between atoms: C_1  and  C_2
REMARK    2  A    between atoms: C_4  and  O_5
REMARK    3  A    between atoms: O_5  and  C_6
REMARK    4  A    between atoms: C_6  and  C_7
REMARK    5  A    between atoms: C_7  and  C_10
REMARK    6  A    between atoms: C_14  and  C_15
REMARK    7  A    between atoms: C_15  and  C_16
REMARK    8  A    between atoms: C_17  and  C_18
REMARK                            x       y       z     vdW  Elec       q    Type
REMARK                         _______ _______ _______ _____ _____    ______ ____
ROOT
ATOM      1  C   UNL     1      45.385   5.167  12.335  0.00  0.00    +0.000 A 
ATOM      2  C   UNL     1      46.035   6.072  11.488  0.00  0.00    +0.000 A 
ATOM      3  C   UNL     1      47.225   6.678  11.884  0.00  0.00    +0.000 A 
ATOM      4  C   UNL     1      47.789   6.383  13.128  0.00  0.00    +0.000 A 
ATOM      5  C   UNL     1      47.170   5.489  14.011  0.00  0.00    +0.000 A 
ATOM      6  C   UNL     1      45.970   4.889  13.589  0.00  0.00    +0.000 A 
ENDROOT
BRANCH   1   7
ATOM      7  C   UNL     1      44.079   4.465  11.996  0.00  0.00    +0.000 C 
ATOM      8  F   UNL     1      43.018   5.092  12.599  0.00  0.00    +0.000 F 
ATOM      9  F   UNL     1      44.071   3.200  12.533  0.00  0.00    +0.000 F 
BRANCH   7  10
ATOM     10  C   UNL     1      43.735   4.314  10.508  0.00  0.00    +0.000 C 
BRANCH  10  11
ATOM     11  O   UNL     1      43.763   2.930  10.107  0.00  0.00    +0.000 OA
BRANCH  11  15
ATOM     12  C   UNL     1      46.799   3.584   6.327  0.00  0.00    +0.000 C 
ATOM     13  C   UNL     1      46.081   2.985   7.472  0.00  0.00    +0.000 C 
ATOM     14  C   UNL     1      45.065   3.644   8.244  0.00  0.00    +0.000 C 
ATOM     15  C   UNL     1      44.707   2.624   9.216  0.00  0.00    +0.000 C 
ATOM     16  N   UNL     1      45.380   1.516   9.098  0.00  0.00    +0.000 NA
ATOM     17  C   UNL     1      46.214   1.763   8.018  0.00  0.00    +0.000 C 
ENDBRANCH  11  15
ENDBRANCH  10  11
ENDBRANCH   7  10
ENDBRANCH   1   7
BRANCH   5  18
ATOM     18  C   UNL     1      47.729   5.225  15.371  0.00  0.00    +0.000 C 
ATOM     19  C   UNL     1      47.223   4.005  16.105  0.00  0.00    +0.000 C 
ATOM     20  C   UNL     1      48.636   6.068  15.905  0.00  0.00    +0.000 C 
BRANCH  20  21
ATOM     21  C   UNL     1      49.273   5.901  17.239  0.00  0.00    +0.000 C 
ATOM     22  N   UNL     1      50.447   5.212  17.202  0.00  0.00    +0.000 N 
ATOM     23  O   UNL     1      48.821   6.316  18.294  0.00  0.00    +0.000 OA
ATOM     24  H   UNL     1      50.861   4.837  16.359  0.00  0.00    +0.000 HD
ATOM     25  H   UNL     1      50.919   5.059  18.084  0.00  0.00    +0.000 HD
ENDBRANCH  20  21
ENDBRANCH   5  18
TORSDOF 6
ENDMDL
MODEL 6
REMARK VINA RESULT:    -6.855      2.945      7.271
REMARK INTER + INTRA:         -10.227
REMARK INTER:                  -9.259
REMARK INTRA:                  -0.967
REMARK UNBOUND:                -0.967
REMARK  Name = 
REMARK  8 active torsions:
REMARK  status: ('A' for Active; 'I' for Inactive)
REMARK    1  A    between atoms: C_1  and  C_2
REMARK    2  A    between atoms: C_4  and  O_5
REMARK    3  A    between atoms: O_5  and  C_6
REMARK    4  A    between atoms: C_6  and  C_7
REMARK    5  A    between atoms: C_7  and  C_10
REMARK    6  A    between atoms: C_14  and  C_15
REMARK    7  A    between atoms: C_15  and  C_16
REMARK    8  A    between atoms: C_17  and  C_18
REMARK                            x       y       z     vdW  Elec       q    Type
REMARK                         _______ _______ _______ _____ _____    ______ ____
ROOT
ATOM      1  C   UNL     1      44.663   5.127  11.027  0.00  0.00    +0.000 A 
ATOM      2  C   UNL     1      43.674   4.376  11.673  0.00  0.00    +0.000 A 
ATOM      3  C   UNL     1      43.403   3.071  11.267  0.00  0.00    +0.000 A 
ATOM      4  C   UNL     1      44.121   2.493  10.217  0.00  0.00    +0.000 A 
ATOM      5  C   UNL     1      45.115   3.210   9.538  0.00  0.00    +0.000 A 
ATOM      6  C   UNL     1      45.371   4.524   9.965  0.00  0.00    +0.000 A 
ENDROOT
BRANCH   1   7
ATOM      7  C   UNL     1      45.022   6.560  11.390  0.00  0.00    +0.000 C 
ATOM      8  F   UNL     1      43.948   7.394  11.203  0.00  0.00    +0.000 F 
ATOM      9  F   UNL     1      45.975   7.040  10.524  0.00  0.00    +0.000 F 
BRANCH   7  10
ATOM     10  C   UNL     1      45.552   6.808  12.808  0.00  0.00    +0.000 C 
BRANCH  10  11
ATOM     11  O   UNL     1      46.576   5.856  13.153  0.00  0.00    +0.000 OA
BRANCH  11  15
ATOM     12  C   UNL     1      50.584   8.655  12.983  0.00  0.00    +0.000 C 
ATOM     13  C   UNL     1      49.548   7.703  13.432  0.00  0.00    +0.000 C 
ATOM     14  C   UNL     1      48.379   7.340  12.682  0.00  0.00    +0.000 C 
ATOM     15  C   UNL     1      47.724   6.393  13.569  0.00  0.00    +0.000 C 
ATOM     16  N   UNL     1      48.351   6.193  14.692  0.00  0.00    +0.000 NA
ATOM     17  C   UNL     1      49.469   7.006  14.581  0.00  0.00    +0.000 C 
ENDBRANCH  11  15
ENDBRANCH  10  11
ENDBRANCH   7  10
ENDBRANCH   1   7
BRANCH   5  18
ATOM     18  C   UNL     1      45.835   2.623   8.368  0.00  0.00    +0.000 C 
ATOM     19  C   UNL     1      45.872   1.116   8.259  0.00  0.00    +0.000 C 
ATOM     20  C   UNL     1      46.433   3.430   7.468  0.00  0.00    +0.000 C 
BRANCH  20  21
ATOM     21  C   UNL     1      47.162   2.964   6.258  0.00  0.00    +0.000 C 
ATOM     22  N   UNL     1      48.471   2.666   6.489  0.00  0.00    +0.000 N 
ATOM     23  O   UNL     1      46.679   2.851   5.142  0.00  0.00    +0.000 OA
ATOM     24  H   UNL     1      48.924   2.751   7.389  0.00  0.00    +0.000 HD
ATOM     25  H   UNL     1      49.018   2.353   5.698  0.00  0.00    +0.000 HD
ENDBRANCH  20  21
ENDBRANCH   5  18
TORSDOF 6
ENDMDL
MODEL 7
REMARK VINA RESULT:    -6.333      1.802      2.360
REMARK INTER + INTRA:          -9.521
REMARK INTER:                  -8.901
REMARK INTRA:                  -0.620
REMARK UNBOUND:                -0.967
REMARK  Name = 
REMARK  8 active torsions:
REMARK  status: ('A' for Active; 'I' for Inactive)
REMARK    1  A    between atoms: C_1  and  C_2
REMARK    2  A    between atoms: C_4  and  O_5
REMARK    3  A    between atoms: O_5  and  C_6
REMARK    4  A    between atoms: C_6  and  C_7
REMARK    5  A    between atoms: C_7  and  C_10
REMARK    6  A    between atoms: C_14  and  C_15
REMARK    7  A    between atoms: C_15  and  C_16
REMARK    8  A    between atoms: C_17  and  C_18
REMARK                            x       y       z     vdW  Elec       q    Type
REMARK                         _______ _______ _______ _____ _____    ______ ____
ROOT
ATOM      1  C   UNL     1      47.300   6.729  12.251  0.00  0.00    +0.000 A 
ATOM      2  C   UNL     1      48.348   7.538  11.797  0.00  0.00    +0.000 A 
ATOM      3  C   UNL     1      49.430   7.822  12.627  0.00  0.00    +0.000 A 
ATOM      4  C   UNL     1      49.487   7.293  13.920  0.00  0.00    +0.000 A 
ATOM      5  C   UNL     1      48.458   6.483  14.418  0.00  0.00    +0.000 A 
ATOM      6  C   UNL     1      47.377   6.211  13.562  0.00  0.00    +0.000 A 
ENDROOT
BRANCH   1   7
ATOM      7  C   UNL     1      46.074   6.373  11.424  0.00  0.00    +0.000 C 
ATOM      8  F   UNL     1      46.328   6.530  10.084  0.00  0.00    +0.000 F 
ATOM      9  F   UNL     1      45.059   7.263  11.680  0.00  0.00    +0.000 F 
BRANCH   7  10
ATOM     10  C   UNL     1      45.487   4.969  11.616  0.00  0.00    +0.000 C 
BRANCH  10  11
ATOM     11  O   UNL     1      44.522   4.664  10.591  0.00  0.00    +0.000 OA
BRANCH  11  15
ATOM     12  C   UNL     1      46.404   2.870   6.447  0.00  0.00    +0.000 C 
ATOM     13  C   UNL     1      45.787   2.976   7.787  0.00  0.00    +0.000 C 
ATOM     14  C   UNL     1      45.496   4.207   8.466  0.00  0.00    +0.000 C 
ATOM     15  C   UNL     1      44.911   3.739   9.712  0.00  0.00    +0.000 C 
ATOM     16  N   UNL     1      44.848   2.444   9.819  0.00  0.00    +0.000 NA
ATOM     17  C   UNL     1      45.390   1.999   8.622  0.00  0.00    +0.000 C 
ENDBRANCH  11  15
ENDBRANCH  10  11
ENDBRANCH   7  10
ENDBRANCH   1   7
BRANCH   5  18
ATOM     18  C   UNL     1      48.479   5.976  15.823  0.00  0.00    +0.000 C 
ATOM     19  C   UNL     1      49.456   6.618  16.779  0.00  0.00    +0.000 C 
ATOM     20  C   UNL     1      47.656   4.973  16.192  0.00  0.00    +0.000 C 
BRANCH  20  21
ATOM     21  C   UNL     1      47.575   4.397  17.561  0.00  0.00    +0.000 C 
ATOM     22  N   UNL     1      46.807   5.126  18.416  0.00  0.00    +0.000 N 
ATOM     23  O   UNL     1      48.134   3.376  17.931  0.00  0.00    +0.000 OA
ATOM     24  H   UNL     1      46.331   5.982  18.166  0.00  0.00    +0.000 HD
ATOM     25  H   UNL     1      46.725   4.786  19.365  0.00  0.00    +0.000 HD
ENDBRANCH  20  21
ENDBRANCH   5  18
TORSDOF 6
ENDMDL
MODEL 8
REMARK VINA RESULT:    -6.242      4.141      6.281
REMARK INTER + INTRA:          -9.399
REMARK INTER:                  -8.638
REMARK INTRA:                  -0.761
REMARK UNBOUND:                -0.967
REMARK  Name = 
REMARK  8 active torsions:
REMARK  status: ('A' for Active; 'I' for Inactive)
REMARK    1  A    between atoms: C_1  and  C_2
REMARK    2  A    between atoms: C_4  and  O_5
REMARK    3  A    between atoms: O_5  and  C_6
REMARK    4  A    between atoms: C_6  and  C_7
REMARK    5  A    between atoms: C_7  and  C_10
REMARK    6  A    between atoms: C_14  and  C_15
REMARK    7  A    between atoms: C_15  and  C_16
REMARK    8  A    between atoms: C_17  and  C_18
REMARK                            x       y       z     vdW  Elec       q    Type
REMARK                         _______ _______ _______ _____ _____    ______ ____
ROOT
ATOM      1  C   UNL     1      49.316   3.640  17.391  0.00  0.00    +0.000 A 
ATOM      2  C   UNL     1      49.445   4.921  17.939  0.00  0.00    +0.000 A 
ATOM      3  C   UNL     1      50.662   5.340  18.473  0.00  0.00    +0.000 A 
ATOM      4  C   UNL     1      51.770   4.490  18.459  0.00  0.00    +0.000 A 
ATOM      5  C   UNL     1      51.685   3.196  17.927  0.00  0.00    +0.000 A 
ATOM      6  C   UNL     1      50.448   2.796  17.394  0.00  0.00    +0.000 A 
ENDROOT
BRANCH   1   7
ATOM      7  C   UNL     1      48.028   3.090  16.796  0.00  0.00    +0.000 C 
ATOM      8  F   UNL     1      47.098   2.860  17.778  0.00  0.00    +0.000 F 
ATOM      9  F   UNL     1      48.254   1.849  16.250  0.00  0.00    +0.000 F 
BRANCH   7  10
ATOM     10  C   UNL     1      47.348   3.931  15.709  0.00  0.00    +0.000 C 
BRANCH  10  11
ATOM     11  O   UNL     1      47.435   3.287  14.423  0.00  0.00    +0.000 OA
BRANCH  11  15
ATOM     12  C   UNL     1      45.373   6.571  11.441  0.00  0.00    +0.000 C 
ATOM     13  C   UNL     1      45.690   5.314  12.152  0.00  0.00    +0.000 C 
ATOM     14  C   UNL     1      46.720   5.162  13.139  0.00  0.00    +0.000 C 
ATOM     15  C   UNL     1      46.595   3.760  13.501  0.00  0.00    +0.000 C 
ATOM     16  N   UNL     1      45.662   3.123  12.854  0.00  0.00    +0.000 NA
ATOM     17  C   UNL     1      45.119   4.101  12.034  0.00  0.00    +0.000 C 
ENDBRANCH  11  15
ENDBRANCH  10  11
ENDBRANCH   7  10
ENDBRANCH   1   7
BRANCH   5  18
ATOM     18  C   UNL     1      52.846   2.257  17.976  0.00  0.00    +0.000 C 
ATOM     19  C   UNL     1      54.225   2.862  18.092  0.00  0.00    +0.000 C 
ATOM     20  C   UNL     1      52.642   0.926  17.902  0.00  0.00    +0.000 C 
BRANCH  20  21
ATOM     21  C   UNL     1      53.714  -0.104  17.957  0.00  0.00    +0.000 C 
ATOM     22  N   UNL     1      54.108  -0.549  16.732  0.00  0.00    +0.000 N 
ATOM     23  O   UNL     1      54.217  -0.546  18.978  0.00  0.00    +0.000 OA
ATOM     24  H   UNL     1      53.719  -0.226  15.856  0.00  0.00    +0.000 HD
ATOM     25  H   UNL     1      54.829  -1.259  16.710  0.00  0.00    +0.000 HD
ENDBRANCH  20  21
ENDBRANCH   5  18
TORSDOF 6
ENDMDL
MODEL 9
REMARK VINA RESULT:    -6.211      3.003      4.268
REMARK INTER + INTRA:          -9.356
REMARK INTER:                  -8.543
REMARK INTRA:                  -0.813
REMARK UNBOUND:                -0.967
REMARK  Name = 
REMARK  8 active torsions:
REMARK  status: ('A' for Active; 'I' for Inactive)
REMARK    1  A    between atoms: C_1  and  C_2
REMARK    2  A    between atoms: C_4  and  O_5
REMARK    3  A    between atoms: O_5  and  C_6
REMARK    4  A    between atoms: C_6  and  C_7
REMARK    5  A    between atoms: C_7  and  C_10
REMARK    6  A    between atoms: C_14  and  C_15
REMARK    7  A    between atoms: C_15  and  C_16
REMARK    8  A    between atoms: C_17  and  C_18
REMARK                            x       y       z     vdW  Elec       q    Type
REMARK                         _______ _______ _______ _____ _____    ______ ____
ROOT
ATOM      1  C   UNL     1      46.461   5.009  13.596  0.00  0.00    +0.000 A 
ATOM      2  C   UNL     1      46.852   4.490  14.835  0.00  0.00    +0.000 A 
ATOM      3  C   UNL     1      47.824   5.137  15.595  0.00  0.00    +0.000 A 
ATOM      4  C   UNL     1      48.414   6.317  15.133  0.00  0.00    +0.000 A 
ATOM      5  C   UNL     1      48.058   6.869  13.895  0.00  0.00    +0.000 A 
ATOM      6  C   UNL     1      47.074   6.198  13.147  0.00  0.00    +0.000 A 
ENDROOT
BRANCH   1   7
ATOM      7  C   UNL     1      45.419   4.369  12.692  0.00  0.00    +0.000 C 
ATOM      8  F   UNL     1      44.182   4.388  13.285  0.00  0.00    +0.000 F 
ATOM      9  F   UNL     1      45.692   3.032  12.530  0.00  0.00    +0.000 F 
BRANCH   7  10
ATOM     10  C   UNL     1      45.260   4.959  11.284  0.00  0.00    +0.000 C 
BRANCH  10  11
ATOM     11  O   UNL     1      44.335   4.184  10.498  0.00  0.00    +0.000 OA
BRANCH  11  15
ATOM     12  C   UNL     1      46.641   3.150   6.310  0.00  0.00    +0.000 C 
ATOM     13  C   UNL     1      45.960   3.017   7.614  0.00  0.00    +0.000 C 
ATOM     14  C   UNL     1      45.456   4.110   8.397  0.00  0.00    +0.000 C 
ATOM     15  C   UNL     1      44.896   3.429   9.553  0.00  0.00    +0.000 C 
ATOM     16  N   UNL     1      45.028   2.134   9.524  0.00  0.00    +0.000 NA
ATOM     17  C   UNL     1      45.681   1.907   8.322  0.00  0.00    +0.000 C 
ENDBRANCH  11  15
ENDBRANCH  10  11
ENDBRANCH   7  10
ENDBRANCH   1   7
BRANCH   5  18
ATOM     18  C   UNL     1      48.736   8.088  13.363  0.00  0.00    +0.000 C 
ATOM     19  C   UNL     1      49.426   8.991  14.360  0.00  0.00    +0.000 C 
ATOM     20  C   UNL     1      48.705   8.357  12.042  0.00  0.00    +0.000 C 
BRANCH  20  21
ATOM     21  C   UNL     1      49.356   9.528  11.395  0.00  0.00    +0.000 C 
ATOM     22  N   UNL     1      48.508  10.568  11.167  0.00  0.00    +0.000 N 
ATOM     23  O   UNL     1      50.532   9.594  11.074  0.00  0.00    +0.000 OA
ATOM     24  H   UNL     1      47.525  10.564  11.402  0.00  0.00    +0.000 HD
ATOM     25  H   UNL     1      48.895  11.389  10.719  0.00  0.00    +0.000 HD
ENDBRANCH  20  21
ENDBRANCH   5  18
TORSDOF 6
ENDMDL
