MODEL 1
REMARK VINA RESULT:    -8.271      0.000      0.000
REMARK INTER + INTRA:         -11.629
REMARK INTER:                 -10.930
REMARK INTRA:                  -0.699
REMARK UNBOUND:                -0.699
REMARK  Name = 
REMARK  6 active torsions:
REMARK  status: ('A' for Active; 'I' for Inactive)
REMARK    1  A    between atoms: N_1  and  C_2
REMARK    2  A    between atoms: C_2  and  C_3
REMARK    3  A    between atoms: C_3  and  C_4
REMARK    4  A    between atoms: C_7  and  C_8
REMARK    5  A    between atoms: C_8  and  N_9
REMARK    6  A    between atoms: C_15  and  N_16
REMARK                            x       y       z     vdW  Elec       q    Type
REMARK                         _______ _______ _______ _____ _____    ______ ____
ROOT
ATOM      1  C   UNL     1      43.571   5.290  10.898  0.00  0.00    +0.000 C 
ENDROOT
BRANCH   1   2
ATOM      2  N   UNL     1      44.356   6.304  11.596  0.00  0.00    +0.000 N 
ATOM      3  C   UNL     1      44.567   7.570  11.100  0.00  0.00    +0.000 A 
ATOM      4  C   UNL     1      45.261   8.269  12.055  0.00  0.00    +0.000 A 
ATOM      5  C   UNL     1      45.981   7.280  12.764  0.00  0.00    +0.000 A 
ATOM      6  C   UNL     1      47.186   7.289  13.492  0.00  0.00    +0.000 A 
ATOM      7  C   UNL     1      47.593   6.125  14.140  0.00  0.00    +0.000 A 
ATOM      8  C   UNL     1      46.751   5.010  14.159  0.00  0.00    +0.000 A 
ATOM      9  C   UNL     1      45.564   4.958  13.399  0.00  0.00    +0.000 A 
ATOM     10  C   UNL     1      45.263   6.086  12.623  0.00  0.00    +0.000 A 
BRANCH   8  11
ATOM     11  N   UNL     1      47.132   3.844  14.963  0.00  0.00    +0.000 N 
ATOM     12  O   UNL     1      47.622   2.865  14.373  0.00  0.00    +0.000 OA
ATOM     13  O   UNL     1      46.944   3.907  16.181  0.00  0.00    +0.000 OA
ENDBRANCH   8  11
ENDBRANCH   1   2
BRANCH   1  17
ATOM     14  C   UNL     1      45.795   2.606   8.295  0.00  0.00    +0.000 A 
ATOM     15  C   UNL     1      44.920   2.097   9.262  0.00  0.00    +0.000 A 
ATOM     16  C   UNL     1      44.227   2.958  10.129  0.00  0.00    +0.000 A 
ATOM     17  C   UNL     1      44.395   4.350  10.050  0.00  0.00    +0.000 A 
ATOM     18  C   UNL     1      45.294   4.855   9.104  0.00  0.00    +0.000 A 
ATOM     19  C   UNL     1      45.982   3.996   8.242  0.00  0.00    +0.000 A 
BRANCH  14  20
ATOM     20  C   UNL     1      46.630   1.738   7.369  0.00  0.00    +0.000 C 
BRANCH  20  21
ATOM     21  C   UNL     1      47.954   2.341   6.883  0.00  0.00    +0.000 C 
BRANCH  21  22
ATOM     22  N   UNL     1      48.372   1.726   5.615  0.00  0.00    +0.000 NA
ATOM     23  H   UNL     1      48.398   0.708   5.708  0.00  0.00    +0.000 HD
ATOM     24  H   UNL     1      49.323   2.017   5.392  0.00  0.00    +0.000 HD
ENDBRANCH  21  22
ENDBRANCH  20  21
ENDBRANCH  14  20
ENDBRANCH   1  17
TORSDOF 6
ENDMDL
MODEL 2
REMARK VINA RESULT:    -6.966      2.747      3.492
REMARK INTER + INTRA:          -9.905
REMARK INTER:                  -9.181
REMARK INTRA:                  -0.723
REMARK UNBOUND:                -0.699
REMARK  Name = 
REMARK  6 active torsions:
REMARK  status: ('A' for Active; 'I' for Inactive)
REMARK    1  A    between atoms: N_1  and  C_2
REMARK    2  A    between atoms: C_2  and  C_3
REMARK    3  A    between atoms: C_3  and  C_4
REMARK    4  A    between atoms: C_7  and  C_8
REMARK    5  A    between atoms: C_8  and  N_9
REMARK    6  A    between atoms: C_15  and  N_16
REMARK                            x       y       z     vdW  Elec       q    Type
REMARK                         _______ _______ _______ _____ _____    ______ ____
ROOT
ATOM      1  C   UNL     1      44.850   5.467  11.136  0.00  0.00    +0.000 C 
ENDROOT
BRANCH   1   2
ATOM      2  N   UNL     1      45.794   5.302  12.238  0.00  0.00    +0.000 N 
ATOM      3  C   UNL     1      45.508   4.582  13.375  0.00  0.00    +0.000 A 
ATOM      4  C   UNL     1      46.647   4.566  14.141  0.00  0.00    +0.000 A 
ATOM      5  C   UNL     1      47.329   5.753  13.787  0.00  0.00    +0.000 A 
ATOM      6  C   UNL     1      48.238   6.589  14.460  0.00  0.00    +0.000 A 
ATOM      7  C   UNL     1      48.787   7.676  13.783  0.00  0.00    +0.000 A 
ATOM      8  C   UNL     1      48.522   7.852  12.422  0.00  0.00    +0.000 A 
ATOM      9  C   UNL     1      47.579   7.058  11.737  0.00  0.00    +0.000 A 
ATOM     10  C   UNL     1      46.918   6.076  12.487  0.00  0.00    +0.000 A 
BRANCH   8  11
ATOM     11  N   UNL     1      49.219   8.917  11.693  0.00  0.00    +0.000 N 
ATOM     12  O   UNL     1      48.573   9.939  11.399  0.00  0.00    +0.000 OA
ATOM     13  O   UNL     1      50.407   8.735  11.417  0.00  0.00    +0.000 OA
ENDBRANCH   8  11
ENDBRANCH   1   2
BRANCH   1  17
ATOM     14  C   UNL     1      45.971   3.013   7.724  0.00  0.00    +0.000 A 
ATOM     15  C   UNL     1      46.361   4.355   7.794  0.00  0.00    +0.000 A 
ATOM     16  C   UNL     1      45.971   5.162   8.875  0.00  0.00    +0.000 A 
ATOM     17  C   UNL     1      45.180   4.644   9.914  0.00  0.00    +0.000 A 
ATOM     18  C   UNL     1      44.763   3.311   9.826  0.00  0.00    +0.000 A 
ATOM     19  C   UNL     1      45.153   2.510   8.748  0.00  0.00    +0.000 A 
BRANCH  14  20
ATOM     20  C   UNL     1      46.293   2.098   6.556  0.00  0.00    +0.000 C 
BRANCH  20  21
ATOM     21  C   UNL     1      47.348   2.606   5.563  0.00  0.00    +0.000 C 
BRANCH  21  22
ATOM     22  N   UNL     1      48.615   1.882   5.732  0.00  0.00    +0.000 NA
ATOM     23  H   UNL     1      49.405   2.502   5.540  0.00  0.00    +0.000 HD
ATOM     24  H   UNL     1      48.670   1.127   5.050  0.00  0.00    +0.000 HD
ENDBRANCH  21  22
ENDBRANCH  20  21
ENDBRANCH  14  20
ENDBRANCH   1  17
TORSDOF 6
ENDMDL
MODEL 3
REMARK VINA RESULT:    -6.507      2.948      6.695
REMARK INTER + INTRA:          -9.298
REMARK INTER:                  -8.576
REMARK INTRA:                  -0.722
REMARK UNBOUND:                -0.699
REMARK  Name = 
REMARK  6 active torsions:
REMARK  status: ('A' for Active; 'I' for Inactive)
REMARK    1  A    between atoms: N_1  and  C_2
REMARK    2  A    between atoms: C_2  and  C_3
REMARK    3  A    between atoms: C_3  and  C_4
REMARK    4  A    between atoms: C_7  and  C_8
REMARK    5  A    between atoms: C_8  and  N_9
REMARK    6  A    between atoms: C_15  and  N_16
REMARK                            x       y       z     vdW  Elec       q    Type
REMARK                         _______ _______ _______ _____ _____    ______ ____
ROOT
ATOM      1  C   UNL     1      45.078   7.245  11.338  0.00  0.00    +0.000 C 
ENDROOT
BRANCH   1   2
ATOM      2  N   UNL     1      44.335   5.989  11.291  0.00  0.00    +0.000 N 
ATOM      3  C   UNL     1      43.570   5.525  12.336  0.00  0.00    +0.000 A 
ATOM      4  C   UNL     1      42.952   4.377  11.908  0.00  0.00    +0.000 A 
ATOM      5  C   UNL     1      43.821   3.854  10.922  0.00  0.00    +0.000 A 
ATOM      6  C   UNL     1      44.077   2.556  10.441  0.00  0.00    +0.000 A 
ATOM      7  C   UNL     1      44.975   2.390   9.389  0.00  0.00    +0.000 A 
ATOM      8  C   UNL     1      45.513   3.511   8.752  0.00  0.00    +0.000 A 
ATOM      9  C   UNL     1      45.311   4.818   9.243  0.00  0.00    +0.000 A 
ATOM     10  C   UNL     1      44.537   4.941  10.405  0.00  0.00    +0.000 A 
BRANCH   8  11
ATOM     11  N   UNL     1      46.344   3.320   7.558  0.00  0.00    +0.000 N 
ATOM     12  O   UNL     1      46.851   2.200   7.375  0.00  0.00    +0.000 OA
ATOM     13  O   UNL     1      46.488   4.287   6.805  0.00  0.00    +0.000 OA
ENDBRANCH   8  11
ENDBRANCH   1   2
BRANCH   1  17
ATOM     14  C   UNL     1      48.429   7.402  14.107  0.00  0.00    +0.000 A 
ATOM     15  C   UNL     1      48.222   6.275  13.303  0.00  0.00    +0.000 A 
ATOM     16  C   UNL     1      47.121   6.204  12.434  0.00  0.00    +0.000 A 
ATOM     17  C   UNL     1      46.199   7.260  12.349  0.00  0.00    +0.000 A 
ATOM     18  C   UNL     1      46.389   8.372  13.178  0.00  0.00    +0.000 A 
ATOM     19  C   UNL     1      47.486   8.440  14.042  0.00  0.00    +0.000 A 
BRANCH  14  20
ATOM     20  C   UNL     1      49.554   7.524  15.119  0.00  0.00    +0.000 C 
BRANCH  20  21
ATOM     21  C   UNL     1      49.550   6.506  16.268  0.00  0.00    +0.000 C 
BRANCH  21  22
ATOM     22  N   UNL     1      48.246   6.492  16.947  0.00  0.00    +0.000 NA
ATOM     23  H   UNL     1      48.178   7.278  17.597  0.00  0.00    +0.000 HD
ATOM     24  H   UNL     1      48.165   5.646  17.509  0.00  0.00    +0.000 HD
ENDBRANCH  21  22
ENDBRANCH  20  21
ENDBRANCH  14  20
ENDBRANCH   1  17
TORSDOF 6
ENDMDL
MODEL 4
REMARK VINA RESULT:    -6.372      4.111      7.350
REMARK INTER + INTRA:          -9.120
REMARK INTER:                  -8.668
REMARK INTRA:                  -0.452
REMARK UNBOUND:                -0.699
REMARK  Name = 
REMARK  6 active torsions:
REMARK  status: ('A' for Active; 'I' for Inactive)
REMARK    1  A    between atoms: N_1  and  C_2
REMARK    2  A    between atoms: C_2  and  C_3
REMARK    3  A    between atoms: C_3  and  C_4
REMARK    4  A    between atoms: C_7  and  C_8
REMARK    5  A    between atoms: C_8  and  N_9
REMARK    6  A    between atoms: C_15  and  N_16
REMARK                            x       y       z     vdW  Elec       q    Type
REMARK                         _______ _______ _______ _____ _____    ______ ____
ROOT
ATOM      1  C   UNL     1      47.212   4.700  16.062  0.00  0.00    +0.000 C 
ENDROOT
BRANCH   1   2
ATOM      2  N   UNL     1      47.383   5.226  14.711  0.00  0.00    +0.000 N 
ATOM      3  C   UNL     1      48.141   6.339  14.425  0.00  0.00    +0.000 A 
ATOM      4  C   UNL     1      48.150   6.483  13.060  0.00  0.00    +0.000 A 
ATOM      5  C   UNL     1      46.937   5.894  12.634  0.00  0.00    +0.000 A 
ATOM      6  C   UNL     1      46.097   6.094  11.522  0.00  0.00    +0.000 A 
ATOM      7  C   UNL     1      44.979   5.278  11.365  0.00  0.00    +0.000 A 
ATOM      8  C   UNL     1      44.773   4.206  12.236  0.00  0.00    +0.000 A 
ATOM      9  C   UNL     1      45.571   4.013  13.384  0.00  0.00    +0.000 A 
ATOM     10  C   UNL     1      46.589   4.950  13.608  0.00  0.00    +0.000 A 
BRANCH   8  11
ATOM     11  N   UNL     1      43.671   3.275  11.971  0.00  0.00    +0.000 N 
ATOM     12  O   UNL     1      42.996   3.450  10.941  0.00  0.00    +0.000 OA
ATOM     13  O   UNL     1      43.482   2.370  12.788  0.00  0.00    +0.000 OA
ENDBRANCH   8  11
ENDBRANCH   1   2
BRANCH   1  17
ATOM     14  C   UNL     1      50.878   2.860  17.510  0.00  0.00    +0.000 A 
ATOM     15  C   UNL     1      49.856   2.075  16.963  0.00  0.00    +0.000 A 
ATOM     16  C   UNL     1      48.655   2.660  16.527  0.00  0.00    +0.000 A 
ATOM     17  C   UNL     1      48.448   4.046  16.630  0.00  0.00    +0.000 A 
ATOM     18  C   UNL     1      49.458   4.824  17.207  0.00  0.00    +0.000 A 
ATOM     19  C   UNL     1      50.652   4.239  17.640  0.00  0.00    +0.000 A 
BRANCH  14  20
ATOM     20  C   UNL     1      52.173   2.294  18.065  0.00  0.00    +0.000 C 
BRANCH  20  21
ATOM     21  C   UNL     1      52.612   0.931  17.515  0.00  0.00    +0.000 C 
BRANCH  21  22
ATOM     22  N   UNL     1      52.181  -0.155  18.407  0.00  0.00    +0.000 NA
ATOM     23  H   UNL     1      51.329  -0.592  18.047  0.00  0.00    +0.000 HD
ATOM     24  H   UNL     1      51.942   0.229  19.320  0.00  0.00    +0.000 HD
ENDBRANCH  21  22
ENDBRANCH  20  21
ENDBRANCH  14  20
ENDBRANCH   1  17
TORSDOF 6
ENDMDL
MODEL 5
REMARK VINA RESULT:    -6.299      3.385      6.768
REMARK INTER + INTRA:          -9.024
REMARK INTER:                  -8.356
REMARK INTRA:                  -0.668
REMARK UNBOUND:                -0.699
REMARK  Name = 
REMARK  6 active torsions:
REMARK  status: ('A' for Active; 'I' for Inactive)
REMARK    1  A    between atoms: N_1  and  C_2
REMARK    2  A    between atoms: C_2  and  C_3
REMARK    3  A    between atoms: C_3  and  C_4
REMARK    4  A    between atoms: C_7  and  C_8
REMARK    5  A    between atoms: C_8  and  N_9
REMARK    6  A    between atoms: C_15  and  N_16
REMARK                            x       y       z     vdW  Elec       q    Type
REMARK                         _______ _______ _______ _____ _____    ______ ____
ROOT
ATOM      1  C   UNL     1      47.799   6.327  12.498  0.00  0.00    +0.000 C 
ENDROOT
BRANCH   1   2
ATOM      2  N   UNL     1      46.520   6.852  12.030  0.00  0.00    +0.000 N 
ATOM      3  C   UNL     1      46.080   8.126  12.308  0.00  0.00    +0.000 A 
ATOM      4  C   UNL     1      44.895   8.301  11.637  0.00  0.00    +0.000 A 
ATOM      5  C   UNL     1      44.355   6.999  11.527  0.00  0.00    +0.000 A 
ATOM      6  C   UNL     1      43.046   6.496  11.416  0.00  0.00    +0.000 A 
ATOM      7  C   UNL     1      42.860   5.124  11.256  0.00  0.00    +0.000 A 
ATOM      8  C   UNL     1      43.966   4.288  11.090  0.00  0.00    +0.000 A 
ATOM      9  C   UNL     1      45.287   4.758  11.245  0.00  0.00    +0.000 A 
ATOM     10  C   UNL     1      45.439   6.113  11.570  0.00  0.00    +0.000 A 
BRANCH   8  11
ATOM     11  N   UNL     1      43.748   2.871  10.782  0.00  0.00    +0.000 N 
ATOM     12  O   UNL     1      42.979   2.227  11.519  0.00  0.00    +0.000 OA
ATOM     13  O   UNL     1      44.340   2.402   9.806  0.00  0.00    +0.000 OA
ENDBRANCH   8  11
ENDBRANCH   1   2
BRANCH   1  17
ATOM     14  C   UNL     1      48.020   5.118  16.671  0.00  0.00    +0.000 A 
ATOM     15  C   UNL     1      47.243   4.393  15.760  0.00  0.00    +0.000 A 
ATOM     16  C   UNL     1      47.139   4.800  14.420  0.00  0.00    +0.000 A 
ATOM     17  C   UNL     1      47.810   5.944  13.958  0.00  0.00    +0.000 A 
ATOM     18  C   UNL     1      48.560   6.687  14.877  0.00  0.00    +0.000 A 
ATOM     19  C   UNL     1      48.663   6.279  16.211  0.00  0.00    +0.000 A 
BRANCH  14  20
ATOM     20  C   UNL     1      48.127   4.782  18.148  0.00  0.00    +0.000 C 
BRANCH  20  21
ATOM     21  C   UNL     1      48.754   3.425  18.493  0.00  0.00    +0.000 C 
BRANCH  21  22
ATOM     22  N   UNL     1      48.330   2.979  19.828  0.00  0.00    +0.000 NA
ATOM     23  H   UNL     1      47.425   3.392  20.067  0.00  0.00    +0.000 HD
ATOM     24  H   UNL     1      48.991   3.317  20.526  0.00  0.00    +0.000 HD
ENDBRANCH  21  22
ENDBRANCH  20  21
ENDBRANCH  14  20
ENDBRANCH   1  17
TORSDOF 6
ENDMDL
MODEL 6
REMARK VINA RESULT:    -5.751      3.702      5.579
REMARK INTER + INTRA:          -8.299
REMARK INTER:                  -7.520
REMARK INTRA:                  -0.779
REMARK UNBOUND:                -0.699
REMARK  Name = 
REMARK  6 active torsions:
REMARK  status: ('A' for Active; 'I' for Inactive)
REMARK    1  A    between atoms: N_1  and  C_2
REMARK    2  A    between atoms: C_2  and  C_3
REMARK    3  A    between atoms: C_3  and  C_4
REMARK    4  A    between atoms: C_7  and  C_8
REMARK    5  A    between atoms: C_8  and  N_9
REMARK    6  A    between atoms: C_15  and  N_16
REMARK                            x       y       z     vdW  Elec       q    Type
REMARK                         _______ _______ _______ _____ _____    ______ ____
ROOT
ATOM      1  C   UNL     1      48.792   7.552  13.440  0.00  0.00    +0.000 C 
ENDROOT
BRANCH   1   2
ATOM      2  N   UNL     1      48.906   7.676  14.889  0.00  0.00    +0.000 N 
ATOM      3  C   UNL     1      49.590   8.698  15.508  0.00  0.00    +0.000 A 
ATOM      4  C   UNL     1      49.410   8.546  16.860  0.00  0.00    +0.000 A 
ATOM      5  C   UNL     1      49.200   7.159  17.035  0.00  0.00    +0.000 A 
ATOM      6  C   UNL     1      49.424   6.269  18.103  0.00  0.00    +0.000 A 
ATOM      7  C   UNL     1      49.035   4.938  17.966  0.00  0.00    +0.000 A 
ATOM      8  C   UNL     1      48.329   4.534  16.831  0.00  0.00    +0.000 A 
ATOM      9  C   UNL     1      48.134   5.392  15.728  0.00  0.00    +0.000 A 
ATOM     10  C   UNL     1      48.682   6.678  15.826  0.00  0.00    +0.000 A 
BRANCH   8  11
ATOM     11  N   UNL     1      47.805   3.165  16.768  0.00  0.00    +0.000 N 
ATOM     12  O   UNL     1      46.776   2.905  17.417  0.00  0.00    +0.000 OA
ATOM     13  O   UNL     1      48.420   2.352  16.072  0.00  0.00    +0.000 OA
ENDBRANCH   8  11
ENDBRANCH   1   2
BRANCH   1  17
ATOM     14  C   UNL     1      44.808   6.846  11.841  0.00  0.00    +0.000 A 
ATOM     15  C   UNL     1      45.092   8.018  12.550  0.00  0.00    +0.000 A 
ATOM     16  C   UNL     1      46.367   8.235  13.100  0.00  0.00    +0.000 A 
ATOM     17  C   UNL     1      47.388   7.281  12.953  0.00  0.00    +0.000 A 
ATOM     18  C   UNL     1      47.092   6.095  12.272  0.00  0.00    +0.000 A 
ATOM     19  C   UNL     1      45.823   5.882  11.726  0.00  0.00    +0.000 A 
BRANCH  14  20
ATOM     20  C   UNL     1      43.439   6.509  11.278  0.00  0.00    +0.000 C 
BRANCH  20  21
ATOM     21  C   UNL     1      42.750   5.267  11.860  0.00  0.00    +0.000 C 
BRANCH  21  22
ATOM     22  N   UNL     1      42.664   5.358  13.324  0.00  0.00    +0.000 NA
ATOM     23  H   UNL     1      43.181   6.174  13.659  0.00  0.00    +0.000 HD
ATOM     24  H   UNL     1      43.111   4.544  13.743  0.00  0.00    +0.000 HD
ENDBRANCH  21  22
ENDBRANCH  20  21
ENDBRANCH  14  20
ENDBRANCH   1  17
TORSDOF 6
ENDMDL
MODEL 7
REMARK VINA RESULT:    -5.381      3.325      5.098
REMARK INTER + INTRA:          -7.810
REMARK INTER:                  -7.161
REMARK INTRA:                  -0.649
REMARK UNBOUND:                -0.699
REMARK  Name = 
REMARK  6 active torsions:
REMARK  status: ('A' for Active; 'I' for Inactive)
REMARK    1  A    between atoms: N_1  and  C_2
REMARK    2  A    between atoms: C_2  and  C_3
REMARK    3  A    between atoms: C_3  and  C_4
REMARK    4  A    between atoms: C_7  and  C_8
REMARK    5  A    between atoms: C_8  and  N_9
REMARK    6  A    between atoms: C_15  and  N_16
REMARK                            x       y       z     vdW  Elec       q    Type
REMARK                         _______ _______ _______ _____ _____    ______ ____
ROOT
ATOM      1  C   UNL     1      48.742   6.738  13.487  0.00  0.00    +0.000 C 
ENDROOT
BRANCH   1   2
ATOM      2  N   UNL     1      48.547   7.487  14.725  0.00  0.00    +0.000 N 
ATOM      3  C   UNL     1      48.494   8.861  14.776  0.00  0.00    +0.000 A 
ATOM      4  C   UNL     1      48.211   9.208  16.074  0.00  0.00    +0.000 A 
ATOM      5  C   UNL     1      48.729   8.143  16.846  0.00  0.00    +0.000 A 
ATOM      6  C   UNL     1      49.213   8.043  18.163  0.00  0.00    +0.000 A 
ATOM      7  C   UNL     1      49.601   6.795  18.648  0.00  0.00    +0.000 A 
ATOM      8  C   UNL     1      49.394   5.653  17.871  0.00  0.00    +0.000 A 
ATOM      9  C   UNL     1      48.957   5.730  16.532  0.00  0.00    +0.000 A 
ATOM     10  C   UNL     1      48.733   7.014  16.016  0.00  0.00    +0.000 A 
BRANCH   8  11
ATOM     11  N   UNL     1      49.677   4.336  18.452  0.00  0.00    +0.000 N 
ATOM     12  O   UNL     1      48.725   3.696  18.934  0.00  0.00    +0.000 OA
ATOM     13  O   UNL     1      50.846   3.942  18.427  0.00  0.00    +0.000 OA
ENDBRANCH   8  11
ENDBRANCH   1   2
BRANCH   1  17
ATOM     14  C   UNL     1      44.996   5.091  12.013  0.00  0.00    +0.000 A 
ATOM     15  C   UNL     1      45.598   4.571  13.165  0.00  0.00    +0.000 A 
ATOM     16  C   UNL     1      46.826   5.075  13.625  0.00  0.00    +0.000 A 
ATOM     17  C   UNL     1      47.482   6.112  12.941  0.00  0.00    +0.000 A 
ATOM     18  C   UNL     1      46.895   6.608  11.771  0.00  0.00    +0.000 A 
ATOM     19  C   UNL     1      45.672   6.104  11.316  0.00  0.00    +0.000 A 
BRANCH  14  20
ATOM     20  C   UNL     1      43.707   4.554  11.416  0.00  0.00    +0.000 C 
BRANCH  20  21
ATOM     21  C   UNL     1      43.770   3.141  10.820  0.00  0.00    +0.000 C 
BRANCH  21  22
ATOM     22  N   UNL     1      43.035   2.186  11.663  0.00  0.00    +0.000 NA
ATOM     23  H   UNL     1      43.112   1.243  11.276  0.00  0.00    +0.000 HD
ATOM     24  H   UNL     1      42.044   2.419  11.657  0.00  0.00    +0.000 HD
ENDBRANCH  21  22
ENDBRANCH  20  21
ENDBRANCH  14  20
ENDBRANCH   1  17
TORSDOF 6
ENDMDL
MODEL 8
REMARK VINA RESULT:    -5.346      3.652      6.336
REMARK INTER + INTRA:          -7.764
REMARK INTER:                  -7.150
REMARK INTRA:                  -0.614
REMARK UNBOUND:                -0.699
REMARK  Name = 
REMARK  6 active torsions:
REMARK  status: ('A' for Active; 'I' for Inactive)
REMARK    1  A    between atoms: N_1  and  C_2
REMARK    2  A    between atoms: C_2  and  C_3
REMARK    3  A    between atoms: C_3  and  C_4
REMARK    4  A    between atoms: C_7  and  C_8
REMARK    5  A    between atoms: C_8  and  N_9
REMARK    6  A    between atoms: C_15  and  N_16
REMARK                            x       y       z     vdW  Elec       q    Type
REMARK                         _______ _______ _______ _____ _____    ______ ____
ROOT
ATOM      1  C   UNL     1      47.476   6.402  13.471  0.00  0.00    +0.000 C 
ENDROOT
BRANCH   1   2
ATOM      2  N   UNL     1      46.365   6.920  12.678  0.00  0.00    +0.000 N 
ATOM      3  C   UNL     1      45.897   8.210  12.784  0.00  0.00    +0.000 A 
ATOM      4  C   UNL     1      44.920   8.366  11.834  0.00  0.00    +0.000 A 
ATOM      5  C   UNL     1      44.396   7.066  11.647  0.00  0.00    +0.000 A 
ATOM      6  C   UNL     1      43.145   6.572  11.235  0.00  0.00    +0.000 A 
ATOM      7  C   UNL     1      42.975   5.197  11.090  0.00  0.00    +0.000 A 
ATOM      8  C   UNL     1      44.070   4.342  11.239  0.00  0.00    +0.000 A 
ATOM      9  C   UNL     1      45.321   4.805  11.698  0.00  0.00    +0.000 A 
ATOM     10  C   UNL     1      45.416   6.172  11.995  0.00  0.00    +0.000 A 
BRANCH   8  11
ATOM     11  N   UNL     1      43.904   2.915  10.946  0.00  0.00    +0.000 N 
ATOM     12  O   UNL     1      44.627   2.414  10.067  0.00  0.00    +0.000 OA
ATOM     13  O   UNL     1      43.054   2.296  11.592  0.00  0.00    +0.000 OA
ENDBRANCH   8  11
ENDBRANCH   1   2
BRANCH   1  17
ATOM     14  C   UNL     1      51.219   8.431  12.576  0.00  0.00    +0.000 A 
ATOM     15  C   UNL     1      50.405   7.951  11.543  0.00  0.00    +0.000 A 
ATOM     16  C   UNL     1      49.213   7.263  11.827  0.00  0.00    +0.000 A 
ATOM     17  C   UNL     1      48.808   7.039  13.153  0.00  0.00    +0.000 A 
ATOM     18  C   UNL     1      49.639   7.490  14.184  0.00  0.00    +0.000 A 
ATOM     19  C   UNL     1      50.825   8.175  13.898  0.00  0.00    +0.000 A 
BRANCH  14  20
ATOM     20  C   UNL     1      52.552   9.122  12.350  0.00  0.00    +0.000 C 
BRANCH  20  21
ATOM     21  C   UNL     1      53.804   8.337  12.764  0.00  0.00    +0.000 C 
BRANCH  21  22
ATOM     22  N   UNL     1      54.037   7.208  11.852  0.00  0.00    +0.000 NA
ATOM     23  H   UNL     1      54.932   6.762  12.064  0.00  0.00    +0.000 HD
ATOM     24  H   UNL     1      54.108   7.553  10.896  0.00  0.00    +0.000 HD
ENDBRANCH  21  22
ENDBRANCH  20  21
ENDBRANCH  14  20
ENDBRANCH   1  17
TORSDOF 6
ENDMDL
