MODEL 1
REMARK VINA RESULT:    -7.396      0.000      0.000
REMARK INTER + INTRA:          -9.549
REMARK INTER:                  -8.910
REMARK INTRA:                  -0.639
REMARK UNBOUND:                -0.639
REMARK  Name = 
REMARK  6 active torsions:
REMARK  status: ('A' for Active; 'I' for Inactive)
REMARK    1  A    between atoms: C_1  and  C_2
REMARK    2  A    between atoms: C_2  and  C_3
REMARK    3  A    between atoms: C_2  and  N_4
REMARK    4  A    between atoms: C_2  and  C_5
REMARK    5  A    between atoms: C_8  and  C_9
REMARK    6  A    between atoms: C_9  and  N_10
REMARK                            x       y       z     vdW  Elec       q    Type
REMARK                         _______ _______ _______ _____ _____    ______ ____
ROOT
ATOM      1  C   UNL     1      46.084   2.962   7.846  0.00  0.00    +0.000 A 
ATOM      2  C   UNL     1      45.299   2.234   8.751  0.00  0.00    +0.000 A 
ATOM      3  C   UNL     1      44.525   2.888   9.713  0.00  0.00    +0.000 A 
ATOM      4  C   UNL     1      44.555   4.277   9.762  0.00  0.00    +0.000 A 
ATOM      5  N   UNL     1      45.309   5.010   8.906  0.00  0.00    +0.000 NA
ATOM      6  C   UNL     1      46.041   4.346   7.982  0.00  0.00    +0.000 A 
ENDROOT
BRANCH   1   8
ATOM      7  C   UNL     1      46.418   2.474   5.442  0.00  0.00    +0.000 C 
ATOM      8  C   UNL     1      47.018   2.285   6.846  0.00  0.00    +0.000 C 
ATOM      9  C   UNL     1      47.223   0.781   7.117  0.00  0.00    +0.000 C 
BRANCH   8  10
ATOM     10  N   UNL     1      48.357   2.902   6.854  0.00  0.00    +0.000 NA
ATOM     11  H   UNL     1      48.774   2.831   5.927  0.00  0.00    +0.000 HD
ATOM     12  H   UNL     1      48.966   2.370   7.477  0.00  0.00    +0.000 HD
ENDBRANCH   8  10
ENDBRANCH   1   8
BRANCH   4  13
ATOM     13  C   UNL     1      43.669   5.052  10.690  0.00  0.00    +0.000 C 
BRANCH  13  14
ATOM     14  N   UNL     1      44.379   5.864  11.662  0.00  0.00    +0.000 N 
ATOM     15  N   UNL     1      44.550   7.178  11.372  0.00  0.00    +0.000 NA
ATOM     16  N   UNL     1      45.752   7.533  11.806  0.00  0.00    +0.000 NA
ATOM     17  C   UNL     1      46.294   6.469  12.482  0.00  0.00    +0.000 A 
ATOM     18  C   UNL     1      47.543   6.287  13.064  0.00  0.00    +0.000 A 
ATOM     19  N   UNL     1      47.823   5.133  13.729  0.00  0.00    +0.000 NA
ATOM     20  C   UNL     1      46.864   4.178  13.812  0.00  0.00    +0.000 A 
ATOM     21  C   UNL     1      45.610   4.243  13.214  0.00  0.00    +0.000 A 
ATOM     22  C   UNL     1      45.372   5.427  12.518  0.00  0.00    +0.000 A 
ENDBRANCH  13  14
ENDBRANCH   4  13
TORSDOF 4
ENDMDL
MODEL 2
REMARK VINA RESULT:    -6.245      2.454      6.914
REMARK INTER + INTRA:          -8.161
REMARK INTER:                  -7.704
REMARK INTRA:                  -0.458
REMARK UNBOUND:                -0.639
REMARK  Name = 
REMARK  6 active torsions:
REMARK  status: ('A' for Active; 'I' for Inactive)
REMARK    1  A    between atoms: C_1  and  C_2
REMARK    2  A    between atoms: C_2  and  C_3
REMARK    3  A    between atoms: C_2  and  N_4
REMARK    4  A    between atoms: C_2  and  C_5
REMARK    5  A    between atoms: C_8  and  C_9
REMARK    6  A    between atoms: C_9  and  N_10
REMARK                            x       y       z     vdW  Elec       q    Type
REMARK                         _______ _______ _______ _____ _____    ______ ____
ROOT
ATOM      1  C   UNL     1      47.792   4.406  16.062  0.00  0.00    +0.000 A 
ATOM      2  C   UNL     1      48.273   5.717  15.940  0.00  0.00    +0.000 A 
ATOM      3  C   UNL     1      48.150   6.415  14.736  0.00  0.00    +0.000 A 
ATOM      4  C   UNL     1      47.549   5.781  13.656  0.00  0.00    +0.000 A 
ATOM      5  N   UNL     1      47.078   4.512  13.738  0.00  0.00    +0.000 NA
ATOM      6  C   UNL     1      47.207   3.866  14.920  0.00  0.00    +0.000 A 
ENDROOT
BRANCH   1   8
ATOM      7  C   UNL     1      48.370   4.539  18.465  0.00  0.00    +0.000 C 
ATOM      8  C   UNL     1      47.994   3.575  17.327  0.00  0.00    +0.000 C 
ATOM      9  C   UNL     1      49.087   2.497  17.187  0.00  0.00    +0.000 C 
BRANCH   8  10
ATOM     10  N   UNL     1      46.757   2.875  17.716  0.00  0.00    +0.000 NA
ATOM     11  H   UNL     1      45.947   3.376  17.351  0.00  0.00    +0.000 HD
ATOM     12  H   UNL     1      46.666   2.897  18.732  0.00  0.00    +0.000 HD
ENDBRANCH   8  10
ENDBRANCH   1   8
BRANCH   4  13
ATOM     13  C   UNL     1      47.280   6.501  12.369  0.00  0.00    +0.000 C 
BRANCH  13  14
ATOM     14  N   UNL     1      45.889   6.493  11.955  0.00  0.00    +0.000 N 
ATOM     15  N   UNL     1      44.954   6.768  12.899  0.00  0.00    +0.000 NA
ATOM     16  N   UNL     1      43.904   5.992  12.665  0.00  0.00    +0.000 NA
ATOM     17  C   UNL     1      44.129   5.311  11.495  0.00  0.00    +0.000 A 
ATOM     18  C   UNL     1      43.390   4.330  10.846  0.00  0.00    +0.000 A 
ATOM     19  N   UNL     1      43.814   3.837   9.650  0.00  0.00    +0.000 NA
ATOM     20  C   UNL     1      44.960   4.325   9.113  0.00  0.00    +0.000 A 
ATOM     21  C   UNL     1      45.796   5.260   9.714  0.00  0.00    +0.000 A 
ATOM     22  C   UNL     1      45.342   5.718  10.950  0.00  0.00    +0.000 A 
ENDBRANCH  13  14
ENDBRANCH   4  13
TORSDOF 4
ENDMDL
MODEL 3
REMARK VINA RESULT:    -6.168      1.811      5.765
REMARK INTER + INTRA:          -8.070
REMARK INTER:                  -7.531
REMARK INTRA:                  -0.539
REMARK UNBOUND:                -0.639
REMARK  Name = 
REMARK  6 active torsions:
REMARK  status: ('A' for Active; 'I' for Inactive)
REMARK    1  A    between atoms: C_1  and  C_2
REMARK    2  A    between atoms: C_2  and  C_3
REMARK    3  A    between atoms: C_2  and  N_4
REMARK    4  A    between atoms: C_2  and  C_5
REMARK    5  A    between atoms: C_8  and  C_9
REMARK    6  A    between atoms: C_9  and  N_10
REMARK                            x       y       z     vdW  Elec       q    Type
REMARK                         _______ _______ _______ _____ _____    ______ ____
ROOT
ATOM      1  C   UNL     1      47.249   6.866  12.504  0.00  0.00    +0.000 A 
ATOM      2  C   UNL     1      46.850   5.595  12.943  0.00  0.00    +0.000 A 
ATOM      3  C   UNL     1      45.552   5.133  12.709  0.00  0.00    +0.000 A 
ATOM      4  C   UNL     1      44.659   5.961  12.039  0.00  0.00    +0.000 A 
ATOM      5  N   UNL     1      45.012   7.197  11.607  0.00  0.00    +0.000 NA
ATOM      6  C   UNL     1      46.278   7.612  11.844  0.00  0.00    +0.000 A 
ENDROOT
BRANCH   1   8
ATOM      7  C   UNL     1      48.413   8.848  13.423  0.00  0.00    +0.000 C 
ATOM      8  C   UNL     1      48.624   7.447  12.824  0.00  0.00    +0.000 C 
ATOM      9  C   UNL     1      49.550   7.550  11.596  0.00  0.00    +0.000 C 
BRANCH   8  10
ATOM     10  N   UNL     1      49.335   6.629  13.823  0.00  0.00    +0.000 NA
ATOM     11  H   UNL     1      48.936   5.691  13.849  0.00  0.00    +0.000 HD
ATOM     12  H   UNL     1      49.181   7.025  14.751  0.00  0.00    +0.000 HD
ENDBRANCH   8  10
ENDBRANCH   1   8
BRANCH   4  13
ATOM     13  C   UNL     1      43.289   5.494  11.653  0.00  0.00    +0.000 C 
BRANCH  13  14
ATOM     14  N   UNL     1      43.270   4.278  10.859  0.00  0.00    +0.000 N 
ATOM     15  N   UNL     1      42.871   3.136  11.474  0.00  0.00    +0.000 NA
ATOM     16  N   UNL     1      43.616   2.145  11.005  0.00  0.00    +0.000 NA
ATOM     17  C   UNL     1      44.407   2.642  10.000  0.00  0.00    +0.000 A 
ATOM     18  C   UNL     1      45.407   2.051   9.238  0.00  0.00    +0.000 A 
ATOM     19  N   UNL     1      46.021   2.760   8.252  0.00  0.00    +0.000 NA
ATOM     20  C   UNL     1      45.635   4.042   8.032  0.00  0.00    +0.000 A 
ATOM     21  C   UNL     1      44.690   4.736   8.779  0.00  0.00    +0.000 A 
ATOM     22  C   UNL     1      44.105   3.985   9.798  0.00  0.00    +0.000 A 
ENDBRANCH  13  14
ENDBRANCH   4  13
TORSDOF 4
ENDMDL
MODEL 4
REMARK VINA RESULT:    -6.128      2.403      6.411
REMARK INTER + INTRA:          -8.021
REMARK INTER:                  -7.650
REMARK INTRA:                  -0.371
REMARK UNBOUND:                -0.639
REMARK  Name = 
REMARK  6 active torsions:
REMARK  status: ('A' for Active; 'I' for Inactive)
REMARK    1  A    between atoms: C_1  and  C_2
REMARK    2  A    between atoms: C_2  and  C_3
REMARK    3  A    between atoms: C_2  and  N_4
REMARK    4  A    between atoms: C_2  and  C_5
REMARK    5  A    between atoms: C_8  and  C_9
REMARK    6  A    between atoms: C_9  and  N_10
REMARK                            x       y       z     vdW  Elec       q    Type
REMARK                         _______ _______ _______ _____ _____    ______ ____
ROOT
ATOM      1  C   UNL     1      47.144   8.567  12.580  0.00  0.00    +0.000 A 
ATOM      2  C   UNL     1      45.747   8.470  12.664  0.00  0.00    +0.000 A 
ATOM      3  C   UNL     1      45.122   7.226  12.779  0.00  0.00    +0.000 A 
ATOM      4  C   UNL     1      45.912   6.082  12.801  0.00  0.00    +0.000 A 
ATOM      5  N   UNL     1      47.264   6.140  12.716  0.00  0.00    +0.000 NA
ATOM      6  C   UNL     1      47.838   7.361  12.611  0.00  0.00    +0.000 A 
ENDROOT
BRANCH   1   8
ATOM      7  C   UNL     1      46.904  10.816  11.575  0.00  0.00    +0.000 C 
ATOM      8  C   UNL     1      47.859   9.896  12.355  0.00  0.00    +0.000 C 
ATOM      9  C   UNL     1      49.184   9.758  11.579  0.00  0.00    +0.000 C 
BRANCH   8  10
ATOM     10  N   UNL     1      48.184  10.558  13.632  0.00  0.00    +0.000 NA
ATOM     11  H   UNL     1      47.703  11.456  13.687  0.00  0.00    +0.000 HD
ATOM     12  H   UNL     1      49.182  10.772  13.653  0.00  0.00    +0.000 HD
ENDBRANCH   8  10
ENDBRANCH   1   8
BRANCH   4  13
ATOM     13  C   UNL     1      45.323   4.724  13.034  0.00  0.00    +0.000 C 
BRANCH  13  14
ATOM     14  N   UNL     1      44.431   4.266  11.985  0.00  0.00    +0.000 N 
ATOM     15  N   UNL     1      43.500   3.336  12.316  0.00  0.00    +0.000 NA
ATOM     16  N   UNL     1      43.381   2.502  11.292  0.00  0.00    +0.000 NA
ATOM     17  C   UNL     1      44.150   2.979  10.261  0.00  0.00    +0.000 A 
ATOM     18  C   UNL     1      44.433   2.455   9.006  0.00  0.00    +0.000 A 
ATOM     19  N   UNL     1      45.203   3.159   8.132  0.00  0.00    +0.000 NA
ATOM     20  C   UNL     1      45.678   4.372   8.510  0.00  0.00    +0.000 A 
ATOM     21  C   UNL     1      45.499   4.950   9.761  0.00  0.00    +0.000 A 
ATOM     22  C   UNL     1      44.730   4.186  10.638  0.00  0.00    +0.000 A 
ENDBRANCH  13  14
ENDBRANCH   4  13
TORSDOF 4
ENDMDL
MODEL 5
REMARK VINA RESULT:    -6.113      1.674      6.188
REMARK INTER + INTRA:          -8.002
REMARK INTER:                  -7.859
REMARK INTRA:                  -0.143
REMARK UNBOUND:                -0.639
REMARK  Name = 
REMARK  6 active torsions:
REMARK  status: ('A' for Active; 'I' for Inactive)
REMARK    1  A    between atoms: C_1  and  C_2
REMARK    2  A    between atoms: C_2  and  C_3
REMARK    3  A    between atoms: C_2  and  N_4
REMARK    4  A    between atoms: C_2  and  C_5
REMARK    5  A    between atoms: C_8  and  C_9
REMARK    6  A    between atoms: C_9  and  N_10
REMARK                            x       y       z     vdW  Elec       q    Type
REMARK                         _______ _______ _______ _____ _____    ______ ____
ROOT
ATOM      1  C   UNL     1      46.458   5.507  12.197  0.00  0.00    +0.000 A 
ATOM      2  C   UNL     1      45.694   4.332  12.246  0.00  0.00    +0.000 A 
ATOM      3  C   UNL     1      44.945   3.920  11.140  0.00  0.00    +0.000 A 
ATOM      4  C   UNL     1      44.965   4.703   9.992  0.00  0.00    +0.000 A 
ATOM      5  N   UNL     1      45.688   5.847   9.914  0.00  0.00    +0.000 NA
ATOM      6  C   UNL     1      46.407   6.215  11.000  0.00  0.00    +0.000 A 
ENDROOT
BRANCH   1   8
ATOM      7  C   UNL     1      48.674   6.267  12.997  0.00  0.00    +0.000 C 
ATOM      8  C   UNL     1      47.209   6.044  13.413  0.00  0.00    +0.000 C 
ATOM      9  C   UNL     1      47.162   5.100  14.631  0.00  0.00    +0.000 C 
BRANCH   8  10
ATOM     10  N   UNL     1      46.662   7.337  13.858  0.00  0.00    +0.000 NA
ATOM     11  H   UNL     1      47.172   8.100  13.413  0.00  0.00    +0.000 HD
ATOM     12  H   UNL     1      46.823   7.441  14.861  0.00  0.00    +0.000 HD
ENDBRANCH   8  10
ENDBRANCH   1   8
BRANCH   4  13
ATOM     13  C   UNL     1      44.280   4.270   8.731  0.00  0.00    +0.000 C 
BRANCH  13  14
ATOM     14  N   UNL     1      44.707   2.976   8.229  0.00  0.00    +0.000 N 
ATOM     15  N   UNL     1      44.502   1.897   9.026  0.00  0.00    +0.000 NA
ATOM     16  N   UNL     1      45.542   1.088   8.884  0.00  0.00    +0.000 NA
ATOM     17  C   UNL     1      46.350   1.599   7.900  0.00  0.00    +0.000 A 
ATOM     18  C   UNL     1      47.586   1.185   7.417  0.00  0.00    +0.000 A 
ATOM     19  N   UNL     1      48.170   1.850   6.383  0.00  0.00    +0.000 NA
ATOM     20  C   UNL     1      47.523   2.911   5.840  0.00  0.00    +0.000 A 
ATOM     21  C   UNL     1      46.316   3.434   6.292  0.00  0.00    +0.000 A 
ATOM     22  C   UNL     1      45.764   2.744   7.370  0.00  0.00    +0.000 A 
ENDBRANCH  13  14
ENDBRANCH   4  13
TORSDOF 4
ENDMDL
MODEL 6
REMARK VINA RESULT:    -5.683      1.799      2.703
REMARK INTER + INTRA:          -7.485
REMARK INTER:                  -7.056
REMARK INTRA:                  -0.429
REMARK UNBOUND:                -0.639
REMARK  Name = 
REMARK  6 active torsions:
REMARK  status: ('A' for Active; 'I' for Inactive)
REMARK    1  A    between atoms: C_1  and  C_2
REMARK    2  A    between atoms: C_2  and  C_3
REMARK    3  A    between atoms: C_2  and  N_4
REMARK    4  A    between atoms: C_2  and  C_5
REMARK    5  A    between atoms: C_8  and  C_9
REMARK    6  A    between atoms: C_9  and  N_10
REMARK                            x       y       z     vdW  Elec       q    Type
REMARK                         _______ _______ _______ _____ _____    ______ ____
ROOT
ATOM      1  C   UNL     1      46.381   2.743   7.660  0.00  0.00    +0.000 A 
ATOM      2  C   UNL     1      45.677   2.173   8.730  0.00  0.00    +0.000 A 
ATOM      3  C   UNL     1      45.098   2.977   9.714  0.00  0.00    +0.000 A 
ATOM      4  C   UNL     1      45.241   4.356   9.618  0.00  0.00    +0.000 A 
ATOM      5  N   UNL     1      45.921   4.939   8.600  0.00  0.00    +0.000 NA
ATOM      6  C   UNL     1      46.464   4.132   7.660  0.00  0.00    +0.000 A 
ENDROOT
BRANCH   1   8
ATOM      7  C   UNL     1      46.627   2.345   5.229  0.00  0.00    +0.000 C 
ATOM      8  C   UNL     1      47.111   1.898   6.619  0.00  0.00    +0.000 C 
ATOM      9  C   UNL     1      46.874   0.383   6.780  0.00  0.00    +0.000 C 
BRANCH   8  10
ATOM     10  N   UNL     1      48.569   2.106   6.680  0.00  0.00    +0.000 NA
ATOM     11  H   UNL     1      49.024   1.580   5.934  0.00  0.00    +0.000 HD
ATOM     12  H   UNL     1      48.926   1.718   7.555  0.00  0.00    +0.000 HD
ENDBRANCH   8  10
ENDBRANCH   1   8
BRANCH   4  13
ATOM     13  C   UNL     1      44.555   5.288  10.572  0.00  0.00    +0.000 C 
BRANCH  13  14
ATOM     14  N   UNL     1      45.406   6.337  11.104  0.00  0.00    +0.000 N 
ATOM     15  N   UNL     1      46.348   5.978  12.012  0.00  0.00    +0.000 NA
ATOM     16  N   UNL     1      46.427   6.945  12.915  0.00  0.00    +0.000 NA
ATOM     17  C   UNL     1      45.619   7.976  12.509  0.00  0.00    +0.000 A 
ATOM     18  C   UNL     1      45.286   9.180  13.118  0.00  0.00    +0.000 A 
ATOM     19  N   UNL     1      44.484  10.071  12.474  0.00  0.00    +0.000 NA
ATOM     20  C   UNL     1      44.024   9.760  11.236  0.00  0.00    +0.000 A 
ATOM     21  C   UNL     1      44.252   8.559  10.573  0.00  0.00    +0.000 A 
ATOM     22  C   UNL     1      45.054   7.662  11.277  0.00  0.00    +0.000 A 
ENDBRANCH  13  14
ENDBRANCH   4  13
TORSDOF 4
ENDMDL
MODEL 7
REMARK VINA RESULT:    -5.384      3.419      5.339
REMARK INTER + INTRA:          -7.125
REMARK INTER:                  -6.604
REMARK INTRA:                  -0.520
REMARK UNBOUND:                -0.639
REMARK  Name = 
REMARK  6 active torsions:
REMARK  status: ('A' for Active; 'I' for Inactive)
REMARK    1  A    between atoms: C_1  and  C_2
REMARK    2  A    between atoms: C_2  and  C_3
REMARK    3  A    between atoms: C_2  and  N_4
REMARK    4  A    between atoms: C_2  and  C_5
REMARK    5  A    between atoms: C_8  and  C_9
REMARK    6  A    between atoms: C_9  and  N_10
REMARK                            x       y       z     vdW  Elec       q    Type
REMARK                         _______ _______ _______ _____ _____    ______ ____
ROOT
ATOM      1  C   UNL     1      44.896   5.169  11.848  0.00  0.00    +0.000 A 
ATOM      2  C   UNL     1      45.462   4.580  12.988  0.00  0.00    +0.000 A 
ATOM      3  C   UNL     1      46.678   5.038  13.500  0.00  0.00    +0.000 A 
ATOM      4  C   UNL     1      47.324   6.084  12.852  0.00  0.00    +0.000 A 
ATOM      5  N   UNL     1      46.807   6.671  11.745  0.00  0.00    +0.000 NA
ATOM      6  C   UNL     1      45.625   6.208  11.278  0.00  0.00    +0.000 A 
ENDROOT
BRANCH   1   8
ATOM      7  C   UNL     1      42.436   5.432  11.772  0.00  0.00    +0.000 C 
ATOM      8  C   UNL     1      43.621   4.635  11.200  0.00  0.00    +0.000 C 
ATOM      9  C   UNL     1      43.391   3.130  11.443  0.00  0.00    +0.000 C 
BRANCH   8  10
ATOM     10  N   UNL     1      43.636   4.831   9.739  0.00  0.00    +0.000 NA
ATOM     11  H   UNL     1      44.414   5.436   9.480  0.00  0.00    +0.000 HD
ATOM     12  H   UNL     1      42.789   5.328   9.460  0.00  0.00    +0.000 HD
ENDBRANCH   8  10
ENDBRANCH   1   8
BRANCH   4  13
ATOM     13  C   UNL     1      48.572   6.703  13.405  0.00  0.00    +0.000 C 
BRANCH  13  14
ATOM     14  N   UNL     1      48.389   7.405  14.663  0.00  0.00    +0.000 N 
ATOM     15  N   UNL     1      48.409   8.761  14.630  0.00  0.00    +0.000 NA
ATOM     16  N   UNL     1      49.023   9.181  15.728  0.00  0.00    +0.000 NA
ATOM     17  C   UNL     1      49.285   8.090  16.516  0.00  0.00    +0.000 A 
ATOM     18  C   UNL     1      49.966   7.967  17.721  0.00  0.00    +0.000 A 
ATOM     19  N   UNL     1      50.049   6.756  18.336  0.00  0.00    +0.000 NA
ATOM     20  C   UNL     1      49.454   5.685  17.754  0.00  0.00    +0.000 A 
ATOM     21  C   UNL     1      48.804   5.697  16.524  0.00  0.00    +0.000 A 
ATOM     22  C   UNL     1      48.766   6.949  15.912  0.00  0.00    +0.000 A 
ENDBRANCH  13  14
ENDBRANCH   4  13
TORSDOF 4
ENDMDL
MODEL 8
REMARK VINA RESULT:    -5.363      3.321      5.599
REMARK INTER + INTRA:          -7.099
REMARK INTER:                  -6.790
REMARK INTRA:                  -0.309
REMARK UNBOUND:                -0.639
REMARK  Name = 
REMARK  6 active torsions:
REMARK  status: ('A' for Active; 'I' for Inactive)
REMARK    1  A    between atoms: C_1  and  C_2
REMARK    2  A    between atoms: C_2  and  C_3
REMARK    3  A    between atoms: C_2  and  N_4
REMARK    4  A    between atoms: C_2  and  C_5
REMARK    5  A    between atoms: C_8  and  C_9
REMARK    6  A    between atoms: C_9  and  N_10
REMARK                            x       y       z     vdW  Elec       q    Type
REMARK                         _______ _______ _______ _____ _____    ______ ____
ROOT
ATOM      1  C   UNL     1      44.733   4.838  12.226  0.00  0.00    +0.000 A 
ATOM      2  C   UNL     1      45.614   3.829  12.639  0.00  0.00    +0.000 A 
ATOM      3  C   UNL     1      46.814   4.146  13.281  0.00  0.00    +0.000 A 
ATOM      4  C   UNL     1      47.123   5.484  13.495  0.00  0.00    +0.000 A 
ATOM      5  N   UNL     1      46.295   6.484  13.103  0.00  0.00    +0.000 NA
ATOM      6  C   UNL     1      45.139   6.143  12.490  0.00  0.00    +0.000 A 
ENDROOT
BRANCH   1   8
ATOM      7  C   UNL     1      43.808   4.628   9.940  0.00  0.00    +0.000 C 
ATOM      8  C   UNL     1      43.462   4.540  11.436  0.00  0.00    +0.000 C 
ATOM      9  C   UNL     1      42.301   5.505  11.749  0.00  0.00    +0.000 C 
BRANCH   8  10
ATOM     10  N   UNL     1      42.965   3.179  11.707  0.00  0.00    +0.000 NA
ATOM     11  H   UNL     1      43.073   2.600  10.874  0.00  0.00    +0.000 HD
ATOM     12  H   UNL     1      41.961   3.220  11.891  0.00  0.00    +0.000 HD
ENDBRANCH   8  10
ENDBRANCH   1   8
BRANCH   4  13
ATOM     13  C   UNL     1      48.334   5.899  14.275  0.00  0.00    +0.000 C 
BRANCH  13  14
ATOM     14  N   UNL     1      48.114   6.026  15.705  0.00  0.00    +0.000 N 
ATOM     15  N   UNL     1      48.611   7.129  16.318  0.00  0.00    +0.000 NA
ATOM     16  N   UNL     1      49.054   6.762  17.512  0.00  0.00    +0.000 NA
ATOM     17  C   UNL     1      48.725   5.444  17.703  0.00  0.00    +0.000 A 
ATOM     18  C   UNL     1      49.014   4.564  18.739  0.00  0.00    +0.000 A 
ATOM     19  N   UNL     1      48.522   3.295  18.712  0.00  0.00    +0.000 NA
ATOM     20  C   UNL     1      47.749   2.916  17.665  0.00  0.00    +0.000 A 
ATOM     21  C   UNL     1      47.455   3.704  16.557  0.00  0.00    +0.000 A 
ATOM     22  C   UNL     1      48.000   4.986  16.608  0.00  0.00    +0.000 A 
ENDBRANCH  13  14
ENDBRANCH   4  13
TORSDOF 4
ENDMDL
MODEL 9
REMARK VINA RESULT:    -5.175      2.604      6.381
REMARK INTER + INTRA:          -6.873
REMARK INTER:                  -6.290
REMARK INTRA:                  -0.584
REMARK UNBOUND:                -0.639
REMARK  Name = 
REMARK  6 active torsions:
REMARK  status: ('A' for Active; 'I' for Inactive)
REMARK    1  A    between atoms: C_1  and  C_2
REMARK    2  A    between atoms: C_2  and  C_3
REMARK    3  A    between atoms: C_2  and  N_4
REMARK    4  A    between atoms: C_2  and  C_5
REMARK    5  A    between atoms: C_8  and  C_9
REMARK    6  A    between atoms: C_9  and  N_10
REMARK                            x       y       z     vdW  Elec       q    Type
REMARK                         _______ _______ _______ _____ _____    ______ ____
ROOT
ATOM      1  C   UNL     1      48.581   8.063  13.216  0.00  0.00    +0.000 A 
ATOM      2  C   UNL     1      48.399   7.151  12.167  0.00  0.00    +0.000 A 
ATOM      3  C   UNL     1      47.120   6.862  11.684  0.00  0.00    +0.000 A 
ATOM      4  C   UNL     1      46.028   7.489  12.272  0.00  0.00    +0.000 A 
ATOM      5  N   UNL     1      46.168   8.371  13.292  0.00  0.00    +0.000 NA
ATOM      6  C   UNL     1      47.421   8.633  13.731  0.00  0.00    +0.000 A 
ENDROOT
BRANCH   1   8
ATOM      7  C   UNL     1      50.030   7.541  15.154  0.00  0.00    +0.000 C 
ATOM      8  C   UNL     1      49.949   8.332  13.837  0.00  0.00    +0.000 C 
ATOM      9  C   UNL     1      50.214   9.824  14.120  0.00  0.00    +0.000 C 
BRANCH   8  10
ATOM     10  N   UNL     1      51.040   7.867  12.961  0.00  0.00    +0.000 NA
ATOM     11  H   UNL     1      51.876   7.690  13.517  0.00  0.00    +0.000 HD
ATOM     12  H   UNL     1      51.288   8.615  12.312  0.00  0.00    +0.000 HD
ENDBRANCH   8  10
ENDBRANCH   1   8
BRANCH   4  13
ATOM     13  C   UNL     1      44.638   7.317  11.737  0.00  0.00    +0.000 C 
BRANCH  13  14
ATOM     14  N   UNL     1      44.082   5.989  11.926  0.00  0.00    +0.000 N 
ATOM     15  N   UNL     1      44.009   5.518  13.196  0.00  0.00    +0.000 NA
ATOM     16  N   UNL     1      44.282   4.220  13.161  0.00  0.00    +0.000 NA
ATOM     17  C   UNL     1      44.408   3.846  11.847  0.00  0.00    +0.000 A 
ATOM     18  C   UNL     1      44.759   2.633  11.266  0.00  0.00    +0.000 A 
ATOM     19  N   UNL     1      44.767   2.505   9.911  0.00  0.00    +0.000 NA
ATOM     20  C   UNL     1      44.426   3.576   9.151  0.00  0.00    +0.000 A 
ATOM     21  C   UNL     1      44.121   4.842   9.638  0.00  0.00    +0.000 A 
ATOM     22  C   UNL     1      44.151   4.941  11.028  0.00  0.00    +0.000 A 
ENDBRANCH  13  14
ENDBRANCH   4  13
TORSDOF 4
ENDMDL
