MODEL 1
REMARK VINA RESULT:    -8.987      0.000      0.000
REMARK INTER + INTRA:         -12.199
REMARK INTER:                 -11.614
REMARK INTRA:                  -0.585
REMARK UNBOUND:                -0.585
REMARK  Name = 
REMARK  5 active torsions:
REMARK  status: ('A' for Active; 'I' for Inactive)
REMARK    1  A    between atoms: C_2  and  C_18
REMARK    2  A    between atoms: N_3  and  C_4
REMARK    3  A    between atoms: C_4  and  C_5
REMARK    4  A    between atoms: C_8  and  O_9
REMARK    5  A    between atoms: O_9  and  C_10
REMARK                            x       y       z     vdW  Elec       q    Type
REMARK                         _______ _______ _______ _____ _____    ______ ____
ROOT
ATOM      1  O   UNL     1      46.353   3.607  13.912  0.00  0.00    +0.000 OA
ATOM      2  C   UNL     1      46.386   4.827  14.049  0.00  0.00    +0.000 C 
ATOM      3  N   UNL     1      45.356   5.640  13.652  0.00  0.00    +0.000 N 
ATOM      4  H   UNL     1      45.491   6.645  13.639  0.00  0.00    +0.000 HD
ENDROOT
BRANCH   2   5
ATOM      5  C   UNL     1      47.525   5.490  14.694  0.00  0.00    +0.000 A 
ATOM      6  C   UNL     1      48.262   6.434  13.991  0.00  0.00    +0.000 A 
ATOM      7  S   UNL     1      49.527   7.128  14.900  0.00  0.00    +0.000 S 
ATOM      8  C   UNL     1      49.110   6.217  16.275  0.00  0.00    +0.000 A 
ATOM      9  N   UNL     1      49.783   6.374  17.448  0.00  0.00    +0.000 NA
ATOM     10  C   UNL     1      49.335   5.652  18.420  0.00  0.00    +0.000 A 
ATOM     11  N   UNL     1      48.292   4.769  18.321  0.00  0.00    +0.000 N 
ATOM     12  C   UNL     1      47.645   4.510  17.136  0.00  0.00    +0.000 A 
ATOM     13  O   UNL     1      46.832   3.600  17.047  0.00  0.00    +0.000 OA
ATOM     14  C   UNL     1      48.057   5.357  16.030  0.00  0.00    +0.000 A 
ATOM     15  H   UNL     1      48.027   4.202  19.109  0.00  0.00    +0.000 HD
ENDBRANCH   2   5
BRANCH   3  16
ATOM     16  C   UNL     1      44.202   5.142  12.955  0.00  0.00    +0.000 C 
BRANCH  16  17
ATOM     17  C   UNL     1      44.521   4.788  11.526  0.00  0.00    +0.000 A 
ATOM     18  C   UNL     1      43.906   3.681  10.926  0.00  0.00    +0.000 A 
ATOM     19  C   UNL     1      44.155   3.369   9.589  0.00  0.00    +0.000 A 
ATOM     20  C   UNL     1      44.977   4.194   8.819  0.00  0.00    +0.000 A 
ATOM     21  C   UNL     1      45.658   5.250   9.428  0.00  0.00    +0.000 A 
ATOM     22  C   UNL     1      45.437   5.540  10.778  0.00  0.00    +0.000 A 
BRANCH  20  23
ATOM     23  O   UNL     1      45.207   4.013   7.471  0.00  0.00    +0.000 OA
BRANCH  23  24
ATOM     24  C   UNL     1      46.171   3.117   7.062  0.00  0.00    +0.000 A 
ATOM     25  C   UNL     1      46.525   1.965   7.759  0.00  0.00    +0.000 A 
ATOM     26  C   UNL     1      47.560   1.191   7.260  0.00  0.00    +0.000 A 
ATOM     27  N   UNL     1      48.202   1.455   6.104  0.00  0.00    +0.000 NA
ATOM     28  C   UNL     1      47.786   2.536   5.411  0.00  0.00    +0.000 A 
ATOM     29  C   UNL     1      46.784   3.389   5.844  0.00  0.00    +0.000 A 
ENDBRANCH  23  24
ENDBRANCH  20  23
ENDBRANCH  16  17
ENDBRANCH   3  16
TORSDOF 5
ENDMDL
MODEL 2
REMARK VINA RESULT:    -8.723      1.438      2.008
REMARK INTER + INTRA:         -11.858
REMARK INTER:                 -11.090
REMARK INTRA:                  -0.768
REMARK UNBOUND:                -0.585
REMARK  Name = 
REMARK  5 active torsions:
REMARK  status: ('A' for Active; 'I' for Inactive)
REMARK    1  A    between atoms: C_2  and  C_18
REMARK    2  A    between atoms: N_3  and  C_4
REMARK    3  A    between atoms: C_4  and  C_5
REMARK    4  A    between atoms: C_8  and  O_9
REMARK    5  A    between atoms: O_9  and  C_10
REMARK                            x       y       z     vdW  Elec       q    Type
REMARK                         _______ _______ _______ _____ _____    ______ ____
ROOT
ATOM      1  O   UNL     1      48.273   7.341  12.710  0.00  0.00    +0.000 OA
ATOM      2  C   UNL     1      47.629   6.890  13.654  0.00  0.00    +0.000 C 
ATOM      3  N   UNL     1      46.266   6.746  13.612  0.00  0.00    +0.000 N 
ATOM      4  H   UNL     1      45.763   6.521  14.464  0.00  0.00    +0.000 HD
ENDROOT
BRANCH   2   5
ATOM      5  C   UNL     1      48.293   6.436  14.881  0.00  0.00    +0.000 A 
ATOM      6  C   UNL     1      49.309   7.199  15.438  0.00  0.00    +0.000 A 
ATOM      7  S   UNL     1      49.947   6.542  16.877  0.00  0.00    +0.000 S 
ATOM      8  C   UNL     1      48.862   5.233  16.823  0.00  0.00    +0.000 A 
ATOM      9  N   UNL     1      48.843   4.300  17.813  0.00  0.00    +0.000 NA
ATOM     10  C   UNL     1      47.942   3.386  17.667  0.00  0.00    +0.000 A 
ATOM     11  N   UNL     1      47.075   3.307  16.609  0.00  0.00    +0.000 N 
ATOM     12  C   UNL     1      47.119   4.171  15.542  0.00  0.00    +0.000 A 
ATOM     13  O   UNL     1      46.444   3.975  14.540  0.00  0.00    +0.000 OA
ATOM     14  C   UNL     1      48.062   5.267  15.696  0.00  0.00    +0.000 A 
ATOM     15  H   UNL     1      46.429   2.537  16.535  0.00  0.00    +0.000 HD
ENDBRANCH   2   5
BRANCH   3  16
ATOM     16  C   UNL     1      45.473   7.199  12.503  0.00  0.00    +0.000 C 
BRANCH  16  17
ATOM     17  C   UNL     1      45.298   6.122  11.464  0.00  0.00    +0.000 A 
ATOM     18  C   UNL     1      44.390   5.078  11.686  0.00  0.00    +0.000 A 
ATOM     19  C   UNL     1      44.182   4.101  10.712  0.00  0.00    +0.000 A 
ATOM     20  C   UNL     1      44.835   4.187   9.482  0.00  0.00    +0.000 A 
ATOM     21  C   UNL     1      45.801   5.175   9.283  0.00  0.00    +0.000 A 
ATOM     22  C   UNL     1      46.038   6.134  10.273  0.00  0.00    +0.000 A 
BRANCH  20  23
ATOM     23  O   UNL     1      44.623   3.318   8.432  0.00  0.00    +0.000 OA
BRANCH  23  24
ATOM     24  C   UNL     1      45.704   2.739   7.801  0.00  0.00    +0.000 A 
ATOM     25  C   UNL     1      46.462   3.356   6.809  0.00  0.00    +0.000 A 
ATOM     26  C   UNL     1      47.481   2.627   6.218  0.00  0.00    +0.000 A 
ATOM     27  N   UNL     1      47.823   1.378   6.593  0.00  0.00    +0.000 NA
ATOM     28  C   UNL     1      47.119   0.834   7.609  0.00  0.00    +0.000 A 
ATOM     29  C   UNL     1      46.062   1.469   8.240  0.00  0.00    +0.000 A 
ENDBRANCH  23  24
ENDBRANCH  20  23
ENDBRANCH  16  17
ENDBRANCH   3  16
TORSDOF 5
ENDMDL
MODEL 3
REMARK VINA RESULT:    -8.433      1.061      1.824
REMARK INTER + INTRA:         -11.483
REMARK INTER:                 -10.711
REMARK INTRA:                  -0.773
REMARK UNBOUND:                -0.585
REMARK  Name = 
REMARK  5 active torsions:
REMARK  status: ('A' for Active; 'I' for Inactive)
REMARK    1  A    between atoms: C_2  and  C_18
REMARK    2  A    between atoms: N_3  and  C_4
REMARK    3  A    between atoms: C_4  and  C_5
REMARK    4  A    between atoms: C_8  and  O_9
REMARK    5  A    between atoms: O_9  and  C_10
REMARK                            x       y       z     vdW  Elec       q    Type
REMARK                         _______ _______ _______ _____ _____    ______ ____
ROOT
ATOM      1  O   UNL     1      47.286   4.139  14.409  0.00  0.00    +0.000 OA
ATOM      2  C   UNL     1      47.176   5.324  14.103  0.00  0.00    +0.000 C 
ATOM      3  N   UNL     1      46.018   5.845  13.588  0.00  0.00    +0.000 N 
ATOM      4  H   UNL     1      46.021   6.784  13.204  0.00  0.00    +0.000 HD
ENDROOT
BRANCH   2   5
ATOM      5  C   UNL     1      48.277   6.270  14.315  0.00  0.00    +0.000 A 
ATOM      6  C   UNL     1      48.799   6.972  13.237  0.00  0.00    +0.000 A 
ATOM      7  S   UNL     1      50.048   8.051  13.665  0.00  0.00    +0.000 S 
ATOM      8  C   UNL     1      49.908   7.644  15.311  0.00  0.00    +0.000 A 
ATOM      9  N   UNL     1      50.675   8.260  16.251  0.00  0.00    +0.000 NA
ATOM     10  C   UNL     1      50.436   7.885  17.464  0.00  0.00    +0.000 A 
ATOM     11  N   UNL     1      49.517   6.933  17.819  0.00  0.00    +0.000 N 
ATOM     12  C   UNL     1      48.788   6.219  16.899  0.00  0.00    +0.000 A 
ATOM     13  O   UNL     1      48.101   5.265  17.239  0.00  0.00    +0.000 OA
ATOM     14  C   UNL     1      48.961   6.660  15.525  0.00  0.00    +0.000 A 
ATOM     15  H   UNL     1      49.417   6.655  18.782  0.00  0.00    +0.000 HD
ENDBRANCH   2   5
BRANCH   3  16
ATOM     16  C   UNL     1      44.875   5.032  13.272  0.00  0.00    +0.000 C 
BRANCH  16  17
ATOM     17  C   UNL     1      44.800   4.721  11.799  0.00  0.00    +0.000 A 
ATOM     18  C   UNL     1      45.555   5.471  10.888  0.00  0.00    +0.000 A 
ATOM     19  C   UNL     1      45.534   5.163   9.528  0.00  0.00    +0.000 A 
ATOM     20  C   UNL     1      44.804   4.066   9.069  0.00  0.00    +0.000 A 
ATOM     21  C   UNL     1      43.985   3.364   9.956  0.00  0.00    +0.000 A 
ATOM     22  C   UNL     1      43.977   3.695  11.314  0.00  0.00    +0.000 A 
BRANCH  20  23
ATOM     23  O   UNL     1      44.797   3.636   7.758  0.00  0.00    +0.000 OA
BRANCH  23  24
ATOM     24  C   UNL     1      45.878   2.934   7.269  0.00  0.00    +0.000 A 
ATOM     25  C   UNL     1      46.655   3.336   6.186  0.00  0.00    +0.000 A 
ATOM     26  C   UNL     1      47.672   2.496   5.764  0.00  0.00    +0.000 A 
ATOM     27  N   UNL     1      47.993   1.340   6.381  0.00  0.00    +0.000 NA
ATOM     28  C   UNL     1      47.271   1.014   7.474  0.00  0.00    +0.000 A 
ATOM     29  C   UNL     1      46.215   1.771   7.953  0.00  0.00    +0.000 A 
ENDBRANCH  23  24
ENDBRANCH  20  23
ENDBRANCH  16  17
ENDBRANCH   3  16
TORSDOF 5
ENDMDL
MODEL 4
REMARK VINA RESULT:    -8.329      1.986      3.277
REMARK INTER + INTRA:         -11.349
REMARK INTER:                 -10.690
REMARK INTRA:                  -0.659
REMARK UNBOUND:                -0.585
REMARK  Name = 
REMARK  5 active torsions:
REMARK  status: ('A' for Active; 'I' for Inactive)
REMARK    1  A    between atoms: C_2  and  C_18
REMARK    2  A    between atoms: N_3  and  C_4
REMARK    3  A    between atoms: C_4  and  C_5
REMARK    4  A    between atoms: C_8  and  O_9
REMARK    5  A    between atoms: O_9  and  C_10
REMARK                            x       y       z     vdW  Elec       q    Type
REMARK                         _______ _______ _______ _____ _____    ______ ____
ROOT
ATOM      1  O   UNL     1      47.262   4.136  14.622  0.00  0.00    +0.000 OA
ATOM      2  C   UNL     1      47.168   5.309  14.272  0.00  0.00    +0.000 C 
ATOM      3  N   UNL     1      46.012   5.831  13.751  0.00  0.00    +0.000 N 
ATOM      4  H   UNL     1      46.026   6.755  13.332  0.00  0.00    +0.000 HD
ENDROOT
BRANCH   2   5
ATOM      5  C   UNL     1      48.288   6.244  14.432  0.00  0.00    +0.000 A 
ATOM      6  C   UNL     1      48.903   6.377  15.669  0.00  0.00    +0.000 A 
ATOM      7  S   UNL     1      50.205   7.478  15.670  0.00  0.00    +0.000 S 
ATOM      8  C   UNL     1      50.015   7.786  14.007  0.00  0.00    +0.000 A 
ATOM      9  N   UNL     1      50.863   8.622  13.350  0.00  0.00    +0.000 NA
ATOM     10  C   UNL     1      50.629   8.732  12.085  0.00  0.00    +0.000 A 
ATOM     11  N   UNL     1      49.609   8.101  11.421  0.00  0.00    +0.000 N 
ATOM     12  C   UNL     1      48.673   7.323  12.060  0.00  0.00    +0.000 A 
ATOM     13  O   UNL     1      47.685   6.911  11.469  0.00  0.00    +0.000 OA
ATOM     14  C   UNL     1      48.940   7.102  13.471  0.00  0.00    +0.000 A 
ATOM     15  H   UNL     1      49.456   8.272  10.441  0.00  0.00    +0.000 HD
ENDBRANCH   2   5
BRANCH   3  16
ATOM     16  C   UNL     1      44.851   5.026  13.482  0.00  0.00    +0.000 C 
BRANCH  16  17
ATOM     17  C   UNL     1      44.757   4.651  12.025  0.00  0.00    +0.000 A 
ATOM     18  C   UNL     1      45.352   5.468  11.054  0.00  0.00    +0.000 A 
ATOM     19  C   UNL     1      45.315   5.108   9.707  0.00  0.00    +0.000 A 
ATOM     20  C   UNL     1      44.735   3.899   9.320  0.00  0.00    +0.000 A 
ATOM     21  C   UNL     1      44.069   3.120  10.269  0.00  0.00    +0.000 A 
ATOM     22  C   UNL     1      44.073   3.499  11.614  0.00  0.00    +0.000 A 
BRANCH  20  23
ATOM     23  O   UNL     1      44.732   3.423   8.026  0.00  0.00    +0.000 OA
BRANCH  23  24
ATOM     24  C   UNL     1      45.857   2.796   7.531  0.00  0.00    +0.000 A 
ATOM     25  C   UNL     1      46.717   3.349   6.586  0.00  0.00    +0.000 A 
ATOM     26  C   UNL     1      47.773   2.576   6.133  0.00  0.00    +0.000 A 
ATOM     27  N   UNL     1      48.053   1.342   6.601  0.00  0.00    +0.000 NA
ATOM     28  C   UNL     1      47.246   0.863   7.571  0.00  0.00    +0.000 A 
ATOM     29  C   UNL     1      46.147   1.546   8.066  0.00  0.00    +0.000 A 
ENDBRANCH  23  24
ENDBRANCH  20  23
ENDBRANCH  16  17
ENDBRANCH   3  16
TORSDOF 5
ENDMDL
MODEL 5
REMARK VINA RESULT:    -8.248      1.881      2.605
REMARK INTER + INTRA:         -11.244
REMARK INTER:                 -10.532
REMARK INTRA:                  -0.712
REMARK UNBOUND:                -0.585
REMARK  Name = 
REMARK  5 active torsions:
REMARK  status: ('A' for Active; 'I' for Inactive)
REMARK    1  A    between atoms: C_2  and  C_18
REMARK    2  A    between atoms: N_3  and  C_4
REMARK    3  A    between atoms: C_4  and  C_5
REMARK    4  A    between atoms: C_8  and  O_9
REMARK    5  A    between atoms: O_9  and  C_10
REMARK                            x       y       z     vdW  Elec       q    Type
REMARK                         _______ _______ _______ _____ _____    ______ ____
ROOT
ATOM      1  O   UNL     1      48.862   6.333  14.403  0.00  0.00    +0.000 OA
ATOM      2  C   UNL     1      47.866   5.768  14.846  0.00  0.00    +0.000 C 
ATOM      3  N   UNL     1      46.653   5.810  14.208  0.00  0.00    +0.000 N 
ATOM      4  H   UNL     1      45.826   5.467  14.685  0.00  0.00    +0.000 HD
ENDROOT
BRANCH   2   5
ATOM      5  C   UNL     1      47.926   4.971  16.076  0.00  0.00    +0.000 A 
ATOM      6  C   UNL     1      47.577   3.627  16.044  0.00  0.00    +0.000 A 
ATOM      7  S   UNL     1      47.736   2.845  17.551  0.00  0.00    +0.000 S 
ATOM      8  C   UNL     1      48.311   4.266  18.288  0.00  0.00    +0.000 A 
ATOM      9  N   UNL     1      48.691   4.271  19.595  0.00  0.00    +0.000 NA
ATOM     10  C   UNL     1      49.146   5.404  20.014  0.00  0.00    +0.000 A 
ATOM     11  N   UNL     1      49.235   6.540  19.251  0.00  0.00    +0.000 N 
ATOM     12  C   UNL     1      48.778   6.606  17.957  0.00  0.00    +0.000 A 
ATOM     13  O   UNL     1      48.719   7.674  17.362  0.00  0.00    +0.000 OA
ATOM     14  C   UNL     1      48.330   5.335  17.413  0.00  0.00    +0.000 A 
ATOM     15  H   UNL     1      49.556   7.403  19.658  0.00  0.00    +0.000 HD
ENDBRANCH   2   5
BRANCH   3  16
ATOM     16  C   UNL     1      46.426   6.597  13.026  0.00  0.00    +0.000 C 
BRANCH  16  17
ATOM     17  C   UNL     1      45.920   5.755  11.883  0.00  0.00    +0.000 A 
ATOM     18  C   UNL     1      46.069   6.205  10.565  0.00  0.00    +0.000 A 
ATOM     19  C   UNL     1      45.650   5.414   9.495  0.00  0.00    +0.000 A 
ATOM     20  C   UNL     1      45.130   4.139   9.726  0.00  0.00    +0.000 A 
ATOM     21  C   UNL     1      44.902   3.717  11.038  0.00  0.00    +0.000 A 
ATOM     22  C   UNL     1      45.288   4.525  12.112  0.00  0.00    +0.000 A 
BRANCH  20  23
ATOM     23  O   UNL     1      44.774   3.257   8.728  0.00  0.00    +0.000 OA
BRANCH  23  24
ATOM     24  C   UNL     1      45.756   2.675   7.955  0.00  0.00    +0.000 A 
ATOM     25  C   UNL     1      46.429   3.318   6.919  0.00  0.00    +0.000 A 
ATOM     26  C   UNL     1      47.348   2.587   6.184  0.00  0.00    +0.000 A 
ATOM     27  N   UNL     1      47.675   1.307   6.455  0.00  0.00    +0.000 NA
ATOM     28  C   UNL     1      47.062   0.734   7.513  0.00  0.00    +0.000 A 
ATOM     29  C   UNL     1      46.106   1.371   8.286  0.00  0.00    +0.000 A 
ENDBRANCH  23  24
ENDBRANCH  20  23
ENDBRANCH  16  17
ENDBRANCH   3  16
TORSDOF 5
ENDMDL
MODEL 6
REMARK VINA RESULT:    -7.631      2.094      3.221
REMARK INTER + INTRA:         -10.447
REMARK INTER:                  -9.527
REMARK INTRA:                  -0.920
REMARK UNBOUND:                -0.585
REMARK  Name = 
REMARK  5 active torsions:
REMARK  status: ('A' for Active; 'I' for Inactive)
REMARK    1  A    between atoms: C_2  and  C_18
REMARK    2  A    between atoms: N_3  and  C_4
REMARK    3  A    between atoms: C_4  and  C_5
REMARK    4  A    between atoms: C_8  and  O_9
REMARK    5  A    between atoms: O_9  and  C_10
REMARK                            x       y       z     vdW  Elec       q    Type
REMARK                         _______ _______ _______ _____ _____    ______ ____
ROOT
ATOM      1  O   UNL     1      49.728   6.988  14.094  0.00  0.00    +0.000 OA
ATOM      2  C   UNL     1      48.919   7.104  15.011  0.00  0.00    +0.000 C 
ATOM      3  N   UNL     1      47.684   7.671  14.833  0.00  0.00    +0.000 N 
ATOM      4  H   UNL     1      47.115   7.890  15.645  0.00  0.00    +0.000 HD
ENDROOT
BRANCH   2   5
ATOM      5  C   UNL     1      49.216   6.599  16.356  0.00  0.00    +0.000 A 
ATOM      6  C   UNL     1      49.940   7.384  17.243  0.00  0.00    +0.000 A 
ATOM      7  S   UNL     1      50.165   6.659  18.770  0.00  0.00    +0.000 S 
ATOM      8  C   UNL     1      49.271   5.287  18.310  0.00  0.00    +0.000 A 
ATOM      9  N   UNL     1      49.035   4.278  19.192  0.00  0.00    +0.000 NA
ATOM     10  C   UNL     1      48.308   3.319  18.723  0.00  0.00    +0.000 A 
ATOM     11  N   UNL     1      47.816   3.265  17.445  0.00  0.00    +0.000 N 
ATOM     12  C   UNL     1      48.106   4.214  16.493  0.00  0.00    +0.000 A 
ATOM     13  O   UNL     1      47.790   4.052  15.323  0.00  0.00    +0.000 OA
ATOM     14  C   UNL     1      48.853   5.356  16.994  0.00  0.00    +0.000 A 
ATOM     15  H   UNL     1      47.296   2.461  17.132  0.00  0.00    +0.000 HD
ENDBRANCH   2   5
BRANCH   3  16
ATOM     16  C   UNL     1      47.273   8.261  13.589  0.00  0.00    +0.000 C 
BRANCH  16  17
ATOM     17  C   UNL     1      46.380   7.338  12.800  0.00  0.00    +0.000 A 
ATOM     18  C   UNL     1      45.367   7.869  11.991  0.00  0.00    +0.000 A 
ATOM     19  C   UNL     1      44.565   7.029  11.218  0.00  0.00    +0.000 A 
ATOM     20  C   UNL     1      44.804   5.654  11.199  0.00  0.00    +0.000 A 
ATOM     21  C   UNL     1      45.755   5.109  12.063  0.00  0.00    +0.000 A 
ATOM     22  C   UNL     1      46.535   5.946  12.867  0.00  0.00    +0.000 A 
BRANCH  20  23
ATOM     23  O   UNL     1      44.121   4.762  10.399  0.00  0.00    +0.000 OA
BRANCH  23  24
ATOM     24  C   UNL     1      44.819   3.986   9.499  0.00  0.00    +0.000 A 
ATOM     25  C   UNL     1      45.610   4.489   8.469  0.00  0.00    +0.000 A 
ATOM     26  C   UNL     1      46.202   3.588   7.600  0.00  0.00    +0.000 A 
ATOM     27  N   UNL     1      46.108   2.249   7.731  0.00  0.00    +0.000 NA
ATOM     28  C   UNL     1      45.397   1.790   8.783  0.00  0.00    +0.000 A 
ATOM     29  C   UNL     1      44.742   2.610   9.686  0.00  0.00    +0.000 A 
ENDBRANCH  23  24
ENDBRANCH  20  23
ENDBRANCH  16  17
ENDBRANCH   3  16
TORSDOF 5
ENDMDL
MODEL 7
REMARK VINA RESULT:    -7.332      3.566      6.119
REMARK INTER + INTRA:         -10.060
REMARK INTER:                  -8.941
REMARK INTRA:                  -1.119
REMARK UNBOUND:                -0.585
REMARK  Name = 
REMARK  5 active torsions:
REMARK  status: ('A' for Active; 'I' for Inactive)
REMARK    1  A    between atoms: C_2  and  C_18
REMARK    2  A    between atoms: N_3  and  C_4
REMARK    3  A    between atoms: C_4  and  C_5
REMARK    4  A    between atoms: C_8  and  O_9
REMARK    5  A    between atoms: O_9  and  C_10
REMARK                            x       y       z     vdW  Elec       q    Type
REMARK                         _______ _______ _______ _____ _____    ______ ____
ROOT
ATOM      1  O   UNL     1      49.725   5.623  19.178  0.00  0.00    +0.000 OA
ATOM      2  C   UNL     1      50.496   5.292  18.281  0.00  0.00    +0.000 C 
ATOM      3  N   UNL     1      50.363   5.743  16.994  0.00  0.00    +0.000 N 
ATOM      4  H   UNL     1      50.922   5.323  16.258  0.00  0.00    +0.000 HD
ENDROOT
BRANCH   2   5
ATOM      5  C   UNL     1      51.643   4.417  18.548  0.00  0.00    +0.000 A 
ATOM      6  C   UNL     1      52.690   4.874  19.338  0.00  0.00    +0.000 A 
ATOM      7  S   UNL     1      53.922   3.719  19.573  0.00  0.00    +0.000 S 
ATOM      8  C   UNL     1      53.082   2.557  18.658  0.00  0.00    +0.000 A 
ATOM      9  N   UNL     1      53.576   1.298  18.504  0.00  0.00    +0.000 NA
ATOM     10  C   UNL     1      52.816   0.508  17.822  0.00  0.00    +0.000 A 
ATOM     11  N   UNL     1      51.619   0.868  17.259  0.00  0.00    +0.000 N 
ATOM     12  C   UNL     1      51.127   2.150  17.309  0.00  0.00    +0.000 A 
ATOM     13  O   UNL     1      50.143   2.475  16.659  0.00  0.00    +0.000 OA
ATOM     14  C   UNL     1      51.905   3.058  18.135  0.00  0.00    +0.000 A 
ATOM     15  H   UNL     1      51.102   0.211  16.697  0.00  0.00    +0.000 HD
ENDBRANCH   2   5
BRANCH   3  16
ATOM     16  C   UNL     1      49.258   6.558  16.569  0.00  0.00    +0.000 C 
BRANCH  16  17
ATOM     17  C   UNL     1      48.332   5.807  15.647  0.00  0.00    +0.000 A 
ATOM     18  C   UNL     1      48.129   6.262  14.338  0.00  0.00    +0.000 A 
ATOM     19  C   UNL     1      47.313   5.550  13.459  0.00  0.00    +0.000 A 
ATOM     20  C   UNL     1      46.736   4.343  13.859  0.00  0.00    +0.000 A 
ATOM     21  C   UNL     1      46.866   3.925  15.185  0.00  0.00    +0.000 A 
ATOM     22  C   UNL     1      47.653   4.658  16.078  0.00  0.00    +0.000 A 
BRANCH  20  23
ATOM     23  O   UNL     1      45.991   3.531  13.031  0.00  0.00    +0.000 OA
BRANCH  23  24
ATOM     24  C   UNL     1      44.946   4.072  12.312  0.00  0.00    +0.000 A 
ATOM     25  C   UNL     1      44.861   4.072  10.922  0.00  0.00    +0.000 A 
ATOM     26  C   UNL     1      43.781   4.710  10.334  0.00  0.00    +0.000 A 
ATOM     27  N   UNL     1      42.775   5.276  11.031  0.00  0.00    +0.000 NA
ATOM     28  C   UNL     1      42.847   5.194  12.377  0.00  0.00    +0.000 A 
ATOM     29  C   UNL     1      43.901   4.606  13.057  0.00  0.00    +0.000 A 
ENDBRANCH  23  24
ENDBRANCH  20  23
ENDBRANCH  16  17
ENDBRANCH   3  16
TORSDOF 5
ENDMDL
MODEL 8
REMARK VINA RESULT:    -6.740      3.078      4.563
REMARK INTER + INTRA:          -9.295
REMARK INTER:                  -8.190
REMARK INTRA:                  -1.105
REMARK UNBOUND:                -0.585
REMARK  Name = 
REMARK  5 active torsions:
REMARK  status: ('A' for Active; 'I' for Inactive)
REMARK    1  A    between atoms: C_2  and  C_18
REMARK    2  A    between atoms: N_3  and  C_4
REMARK    3  A    between atoms: C_4  and  C_5
REMARK    4  A    between atoms: C_8  and  O_9
REMARK    5  A    between atoms: O_9  and  C_10
REMARK                            x       y       z     vdW  Elec       q    Type
REMARK                         _______ _______ _______ _____ _____    ______ ____
ROOT
ATOM      1  O   UNL     1      48.213   9.120  16.407  0.00  0.00    +0.000 OA
ATOM      2  C   UNL     1      48.833   8.072  16.247  0.00  0.00    +0.000 C 
ATOM      3  N   UNL     1      49.308   7.679  15.023  0.00  0.00    +0.000 N 
ATOM      4  H   UNL     1      49.673   6.739  14.909  0.00  0.00    +0.000 HD
ENDROOT
BRANCH   2   5
ATOM      5  C   UNL     1      49.142   7.190  17.379  0.00  0.00    +0.000 A 
ATOM      6  C   UNL     1      49.772   7.706  18.503  0.00  0.00    +0.000 A 
ATOM      7  S   UNL     1      50.025   6.553  19.734  0.00  0.00    +0.000 S 
ATOM      8  C   UNL     1      49.270   5.333  18.820  0.00  0.00    +0.000 A 
ATOM      9  N   UNL     1      49.105   4.081  19.327  0.00  0.00    +0.000 NA
ATOM     10  C   UNL     1      48.479   3.267  18.543  0.00  0.00    +0.000 A 
ATOM     11  N   UNL     1      48.024   3.584  17.290  0.00  0.00    +0.000 N 
ATOM     12  C   UNL     1      48.250   4.806  16.702  0.00  0.00    +0.000 A 
ATOM     13  O   UNL     1      47.977   5.000  15.525  0.00  0.00    +0.000 OA
ATOM     14  C   UNL     1      48.878   5.784  17.573  0.00  0.00    +0.000 A 
ATOM     15  H   UNL     1      47.587   2.884  16.714  0.00  0.00    +0.000 HD
ENDBRANCH   2   5
BRANCH   3  16
ATOM     16  C   UNL     1      49.035   8.408  13.815  0.00  0.00    +0.000 C 
BRANCH  16  17
ATOM     17  C   UNL     1      47.787   7.912  13.133  0.00  0.00    +0.000 A 
ATOM     18  C   UNL     1      46.605   8.660  13.210  0.00  0.00    +0.000 A 
ATOM     19  C   UNL     1      45.454   8.238  12.542  0.00  0.00    +0.000 A 
ATOM     20  C   UNL     1      45.487   7.094  11.744  0.00  0.00    +0.000 A 
ATOM     21  C   UNL     1      46.635   6.298  11.728  0.00  0.00    +0.000 A 
ATOM     22  C   UNL     1      47.777   6.701  12.426  0.00  0.00    +0.000 A 
BRANCH  20  23
ATOM     23  O   UNL     1      44.426   6.654  10.981  0.00  0.00    +0.000 OA
BRANCH  23  24
ATOM     24  C   UNL     1      44.121   5.309  10.954  0.00  0.00    +0.000 A 
ATOM     25  C   UNL     1      43.432   4.636  11.959  0.00  0.00    +0.000 A 
ATOM     26  C   UNL     1      43.253   3.269  11.826  0.00  0.00    +0.000 A 
ATOM     27  N   UNL     1      43.654   2.562  10.750  0.00  0.00    +0.000 NA
ATOM     28  C   UNL     1      44.253   3.255   9.757  0.00  0.00    +0.000 A 
ATOM     29  C   UNL     1      44.506   4.616   9.812  0.00  0.00    +0.000 A 
ENDBRANCH  23  24
ENDBRANCH  20  23
ENDBRANCH  16  17
ENDBRANCH   3  16
TORSDOF 5
ENDMDL
MODEL 9
REMARK VINA RESULT:    -6.546      4.667      7.740
REMARK INTER + INTRA:          -9.045
REMARK INTER:                  -8.168
REMARK INTRA:                  -0.877
REMARK UNBOUND:                -0.585
REMARK  Name = 
REMARK  5 active torsions:
REMARK  status: ('A' for Active; 'I' for Inactive)
REMARK    1  A    between atoms: C_2  and  C_18
REMARK    2  A    between atoms: N_3  and  C_4
REMARK    3  A    between atoms: C_4  and  C_5
REMARK    4  A    between atoms: C_8  and  O_9
REMARK    5  A    between atoms: O_9  and  C_10
REMARK                            x       y       z     vdW  Elec       q    Type
REMARK                         _______ _______ _______ _____ _____    ______ ____
ROOT
ATOM      1  O   UNL     1      44.208   7.572  11.381  0.00  0.00    +0.000 OA
ATOM      2  C   UNL     1      44.833   6.641  11.881  0.00  0.00    +0.000 C 
ATOM      3  N   UNL     1      45.865   6.838  12.762  0.00  0.00    +0.000 N 
ATOM      4  H   UNL     1      46.452   6.053  13.025  0.00  0.00    +0.000 HD
ENDROOT
BRANCH   2   5
ATOM      5  C   UNL     1      44.480   5.246  11.594  0.00  0.00    +0.000 A 
ATOM      6  C   UNL     1      43.755   4.513  12.524  0.00  0.00    +0.000 A 
ATOM      7  S   UNL     1      43.403   2.924  12.017  0.00  0.00    +0.000 S 
ATOM      8  C   UNL     1      44.176   3.173  10.522  0.00  0.00    +0.000 A 
ATOM      9  N   UNL     1      44.194   2.197   9.573  0.00  0.00    +0.000 NA
ATOM     10  C   UNL     1      44.777   2.535   8.472  0.00  0.00    +0.000 A 
ATOM     11  N   UNL     1      45.367   3.751   8.242  0.00  0.00    +0.000 N 
ATOM     12  C   UNL     1      45.455   4.731   9.202  0.00  0.00    +0.000 A 
ATOM     13  O   UNL     1      46.130   5.735   9.019  0.00  0.00    +0.000 OA
ATOM     14  C   UNL     1      44.742   4.431  10.432  0.00  0.00    +0.000 A 
ATOM     15  H   UNL     1      45.848   3.929   7.375  0.00  0.00    +0.000 HD
ENDBRANCH   2   5
BRANCH   3  16
ATOM     16  C   UNL     1      46.362   8.145  13.094  0.00  0.00    +0.000 C 
BRANCH  16  17
ATOM     17  C   UNL     1      47.824   8.288  12.760  0.00  0.00    +0.000 A 
ATOM     18  C   UNL     1      48.621   9.185  13.484  0.00  0.00    +0.000 A 
ATOM     19  C   UNL     1      49.987   9.293  13.219  0.00  0.00    +0.000 A 
ATOM     20  C   UNL     1      50.584   8.464  12.267  0.00  0.00    +0.000 A 
ATOM     21  C   UNL     1      49.784   7.627  11.485  0.00  0.00    +0.000 A 
ATOM     22  C   UNL     1      48.410   7.546  11.725  0.00  0.00    +0.000 A 
BRANCH  20  23
ATOM     23  O   UNL     1      51.937   8.440  12.004  0.00  0.00    +0.000 OA
BRANCH  23  24
ATOM     24  C   UNL     1      52.377   8.551  10.702  0.00  0.00    +0.000 A 
ATOM     25  C   UNL     1      52.838   7.487   9.931  0.00  0.00    +0.000 A 
ATOM     26  C   UNL     1      53.310   7.760   8.658  0.00  0.00    +0.000 A 
ATOM     27  N   UNL     1      53.291   8.986   8.098  0.00  0.00    +0.000 NA
ATOM     28  C   UNL     1      52.768   9.985   8.842  0.00  0.00    +0.000 A 
ATOM     29  C   UNL     1      52.302   9.819  10.135  0.00  0.00    +0.000 A 
ENDBRANCH  23  24
ENDBRANCH  20  23
ENDBRANCH  16  17
ENDBRANCH   3  16
TORSDOF 5
ENDMDL
