MODEL 1
REMARK VINA RESULT:    -8.380      0.000      0.000
REMARK INTER + INTRA:         -13.743
REMARK INTER:                 -12.299
REMARK INTRA:                  -1.444
REMARK UNBOUND:                -1.444
REMARK  Name = 
REMARK  9 active torsions:
REMARK  status: ('A' for Active; 'I' for Inactive)
REMARK    1  A    between atoms: C_1  and  C_2
REMARK    2  A    between atoms: C_2  and  C_3
REMARK    3  A    between atoms: C_3  and  N_4
REMARK    4  A    between atoms: C_3  and  C_17
REMARK    5  A    between atoms: C_5  and  C_7
REMARK    6  A    between atoms: C_20  and  C_21
REMARK    7  A    between atoms: C_21  and  N_22
REMARK    8  A    between atoms: N_22  and  C_23
REMARK    9  A    between atoms: C_23  and  C_24
REMARK                            x       y       z     vdW  Elec       q    Type
REMARK                         _______ _______ _______ _____ _____    ______ ____
ROOT
ATOM      1  C   UNL     1      46.549   7.980  12.773  0.00  0.00    +0.000 C 
ENDROOT
BRANCH   1   2
ATOM      2  C   UNL     1      45.786   6.766  12.246  0.00  0.00    +0.000 A 
ATOM      3  C   UNL     1      46.057   6.262  10.967  0.00  0.00    +0.000 A 
ATOM      4  C   UNL     1      45.379   5.136  10.481  0.00  0.00    +0.000 A 
ATOM      5  C   UNL     1      44.422   4.476  11.265  0.00  0.00    +0.000 A 
ATOM      6  C   UNL     1      44.151   4.975  12.544  0.00  0.00    +0.000 A 
ATOM      7  C   UNL     1      44.823   6.103  13.027  0.00  0.00    +0.000 A 
BRANCH   5   8
ATOM      8  C   UNL     1      43.694   3.256  10.741  0.00  0.00    +0.000 C 
BRANCH   8   9
ATOM      9  N   UNL     1      44.633   2.202  10.366  0.00  0.00    +0.000 NA
ATOM     10  H   UNL     1      44.517   1.414  11.001  0.00  0.00    +0.000 HD
BRANCH   9  11
ATOM     11  C   UNL     1      44.433   1.748   8.993  0.00  0.00    +0.000 C 
BRANCH  11  12
ATOM     12  C   UNL     1      45.662   2.041   8.164  0.00  0.00    +0.000 A 
ATOM     13  C   UNL     1      46.580   1.039   7.839  0.00  0.00    +0.000 A 
ATOM     14  C   UNL     1      47.707   1.383   7.105  0.00  0.00    +0.000 A 
ATOM     15  N   UNL     1      47.976   2.634   6.676  0.00  0.00    +0.000 NA
ATOM     16  C   UNL     1      47.073   3.586   6.991  0.00  0.00    +0.000 A 
ATOM     17  C   UNL     1      45.917   3.342   7.714  0.00  0.00    +0.000 A 
ENDBRANCH  11  12
ENDBRANCH   9  11
ENDBRANCH   8   9
ENDBRANCH   5   8
ENDBRANCH   1   2
BRANCH   1  18
ATOM     18  N   UNL     1      47.194   7.619  14.023  0.00  0.00    +0.000 N 
ATOM     19  C   UNL     1      48.266   6.777  14.141  0.00  0.00    +0.000 C 
ATOM     20  O   UNL     1      48.831   6.275  13.172  0.00  0.00    +0.000 OA
ATOM     21  H   UNL     1      46.716   7.919  14.865  0.00  0.00    +0.000 HD
BRANCH  19  22
ATOM     22  C   UNL     1      48.743   6.556  15.516  0.00  0.00    +0.000 A 
ATOM     23  C   UNL     1      49.635   7.439  16.109  0.00  0.00    +0.000 A 
ATOM     24  S   UNL     1      50.029   7.029  17.719  0.00  0.00    +0.000 S 
ATOM     25  C   UNL     1      49.067   5.621  17.661  0.00  0.00    +0.000 A 
ATOM     26  N   UNL     1      48.976   4.784  18.725  0.00  0.00    +0.000 NA
ATOM     27  C   UNL     1      48.245   3.741  18.526  0.00  0.00    +0.000 A 
ATOM     28  N   UNL     1      47.588   3.464  17.359  0.00  0.00    +0.000 N 
ATOM     29  C   UNL     1      47.599   4.313  16.280  0.00  0.00    +0.000 A 
ATOM     30  O   UNL     1      46.900   4.084  15.301  0.00  0.00    +0.000 OA
ATOM     31  C   UNL     1      48.438   5.485  16.441  0.00  0.00    +0.000 A 
ATOM     32  H   UNL     1      47.006   2.646  17.264  0.00  0.00    +0.000 HD
ENDBRANCH  19  22
ENDBRANCH   1  18
BRANCH   1  34
ATOM     33  C   UNL     1      45.238   9.902  11.700  0.00  0.00    +0.000 C 
ATOM     34  C   UNL     1      45.641   9.206  12.992  0.00  0.00    +0.000 C 
ENDBRANCH   1  34
TORSDOF 8
ENDMDL
MODEL 2
REMARK VINA RESULT:    -8.359      1.624      1.878
REMARK INTER + INTRA:         -13.712
REMARK INTER:                 -12.152
REMARK INTRA:                  -1.560
REMARK UNBOUND:                -1.444
REMARK  Name = 
REMARK  9 active torsions:
REMARK  status: ('A' for Active; 'I' for Inactive)
REMARK    1  A    between atoms: C_1  and  C_2
REMARK    2  A    between atoms: C_2  and  C_3
REMARK    3  A    between atoms: C_3  and  N_4
REMARK    4  A    between atoms: C_3  and  C_17
REMARK    5  A    between atoms: C_5  and  C_7
REMARK    6  A    between atoms: C_20  and  C_21
REMARK    7  A    between atoms: C_21  and  N_22
REMARK    8  A    between atoms: N_22  and  C_23
REMARK    9  A    between atoms: C_23  and  C_24
REMARK                            x       y       z     vdW  Elec       q    Type
REMARK                         _______ _______ _______ _____ _____    ______ ____
ROOT
ATOM      1  C   UNL     1      48.174   6.717  13.275  0.00  0.00    +0.000 C 
ENDROOT
BRANCH   1   2
ATOM      2  C   UNL     1      46.991   5.918  12.732  0.00  0.00    +0.000 A 
ATOM      3  C   UNL     1      46.359   6.311  11.544  0.00  0.00    +0.000 A 
ATOM      4  C   UNL     1      45.286   5.574  11.025  0.00  0.00    +0.000 A 
ATOM      5  C   UNL     1      44.825   4.418  11.671  0.00  0.00    +0.000 A 
ATOM      6  C   UNL     1      45.455   4.022  12.857  0.00  0.00    +0.000 A 
ATOM      7  C   UNL     1      46.522   4.761  13.379  0.00  0.00    +0.000 A 
BRANCH   5   8
ATOM      8  C   UNL     1      43.669   3.619  11.107  0.00  0.00    +0.000 C 
BRANCH   8   9
ATOM      9  N   UNL     1      43.859   3.351   9.684  0.00  0.00    +0.000 NA
ATOM     10  H   UNL     1      44.392   4.115   9.272  0.00  0.00    +0.000 HD
BRANCH   9  11
ATOM     11  C   UNL     1      44.558   2.091   9.448  0.00  0.00    +0.000 C 
BRANCH  11  12
ATOM     12  C   UNL     1      45.650   2.286   8.423  0.00  0.00    +0.000 A 
ATOM     13  C   UNL     1      46.459   1.225   8.004  0.00  0.00    +0.000 A 
ATOM     14  C   UNL     1      47.468   1.480   7.087  0.00  0.00    +0.000 A 
ATOM     15  N   UNL     1      47.721   2.697   6.561  0.00  0.00    +0.000 NA
ATOM     16  C   UNL     1      46.924   3.707   6.969  0.00  0.00    +0.000 A 
ATOM     17  C   UNL     1      45.889   3.553   7.877  0.00  0.00    +0.000 A 
ENDBRANCH  11  12
ENDBRANCH   9  11
ENDBRANCH   8   9
ENDBRANCH   5   8
ENDBRANCH   1   2
BRANCH   1  18
ATOM     18  N   UNL     1      48.060   6.796  14.721  0.00  0.00    +0.000 N 
ATOM     19  C   UNL     1      49.110   6.752  15.597  0.00  0.00    +0.000 C 
ATOM     20  O   UNL     1      50.282   6.690  15.232  0.00  0.00    +0.000 OA
ATOM     21  H   UNL     1      47.117   6.748  15.088  0.00  0.00    +0.000 HD
BRANCH  19  22
ATOM     22  C   UNL     1      48.745   6.843  17.020  0.00  0.00    +0.000 A 
ATOM     23  C   UNL     1      48.279   8.035  17.558  0.00  0.00    +0.000 A 
ATOM     24  S   UNL     1      47.870   7.921  19.212  0.00  0.00    +0.000 S 
ATOM     25  C   UNL     1      48.358   6.288  19.283  0.00  0.00    +0.000 A 
ATOM     26  N   UNL     1      48.290   5.580  20.438  0.00  0.00    +0.000 NA
ATOM     27  C   UNL     1      48.728   4.371  20.354  0.00  0.00    +0.000 A 
ATOM     28  N   UNL     1      49.221   3.801  19.212  0.00  0.00    +0.000 N 
ATOM     29  C   UNL     1      49.250   4.457  18.007  0.00  0.00    +0.000 A 
ATOM     30  O   UNL     1      49.587   3.869  16.987  0.00  0.00    +0.000 OA
ATOM     31  C   UNL     1      48.801   5.836  18.057  0.00  0.00    +0.000 A 
ATOM     32  H   UNL     1      49.526   2.840  19.193  0.00  0.00    +0.000 HD
ENDBRANCH  19  22
ENDBRANCH   1  18
BRANCH   1  34
ATOM     33  C   UNL     1      49.433   8.331  11.736  0.00  0.00    +0.000 C 
ATOM     34  C   UNL     1      48.258   8.137  12.682  0.00  0.00    +0.000 C 
ENDBRANCH   1  34
TORSDOF 8
ENDMDL
MODEL 3
REMARK VINA RESULT:    -7.894      2.423      3.268
REMARK INTER + INTRA:         -13.029
REMARK INTER:                 -11.574
REMARK INTRA:                  -1.455
REMARK UNBOUND:                -1.444
REMARK  Name = 
REMARK  9 active torsions:
REMARK  status: ('A' for Active; 'I' for Inactive)
REMARK    1  A    between atoms: C_1  and  C_2
REMARK    2  A    between atoms: C_2  and  C_3
REMARK    3  A    between atoms: C_3  and  N_4
REMARK    4  A    between atoms: C_3  and  C_17
REMARK    5  A    between atoms: C_5  and  C_7
REMARK    6  A    between atoms: C_20  and  C_21
REMARK    7  A    between atoms: C_21  and  N_22
REMARK    8  A    between atoms: N_22  and  C_23
REMARK    9  A    between atoms: C_23  and  C_24
REMARK                            x       y       z     vdW  Elec       q    Type
REMARK                         _______ _______ _______ _____ _____    ______ ____
ROOT
ATOM      1  C   UNL     1      48.426   6.635  13.586  0.00  0.00    +0.000 C 
ENDROOT
BRANCH   1   2
ATOM      2  C   UNL     1      47.223   5.989  12.902  0.00  0.00    +0.000 A 
ATOM      3  C   UNL     1      46.571   6.648  11.850  0.00  0.00    +0.000 A 
ATOM      4  C   UNL     1      45.480   6.056  11.201  0.00  0.00    +0.000 A 
ATOM      5  C   UNL     1      45.019   4.786  11.575  0.00  0.00    +0.000 A 
ATOM      6  C   UNL     1      45.669   4.124  12.623  0.00  0.00    +0.000 A 
ATOM      7  C   UNL     1      46.755   4.717  13.276  0.00  0.00    +0.000 A 
BRANCH   5   8
ATOM      8  C   UNL     1      43.843   4.144  10.868  0.00  0.00    +0.000 C 
BRANCH   8   9
ATOM      9  N   UNL     1      44.290   3.147   9.900  0.00  0.00    +0.000 NA
ATOM     10  H   UNL     1      43.524   2.504   9.709  0.00  0.00    +0.000 HD
BRANCH   9  11
ATOM     11  C   UNL     1      44.733   3.754   8.648  0.00  0.00    +0.000 C 
BRANCH  11  12
ATOM     12  C   UNL     1      45.812   2.910   8.013  0.00  0.00    +0.000 A 
ATOM     13  C   UNL     1      46.712   3.448   7.087  0.00  0.00    +0.000 A 
ATOM     14  C   UNL     1      47.656   2.608   6.513  0.00  0.00    +0.000 A 
ATOM     15  N   UNL     1      47.769   1.293   6.796  0.00  0.00    +0.000 NA
ATOM     16  C   UNL     1      46.899   0.795   7.699  0.00  0.00    +0.000 A 
ATOM     17  C   UNL     1      45.924   1.551   8.329  0.00  0.00    +0.000 A 
ENDBRANCH  11  12
ENDBRANCH   9  11
ENDBRANCH   8   9
ENDBRANCH   5   8
ENDBRANCH   1   2
BRANCH   1  18
ATOM     18  N   UNL     1      48.114   6.833  14.991  0.00  0.00    +0.000 N 
ATOM     19  C   UNL     1      48.979   6.612  16.028  0.00  0.00    +0.000 C 
ATOM     20  O   UNL     1      50.146   6.267  15.862  0.00  0.00    +0.000 OA
ATOM     21  H   UNL     1      47.141   7.020  15.200  0.00  0.00    +0.000 HD
BRANCH  19  22
ATOM     22  C   UNL     1      48.431   6.876  17.369  0.00  0.00    +0.000 A 
ATOM     23  C   UNL     1      48.191   5.835  18.255  0.00  0.00    +0.000 A 
ATOM     24  S   UNL     1      47.598   6.353  19.770  0.00  0.00    +0.000 S 
ATOM     25  C   UNL     1      47.584   7.985  19.274  0.00  0.00    +0.000 A 
ATOM     26  N   UNL     1      47.156   8.971  20.103  0.00  0.00    +0.000 NA
ATOM     27  C   UNL     1      47.164  10.151  19.583  0.00  0.00    +0.000 A 
ATOM     28  N   UNL     1      47.571  10.435  18.308  0.00  0.00    +0.000 N 
ATOM     29  C   UNL     1      48.071   9.480  17.457  0.00  0.00    +0.000 A 
ATOM     30  O   UNL     1      48.535   9.799  16.369  0.00  0.00    +0.000 OA
ATOM     31  C   UNL     1      48.049   8.129  17.983  0.00  0.00    +0.000 A 
ATOM     32  H   UNL     1      47.584  11.381  17.958  0.00  0.00    +0.000 HD
ENDBRANCH  19  22
ENDBRANCH   1  18
BRANCH   1  34
ATOM     33  C   UNL     1      50.325   8.139  12.752  0.00  0.00    +0.000 C 
ATOM     34  C   UNL     1      48.824   7.981  12.949  0.00  0.00    +0.000 C 
ENDBRANCH   1  34
TORSDOF 8
ENDMDL
MODEL 4
REMARK VINA RESULT:    -7.609      2.288      4.235
REMARK INTER + INTRA:         -12.611
REMARK INTER:                 -11.070
REMARK INTRA:                  -1.541
REMARK UNBOUND:                -1.444
REMARK  Name = 
REMARK  9 active torsions:
REMARK  status: ('A' for Active; 'I' for Inactive)
REMARK    1  A    between atoms: C_1  and  C_2
REMARK    2  A    between atoms: C_2  and  C_3
REMARK    3  A    between atoms: C_3  and  N_4
REMARK    4  A    between atoms: C_3  and  C_17
REMARK    5  A    between atoms: C_5  and  C_7
REMARK    6  A    between atoms: C_20  and  C_21
REMARK    7  A    between atoms: C_21  and  N_22
REMARK    8  A    between atoms: N_22  and  C_23
REMARK    9  A    between atoms: C_23  and  C_24
REMARK                            x       y       z     vdW  Elec       q    Type
REMARK                         _______ _______ _______ _____ _____    ______ ____
ROOT
ATOM      1  C   UNL     1      47.093   5.092  14.995  0.00  0.00    +0.000 C 
ENDROOT
BRANCH   1   2
ATOM      2  C   UNL     1      46.208   4.918  13.762  0.00  0.00    +0.000 A 
ATOM      3  C   UNL     1      46.135   3.677  13.114  0.00  0.00    +0.000 A 
ATOM      4  C   UNL     1      45.310   3.501  11.995  0.00  0.00    +0.000 A 
ATOM      5  C   UNL     1      44.527   4.553  11.502  0.00  0.00    +0.000 A 
ATOM      6  C   UNL     1      44.596   5.793  12.148  0.00  0.00    +0.000 A 
ATOM      7  C   UNL     1      45.424   5.972  13.262  0.00  0.00    +0.000 A 
BRANCH   5   8
ATOM      8  C   UNL     1      43.631   4.360  10.296  0.00  0.00    +0.000 C 
BRANCH   8   9
ATOM      9  N   UNL     1      44.211   3.402   9.358  0.00  0.00    +0.000 NA
ATOM     10  H   UNL     1      43.457   2.921   8.869  0.00  0.00    +0.000 HD
BRANCH   9  11
ATOM     11  C   UNL     1      45.086   4.046   8.382  0.00  0.00    +0.000 C 
BRANCH  11  12
ATOM     12  C   UNL     1      45.984   3.020   7.733  0.00  0.00    +0.000 A 
ATOM     13  C   UNL     1      46.107   1.725   8.246  0.00  0.00    +0.000 A 
ATOM     14  C   UNL     1      46.978   0.843   7.623  0.00  0.00    +0.000 A 
ATOM     15  N   UNL     1      47.719   1.153   6.538  0.00  0.00    +0.000 NA
ATOM     16  C   UNL     1      47.580   2.404   6.051  0.00  0.00    +0.000 A 
ATOM     17  C   UNL     1      46.735   3.354   6.599  0.00  0.00    +0.000 A 
ENDBRANCH  11  12
ENDBRANCH   9  11
ENDBRANCH   8   9
ENDBRANCH   5   8
ENDBRANCH   1   2
BRANCH   1  18
ATOM     18  N   UNL     1      48.267   5.861  14.622  0.00  0.00    +0.000 N 
ATOM     19  C   UNL     1      48.914   6.753  15.434  0.00  0.00    +0.000 C 
ATOM     20  O   UNL     1      48.584   6.954  16.600  0.00  0.00    +0.000 OA
ATOM     21  H   UNL     1      48.528   5.816  13.644  0.00  0.00    +0.000 HD
BRANCH  19  22
ATOM     22  C   UNL     1      50.079   7.420  14.831  0.00  0.00    +0.000 A 
ATOM     23  C   UNL     1      51.306   7.431  15.481  0.00  0.00    +0.000 A 
ATOM     24  S   UNL     1      52.538   8.217  14.597  0.00  0.00    +0.000 S 
ATOM     25  C   UNL     1      51.459   8.625  13.340  0.00  0.00    +0.000 A 
ATOM     26  N   UNL     1      51.870   9.336  12.259  0.00  0.00    +0.000 NA
ATOM     27  C   UNL     1      50.940   9.605  11.408  0.00  0.00    +0.000 A 
ATOM     28  N   UNL     1      49.634   9.218  11.536  0.00  0.00    +0.000 N 
ATOM     29  C   UNL     1      49.186   8.445  12.578  0.00  0.00    +0.000 A 
ATOM     30  O   UNL     1      48.038   8.021  12.589  0.00  0.00    +0.000 OA
ATOM     31  C   UNL     1      50.188   8.145  13.583  0.00  0.00    +0.000 A 
ATOM     32  H   UNL     1      48.950   9.431  10.826  0.00  0.00    +0.000 HD
ENDBRANCH  19  22
ENDBRANCH   1  18
BRANCH   1  34
ATOM     33  C   UNL     1      47.177   3.613  17.085  0.00  0.00    +0.000 C 
ATOM     34  C   UNL     1      47.528   3.747  15.611  0.00  0.00    +0.000 C 
ENDBRANCH   1  34
TORSDOF 8
ENDMDL
MODEL 5
REMARK VINA RESULT:    -7.297      3.123      7.524
REMARK INTER + INTRA:         -12.153
REMARK INTER:                 -10.381
REMARK INTRA:                  -1.772
REMARK UNBOUND:                -1.444
REMARK  Name = 
REMARK  9 active torsions:
REMARK  status: ('A' for Active; 'I' for Inactive)
REMARK    1  A    between atoms: C_1  and  C_2
REMARK    2  A    between atoms: C_2  and  C_3
REMARK    3  A    between atoms: C_3  and  N_4
REMARK    4  A    between atoms: C_3  and  C_17
REMARK    5  A    between atoms: C_5  and  C_7
REMARK    6  A    between atoms: C_20  and  C_21
REMARK    7  A    between atoms: C_21  and  N_22
REMARK    8  A    between atoms: N_22  and  C_23
REMARK    9  A    between atoms: C_23  and  C_24
REMARK                            x       y       z     vdW  Elec       q    Type
REMARK                         _______ _______ _______ _____ _____    ______ ____
ROOT
ATOM      1  C   UNL     1      48.340   8.102  12.100  0.00  0.00    +0.000 C 
ENDROOT
BRANCH   1   2
ATOM      2  C   UNL     1      48.436   7.875  13.607  0.00  0.00    +0.000 A 
ATOM      3  C   UNL     1      48.240   8.942  14.496  0.00  0.00    +0.000 A 
ATOM      4  C   UNL     1      48.305   8.741  15.881  0.00  0.00    +0.000 A 
ATOM      5  C   UNL     1      48.553   7.469  16.416  0.00  0.00    +0.000 A 
ATOM      6  C   UNL     1      48.746   6.402  15.531  0.00  0.00    +0.000 A 
ATOM      7  C   UNL     1      48.688   6.602  14.147  0.00  0.00    +0.000 A 
BRANCH   5   8
ATOM      8  C   UNL     1      48.616   7.252  17.913  0.00  0.00    +0.000 C 
BRANCH   8   9
ATOM      9  N   UNL     1      47.821   6.094  18.312  0.00  0.00    +0.000 NA
ATOM     10  H   UNL     1      47.399   5.681  17.482  0.00  0.00    +0.000 HD
BRANCH   9  11
ATOM     11  C   UNL     1      48.623   5.085  18.998  0.00  0.00    +0.000 C 
BRANCH  11  12
ATOM     12  C   UNL     1      48.927   3.938  18.063  0.00  0.00    +0.000 A 
ATOM     13  C   UNL     1      50.211   3.391  17.970  0.00  0.00    +0.000 A 
ATOM     14  C   UNL     1      50.431   2.363  17.064  0.00  0.00    +0.000 A 
ATOM     15  N   UNL     1      49.477   1.846  16.262  0.00  0.00    +0.000 NA
ATOM     16  C   UNL     1      48.242   2.380  16.373  0.00  0.00    +0.000 A 
ATOM     17  C   UNL     1      47.922   3.404  17.249  0.00  0.00    +0.000 A 
ENDBRANCH  11  12
ENDBRANCH   9  11
ENDBRANCH   8   9
ENDBRANCH   5   8
ENDBRANCH   1   2
BRANCH   1  18
ATOM     18  N   UNL     1      47.561   7.026  11.515  0.00  0.00    +0.000 N 
ATOM     19  C   UNL     1      46.195   7.004  11.420  0.00  0.00    +0.000 C 
ATOM     20  O   UNL     1      45.486   7.939  11.785  0.00  0.00    +0.000 OA
ATOM     21  H   UNL     1      48.077   6.184  11.287  0.00  0.00    +0.000 HD
BRANCH  19  22
ATOM     22  C   UNL     1      45.629   5.799  10.793  0.00  0.00    +0.000 A 
ATOM     23  C   UNL     1      45.798   5.558   9.436  0.00  0.00    +0.000 A 
ATOM     24  S   UNL     1      45.104   4.089   8.913  0.00  0.00    +0.000 S 
ATOM     25  C   UNL     1      44.498   3.750  10.472  0.00  0.00    +0.000 A 
ATOM     26  N   UNL     1      43.773   2.631  10.720  0.00  0.00    +0.000 NA
ATOM     27  C   UNL     1      43.348   2.524  11.933  0.00  0.00    +0.000 A 
ATOM     28  N   UNL     1      43.591   3.434  12.924  0.00  0.00    +0.000 N 
ATOM     29  C   UNL     1      44.372   4.548  12.736  0.00  0.00    +0.000 A 
ATOM     30  O   UNL     1      44.662   5.270  13.681  0.00  0.00    +0.000 OA
ATOM     31  C   UNL     1      44.845   4.732  11.377  0.00  0.00    +0.000 A 
ATOM     32  H   UNL     1      43.258   3.289  13.865  0.00  0.00    +0.000 HD
ENDBRANCH  19  22
ENDBRANCH   1  18
BRANCH   1  34
ATOM     33  C   UNL     1      50.343   9.561  11.449  0.00  0.00    +0.000 C 
ATOM     34  C   UNL     1      49.721   8.173  11.418  0.00  0.00    +0.000 C 
ENDBRANCH   1  34
TORSDOF 8
ENDMDL
MODEL 6
REMARK VINA RESULT:    -7.155      2.476      3.937
REMARK INTER + INTRA:         -11.945
REMARK INTER:                 -10.498
REMARK INTRA:                  -1.448
REMARK UNBOUND:                -1.444
REMARK  Name = 
REMARK  9 active torsions:
REMARK  status: ('A' for Active; 'I' for Inactive)
REMARK    1  A    between atoms: C_1  and  C_2
REMARK    2  A    between atoms: C_2  and  C_3
REMARK    3  A    between atoms: C_3  and  N_4
REMARK    4  A    between atoms: C_3  and  C_17
REMARK    5  A    between atoms: C_5  and  C_7
REMARK    6  A    between atoms: C_20  and  C_21
REMARK    7  A    between atoms: C_21  and  N_22
REMARK    8  A    between atoms: N_22  and  C_23
REMARK    9  A    between atoms: C_23  and  C_24
REMARK                            x       y       z     vdW  Elec       q    Type
REMARK                         _______ _______ _______ _____ _____    ______ ____
ROOT
ATOM      1  C   UNL     1      47.337   4.849  15.816  0.00  0.00    +0.000 C 
ENDROOT
BRANCH   1   2
ATOM      2  C   UNL     1      46.811   4.964  14.387  0.00  0.00    +0.000 A 
ATOM      3  C   UNL     1      47.031   6.132  13.644  0.00  0.00    +0.000 A 
ATOM      4  C   UNL     1      46.572   6.240  12.325  0.00  0.00    +0.000 A 
ATOM      5  C   UNL     1      45.894   5.180  11.707  0.00  0.00    +0.000 A 
ATOM      6  C   UNL     1      45.674   4.011  12.445  0.00  0.00    +0.000 A 
ATOM      7  C   UNL     1      46.127   3.905  13.765  0.00  0.00    +0.000 A 
BRANCH   5   8
ATOM      8  C   UNL     1      45.403   5.296  10.279  0.00  0.00    +0.000 C 
BRANCH   8   9
ATOM      9  N   UNL     1      44.814   4.041   9.822  0.00  0.00    +0.000 NA
ATOM     10  H   UNL     1      43.867   3.965  10.191  0.00  0.00    +0.000 HD
BRANCH   9  11
ATOM     11  C   UNL     1      44.772   3.949   8.365  0.00  0.00    +0.000 C 
BRANCH  11  12
ATOM     12  C   UNL     1      45.857   3.023   7.869  0.00  0.00    +0.000 A 
ATOM     13  C   UNL     1      46.857   3.468   6.999  0.00  0.00    +0.000 A 
ATOM     14  C   UNL     1      47.803   2.556   6.553  0.00  0.00    +0.000 A 
ATOM     15  N   UNL     1      47.826   1.255   6.911  0.00  0.00    +0.000 NA
ATOM     16  C   UNL     1      46.859   0.847   7.759  0.00  0.00    +0.000 A 
ATOM     17  C   UNL     1      45.874   1.680   8.263  0.00  0.00    +0.000 A 
ENDBRANCH  11  12
ENDBRANCH   9  11
ENDBRANCH   8   9
ENDBRANCH   5   8
ENDBRANCH   1   2
BRANCH   1  18
ATOM     18  N   UNL     1      48.434   5.786  15.986  0.00  0.00    +0.000 N 
ATOM     19  C   UNL     1      48.678   6.515  17.118  0.00  0.00    +0.000 C 
ATOM     20  O   UNL     1      48.005   6.406  18.140  0.00  0.00    +0.000 OA
ATOM     21  H   UNL     1      48.964   5.995  15.148  0.00  0.00    +0.000 HD
BRANCH  19  22
ATOM     22  C   UNL     1      49.848   7.406  17.050  0.00  0.00    +0.000 A 
ATOM     23  C   UNL     1      49.689   8.785  17.030  0.00  0.00    +0.000 A 
ATOM     24  S   UNL     1      51.167   9.640  16.995  0.00  0.00    +0.000 S 
ATOM     25  C   UNL     1      52.072   8.194  16.943  0.00  0.00    +0.000 A 
ATOM     26  N   UNL     1      53.427   8.211  16.877  0.00  0.00    +0.000 NA
ATOM     27  C   UNL     1      53.976   7.047  16.805  0.00  0.00    +0.000 A 
ATOM     28  N   UNL     1      53.289   5.864  16.801  0.00  0.00    +0.000 N 
ATOM     29  C   UNL     1      51.924   5.795  16.929  0.00  0.00    +0.000 A 
ATOM     30  O   UNL     1      51.364   4.713  17.043  0.00  0.00    +0.000 OA
ATOM     31  C   UNL     1      51.256   7.082  16.979  0.00  0.00    +0.000 A 
ATOM     32  H   UNL     1      53.769   4.977  16.770  0.00  0.00    +0.000 HD
ENDBRANCH  19  22
ENDBRANCH   1  18
BRANCH   1  34
ATOM     33  C   UNL     1      47.291   2.922  17.504  0.00  0.00    +0.000 C 
ATOM     34  C   UNL     1      47.812   3.425  16.165  0.00  0.00    +0.000 C 
ENDBRANCH   1  34
TORSDOF 8
ENDMDL
MODEL 7
REMARK VINA RESULT:    -7.155      2.736      7.998
REMARK INTER + INTRA:         -11.945
REMARK INTER:                 -10.508
REMARK INTRA:                  -1.437
REMARK UNBOUND:                -1.444
REMARK  Name = 
REMARK  9 active torsions:
REMARK  status: ('A' for Active; 'I' for Inactive)
REMARK    1  A    between atoms: C_1  and  C_2
REMARK    2  A    between atoms: C_2  and  C_3
REMARK    3  A    between atoms: C_3  and  N_4
REMARK    4  A    between atoms: C_3  and  C_17
REMARK    5  A    between atoms: C_5  and  C_7
REMARK    6  A    between atoms: C_20  and  C_21
REMARK    7  A    between atoms: C_21  and  N_22
REMARK    8  A    between atoms: N_22  and  C_23
REMARK    9  A    between atoms: C_23  and  C_24
REMARK                            x       y       z     vdW  Elec       q    Type
REMARK                         _______ _______ _______ _____ _____    ______ ____
ROOT
ATOM      1  C   UNL     1      47.569   7.889  12.577  0.00  0.00    +0.000 C 
ENDROOT
BRANCH   1   2
ATOM      2  C   UNL     1      48.140   7.798  13.991  0.00  0.00    +0.000 A 
ATOM      3  C   UNL     1      47.899   8.823  14.917  0.00  0.00    +0.000 A 
ATOM      4  C   UNL     1      48.399   8.741  16.223  0.00  0.00    +0.000 A 
ATOM      5  C   UNL     1      49.141   7.628  16.644  0.00  0.00    +0.000 A 
ATOM      6  C   UNL     1      49.380   6.601  15.723  0.00  0.00    +0.000 A 
ATOM      7  C   UNL     1      48.887   6.686  14.416  0.00  0.00    +0.000 A 
BRANCH   5   8
ATOM      8  C   UNL     1      49.676   7.537  18.058  0.00  0.00    +0.000 C 
BRANCH   8   9
ATOM      9  N   UNL     1      50.484   6.335  18.239  0.00  0.00    +0.000 NA
ATOM     10  H   UNL     1      51.316   6.573  18.776  0.00  0.00    +0.000 HD
BRANCH   9  11
ATOM     11  C   UNL     1      49.752   5.276  18.929  0.00  0.00    +0.000 C 
BRANCH  11  12
ATOM     12  C   UNL     1      49.660   4.050  18.052  0.00  0.00    +0.000 A 
ATOM     13  C   UNL     1      50.773   3.241  17.806  0.00  0.00    +0.000 A 
ATOM     14  C   UNL     1      50.629   2.150  16.961  0.00  0.00    +0.000 A 
ATOM     15  N   UNL     1      49.471   1.810  16.358  0.00  0.00    +0.000 NA
ATOM     16  C   UNL     1      48.404   2.597  16.614  0.00  0.00    +0.000 A 
ATOM     17  C   UNL     1      48.447   3.704  17.445  0.00  0.00    +0.000 A 
ENDBRANCH  11  12
ENDBRANCH   9  11
ENDBRANCH   8   9
ENDBRANCH   5   8
ENDBRANCH   1   2
BRANCH   1  18
ATOM     18  N   UNL     1      46.766   6.707  12.322  0.00  0.00    +0.000 N 
ATOM     19  C   UNL     1      45.530   6.707  11.733  0.00  0.00    +0.000 C 
ATOM     20  O   UNL     1      44.993   7.727  11.310  0.00  0.00    +0.000 OA
ATOM     21  H   UNL     1      47.108   5.848  12.736  0.00  0.00    +0.000 HD
BRANCH  19  22
ATOM     22  C   UNL     1      44.905   5.382  11.586  0.00  0.00    +0.000 A 
ATOM     23  C   UNL     1      44.190   4.815  12.633  0.00  0.00    +0.000 A 
ATOM     24  S   UNL     1      43.508   3.298  12.248  0.00  0.00    +0.000 S 
ATOM     25  C   UNL     1      44.195   3.317  10.686  0.00  0.00    +0.000 A 
ATOM     26  N   UNL     1      44.017   2.285   9.823  0.00  0.00    +0.000 NA
ATOM     27  C   UNL     1      44.625   2.418   8.694  0.00  0.00    +0.000 A 
ATOM     28  N   UNL     1      45.390   3.497   8.347  0.00  0.00    +0.000 N 
ATOM     29  C   UNL     1      45.547   4.592   9.161  0.00  0.00    +0.000 A 
ATOM     30  O   UNL     1      46.140   5.585   8.760  0.00  0.00    +0.000 OA
ATOM     31  C   UNL     1      44.910   4.476  10.459  0.00  0.00    +0.000 A 
ATOM     32  H   UNL     1      45.823   3.565   7.438  0.00  0.00    +0.000 HD
ENDBRANCH  19  22
ENDBRANCH   1  18
BRANCH   1  34
ATOM     33  C   UNL     1      49.651   9.143  11.765  0.00  0.00    +0.000 C 
ATOM     34  C   UNL     1      48.664   8.016  11.499  0.00  0.00    +0.000 C 
ENDBRANCH   1  34
TORSDOF 8
ENDMDL
MODEL 8
REMARK VINA RESULT:    -6.967      2.225      2.898
REMARK INTER + INTRA:         -11.669
REMARK INTER:                 -10.354
REMARK INTRA:                  -1.315
REMARK UNBOUND:                -1.444
REMARK  Name = 
REMARK  9 active torsions:
REMARK  status: ('A' for Active; 'I' for Inactive)
REMARK    1  A    between atoms: C_1  and  C_2
REMARK    2  A    between atoms: C_2  and  C_3
REMARK    3  A    between atoms: C_3  and  N_4
REMARK    4  A    between atoms: C_3  and  C_17
REMARK    5  A    between atoms: C_5  and  C_7
REMARK    6  A    between atoms: C_20  and  C_21
REMARK    7  A    between atoms: C_21  and  N_22
REMARK    8  A    between atoms: N_22  and  C_23
REMARK    9  A    between atoms: C_23  and  C_24
REMARK                            x       y       z     vdW  Elec       q    Type
REMARK                         _______ _______ _______ _____ _____    ______ ____
ROOT
ATOM      1  C   UNL     1      49.320   7.431  13.825  0.00  0.00    +0.000 C 
ENDROOT
BRANCH   1   2
ATOM      2  C   UNL     1      48.184   6.800  13.021  0.00  0.00    +0.000 A 
ATOM      3  C   UNL     1      47.403   5.781  13.582  0.00  0.00    +0.000 A 
ATOM      4  C   UNL     1      46.345   5.210  12.863  0.00  0.00    +0.000 A 
ATOM      5  C   UNL     1      46.030   5.650  11.570  0.00  0.00    +0.000 A 
ATOM      6  C   UNL     1      46.807   6.670  11.007  0.00  0.00    +0.000 A 
ATOM      7  C   UNL     1      47.868   7.236  11.723  0.00  0.00    +0.000 A 
BRANCH   5   8
ATOM      8  C   UNL     1      44.883   5.037  10.794  0.00  0.00    +0.000 C 
BRANCH   8   9
ATOM      9  N   UNL     1      45.207   4.924   9.375  0.00  0.00    +0.000 NA
ATOM     10  H   UNL     1      46.220   4.938   9.265  0.00  0.00    +0.000 HD
BRANCH   9  11
ATOM     11  C   UNL     1      44.674   3.699   8.784  0.00  0.00    +0.000 C 
BRANCH  11  12
ATOM     12  C   UNL     1      45.785   2.909   8.133  0.00  0.00    +0.000 A 
ATOM     13  C   UNL     1      46.721   3.519   7.293  0.00  0.00    +0.000 A 
ATOM     14  C   UNL     1      47.694   2.729   6.698  0.00  0.00    +0.000 A 
ATOM     15  N   UNL     1      47.802   1.396   6.882  0.00  0.00    +0.000 NA
ATOM     16  C   UNL     1      46.896   0.827   7.704  0.00  0.00    +0.000 A 
ATOM     17  C   UNL     1      45.890   1.530   8.347  0.00  0.00    +0.000 A 
ENDBRANCH  11  12
ENDBRANCH   9  11
ENDBRANCH   8   9
ENDBRANCH   5   8
ENDBRANCH   1   2
BRANCH   1  18
ATOM     18  N   UNL     1      49.423   6.747  15.101  0.00  0.00    +0.000 N 
ATOM     19  C   UNL     1      50.514   6.782  15.928  0.00  0.00    +0.000 C 
ATOM     20  O   UNL     1      51.513   7.454  15.685  0.00  0.00    +0.000 OA
ATOM     21  H   UNL     1      48.674   6.098  15.312  0.00  0.00    +0.000 HD
BRANCH  19  22
ATOM     22  C   UNL     1      50.387   6.002  17.169  0.00  0.00    +0.000 A 
ATOM     23  C   UNL     1      51.211   4.910  17.409  0.00  0.00    +0.000 A 
ATOM     24  S   UNL     1      50.935   4.168  18.921  0.00  0.00    +0.000 S 
ATOM     25  C   UNL     1      49.661   5.242  19.285  0.00  0.00    +0.000 A 
ATOM     26  N   UNL     1      48.963   5.144  20.444  0.00  0.00    +0.000 NA
ATOM     27  C   UNL     1      48.004   5.997  20.568  0.00  0.00    +0.000 A 
ATOM     28  N   UNL     1      47.685   6.948  19.638  0.00  0.00    +0.000 N 
ATOM     29  C   UNL     1      48.402   7.126  18.480  0.00  0.00    +0.000 A 
ATOM     30  O   UNL     1      48.157   8.066  17.735  0.00  0.00    +0.000 OA
ATOM     31  C   UNL     1      49.471   6.166  18.277  0.00  0.00    +0.000 A 
ATOM     32  H   UNL     1      46.941   7.610  19.796  0.00  0.00    +0.000 HD
ENDBRANCH  19  22
ENDBRANCH   1  18
BRANCH   1  34
ATOM     33  C   UNL     1      47.810   9.276  14.761  0.00  0.00    +0.000 C 
ATOM     34  C   UNL     1      49.118   8.941  14.060  0.00  0.00    +0.000 C 
ENDBRANCH   1  34
TORSDOF 8
ENDMDL
MODEL 9
REMARK VINA RESULT:    -6.476      2.815      7.965
REMARK INTER + INTRA:         -10.948
REMARK INTER:                  -9.278
REMARK INTRA:                  -1.670
REMARK UNBOUND:                -1.444
REMARK  Name = 
REMARK  9 active torsions:
REMARK  status: ('A' for Active; 'I' for Inactive)
REMARK    1  A    between atoms: C_1  and  C_2
REMARK    2  A    between atoms: C_2  and  C_3
REMARK    3  A    between atoms: C_3  and  N_4
REMARK    4  A    between atoms: C_3  and  C_17
REMARK    5  A    between atoms: C_5  and  C_7
REMARK    6  A    between atoms: C_20  and  C_21
REMARK    7  A    between atoms: C_21  and  N_22
REMARK    8  A    between atoms: N_22  and  C_23
REMARK    9  A    between atoms: C_23  and  C_24
REMARK                            x       y       z     vdW  Elec       q    Type
REMARK                         _______ _______ _______ _____ _____    ______ ____
ROOT
ATOM      1  C   UNL     1      45.605   7.895  12.602  0.00  0.00    +0.000 C 
ENDROOT
BRANCH   1   2
ATOM      2  C   UNL     1      46.995   7.890  13.237  0.00  0.00    +0.000 A 
ATOM      3  C   UNL     1      47.320   8.823  14.232  0.00  0.00    +0.000 A 
ATOM      4  C   UNL     1      48.584   8.815  14.837  0.00  0.00    +0.000 A 
ATOM      5  C   UNL     1      49.551   7.867  14.475  0.00  0.00    +0.000 A 
ATOM      6  C   UNL     1      49.228   6.932  13.484  0.00  0.00    +0.000 A 
ATOM      7  C   UNL     1      47.969   6.944  12.875  0.00  0.00    +0.000 A 
BRANCH   5   8
ATOM      8  C   UNL     1      50.915   7.854  15.134  0.00  0.00    +0.000 C 
BRANCH   8   9
ATOM      9  N   UNL     1      51.163   6.582  15.805  0.00  0.00    +0.000 NA
ATOM     10  H   UNL     1      52.163   6.490  15.981  0.00  0.00    +0.000 HD
BRANCH   9  11
ATOM     11  C   UNL     1      50.439   6.474  17.069  0.00  0.00    +0.000 C 
BRANCH  11  12
ATOM     12  C   UNL     1      49.575   5.235  17.070  0.00  0.00    +0.000 A 
ATOM     13  C   UNL     1      48.235   5.278  16.674  0.00  0.00    +0.000 A 
ATOM     14  C   UNL     1      47.487   4.111  16.734  0.00  0.00    +0.000 A 
ATOM     15  N   UNL     1      47.973   2.923  17.149  0.00  0.00    +0.000 NA
ATOM     16  C   UNL     1      49.271   2.898  17.517  0.00  0.00    +0.000 A 
ATOM     17  C   UNL     1      50.100   4.008  17.489  0.00  0.00    +0.000 A 
ENDBRANCH  11  12
ENDBRANCH   9  11
ENDBRANCH   8   9
ENDBRANCH   5   8
ENDBRANCH   1   2
BRANCH   1  18
ATOM     18  N   UNL     1      45.297   6.552  12.144  0.00  0.00    +0.000 N 
ATOM     19  C   UNL     1      44.103   6.160  11.602  0.00  0.00    +0.000 C 
ATOM     20  O   UNL     1      43.174   6.938  11.400  0.00  0.00    +0.000 OA
ATOM     21  H   UNL     1      45.983   5.843  12.374  0.00  0.00    +0.000 HD
BRANCH  19  22
ATOM     22  C   UNL     1      44.024   4.741  11.218  0.00  0.00    +0.000 A 
ATOM     23  C   UNL     1      43.283   3.842  11.974  0.00  0.00    +0.000 A 
ATOM     24  S   UNL     1      43.283   2.257  11.338  0.00  0.00    +0.000 S 
ATOM     25  C   UNL     1      44.323   2.704  10.062  0.00  0.00    +0.000 A 
ATOM     26  N   UNL     1      44.745   1.797   9.145  0.00  0.00    +0.000 NA
ATOM     27  C   UNL     1      45.558   2.266   8.260  0.00  0.00    +0.000 A 
ATOM     28  N   UNL     1      45.981   3.566   8.206  0.00  0.00    +0.000 N 
ATOM     29  C   UNL     1      45.532   4.531   9.073  0.00  0.00    +0.000 A 
ATOM     30  O   UNL     1      45.843   5.705   8.913  0.00  0.00    +0.000 OA
ATOM     31  C   UNL     1      44.641   4.046  10.110  0.00  0.00    +0.000 A 
ATOM     32  H   UNL     1      46.597   3.888   7.476  0.00  0.00    +0.000 HD
ENDBRANCH  19  22
ENDBRANCH   1  18
BRANCH   1  34
ATOM     33  C   UNL     1      44.765  10.173  11.782  0.00  0.00    +0.000 C 
ATOM     34  C   UNL     1      45.491   8.884  11.425  0.00  0.00    +0.000 C 
ENDBRANCH   1  34
TORSDOF 8
ENDMDL
