MODEL 1
REMARK VINA RESULT:    -7.544      0.000      0.000
REMARK INTER + INTRA:         -10.275
REMARK INTER:                  -9.529
REMARK INTRA:                  -0.745
REMARK UNBOUND:                -0.745
REMARK  Name = 
REMARK  5 active torsions:
REMARK  status: ('A' for Active; 'I' for Inactive)
REMARK    1  A    between atoms: N_1  and  C_2
REMARK    2  A    between atoms: C_2  and  C_3
REMARK    3  A    between atoms: C_6  and  O_7
REMARK    4  A    between atoms: O_7  and  C_8
REMARK    5  A    between atoms: C_8  and  C_9
REMARK                            x       y       z     vdW  Elec       q    Type
REMARK                         _______ _______ _______ _____ _____    ______ ____
ROOT
ATOM      1  C   UNL     1      46.532   2.337   7.668  0.00  0.00    +0.000 A 
ATOM      2  C   UNL     1      46.403   3.726   7.548  0.00  0.00    +0.000 A 
ATOM      3  C   UNL     1      45.422   4.412   8.271  0.00  0.00    +0.000 A 
ATOM      4  C   UNL     1      44.553   3.714   9.107  0.00  0.00    +0.000 A 
ATOM      5  C   UNL     1      44.710   2.337   9.271  0.00  0.00    +0.000 A 
ATOM      6  C   UNL     1      45.685   1.651   8.545  0.00  0.00    +0.000 A 
ENDROOT
BRANCH   1   7
ATOM      7  C   UNL     1      47.554   1.574   6.860  0.00  0.00    +0.000 C 
BRANCH   7   8
ATOM      8  N   UNL     1      48.604   2.451   6.359  0.00  0.00    +0.000 NA
ATOM      9  H   UNL     1      49.130   2.821   7.148  0.00  0.00    +0.000 HD
ATOM     10  H   UNL     1      48.170   3.251   5.902  0.00  0.00    +0.000 HD
ENDBRANCH   7   8
ENDBRANCH   1   7
BRANCH   4  11
ATOM     11  O   UNL     1      43.585   4.460   9.724  0.00  0.00    +0.000 OA
BRANCH  11  12
ATOM     12  C   UNL     1      43.497   4.275  11.142  0.00  0.00    +0.000 C 
BRANCH  12  13
ATOM     13  C   UNL     1      44.610   5.005  11.845  0.00  0.00    +0.000 A 
ATOM     14  C   UNL     1      44.668   6.405  11.888  0.00  0.00    +0.000 A 
ATOM     15  C   UNL     1      45.672   7.048  12.616  0.00  0.00    +0.000 A 
ATOM     16  C   UNL     1      46.609   6.291  13.310  0.00  0.00    +0.000 A 
ATOM     17  F   UNL     1      47.564   6.911  14.014  0.00  0.00    +0.000 F 
ATOM     18  C   UNL     1      46.564   4.904  13.296  0.00  0.00    +0.000 A 
ATOM     19  C   UNL     1      45.562   4.274  12.568  0.00  0.00    +0.000 A 
ATOM     20  F   UNL     1      45.502   2.933  12.578  0.00  0.00    +0.000 F 
ENDBRANCH  12  13
ENDBRANCH  11  12
ENDBRANCH   4  11
TORSDOF 5
ENDMDL
MODEL 2
REMARK VINA RESULT:    -7.446      1.098      1.581
REMARK INTER + INTRA:         -10.150
REMARK INTER:                  -9.513
REMARK INTRA:                  -0.637
REMARK UNBOUND:                -0.745
REMARK  Name = 
REMARK  5 active torsions:
REMARK  status: ('A' for Active; 'I' for Inactive)
REMARK    1  A    between atoms: N_1  and  C_2
REMARK    2  A    between atoms: C_2  and  C_3
REMARK    3  A    between atoms: C_6  and  O_7
REMARK    4  A    between atoms: O_7  and  C_8
REMARK    5  A    between atoms: C_8  and  C_9
REMARK                            x       y       z     vdW  Elec       q    Type
REMARK                         _______ _______ _______ _____ _____    ______ ____
ROOT
ATOM      1  C   UNL     1      46.547   2.303   7.660  0.00  0.00    +0.000 A 
ATOM      2  C   UNL     1      46.443   3.698   7.599  0.00  0.00    +0.000 A 
ATOM      3  C   UNL     1      45.474   4.370   8.351  0.00  0.00    +0.000 A 
ATOM      4  C   UNL     1      44.592   3.651   9.157  0.00  0.00    +0.000 A 
ATOM      5  C   UNL     1      44.725   2.266   9.261  0.00  0.00    +0.000 A 
ATOM      6  C   UNL     1      45.688   1.595   8.506  0.00  0.00    +0.000 A 
ENDROOT
BRANCH   1   7
ATOM      7  C   UNL     1      47.557   1.558   6.820  0.00  0.00    +0.000 C 
BRANCH   7   8
ATOM      8  N   UNL     1      48.610   2.441   6.337  0.00  0.00    +0.000 NA
ATOM      9  H   UNL     1      48.394   2.721   5.383  0.00  0.00    +0.000 HD
ATOM     10  H   UNL     1      49.482   1.914   6.292  0.00  0.00    +0.000 HD
ENDBRANCH   7   8
ENDBRANCH   1   7
BRANCH   4  11
ATOM     11  O   UNL     1      43.637   4.387   9.805  0.00  0.00    +0.000 OA
BRANCH  11  12
ATOM     12  C   UNL     1      43.425   4.022  11.174  0.00  0.00    +0.000 C 
BRANCH  12  13
ATOM     13  C   UNL     1      44.549   4.525  12.040  0.00  0.00    +0.000 A 
ATOM     14  C   UNL     1      45.453   3.652  12.664  0.00  0.00    +0.000 A 
ATOM     15  C   UNL     1      46.530   4.157  13.395  0.00  0.00    +0.000 A 
ATOM     16  C   UNL     1      46.711   5.532  13.492  0.00  0.00    +0.000 A 
ATOM     17  F   UNL     1      47.751   6.011  14.186  0.00  0.00    +0.000 F 
ATOM     18  C   UNL     1      45.840   6.416  12.871  0.00  0.00    +0.000 A 
ATOM     19  C   UNL     1      44.770   5.904  12.147  0.00  0.00    +0.000 A 
ATOM     20  F   UNL     1      43.945   6.758  11.523  0.00  0.00    +0.000 F 
ENDBRANCH  12  13
ENDBRANCH  11  12
ENDBRANCH   4  11
TORSDOF 5
ENDMDL
MODEL 3
REMARK VINA RESULT:    -6.885      3.116      5.832
REMARK INTER + INTRA:          -9.442
REMARK INTER:                  -8.972
REMARK INTRA:                  -0.470
REMARK UNBOUND:                -0.745
REMARK  Name = 
REMARK  5 active torsions:
REMARK  status: ('A' for Active; 'I' for Inactive)
REMARK    1  A    between atoms: N_1  and  C_2
REMARK    2  A    between atoms: C_2  and  C_3
REMARK    3  A    between atoms: C_6  and  O_7
REMARK    4  A    between atoms: O_7  and  C_8
REMARK    5  A    between atoms: C_8  and  C_9
REMARK                            x       y       z     vdW  Elec       q    Type
REMARK                         _______ _______ _______ _____ _____    ______ ____
ROOT
ATOM      1  C   UNL     1      46.543   4.730  13.560  0.00  0.00    +0.000 A 
ATOM      2  C   UNL     1      45.762   3.695  13.029  0.00  0.00    +0.000 A 
ATOM      3  C   UNL     1      45.119   3.853  11.797  0.00  0.00    +0.000 A 
ATOM      4  C   UNL     1      45.239   5.052  11.095  0.00  0.00    +0.000 A 
ATOM      5  C   UNL     1      46.058   6.065  11.594  0.00  0.00    +0.000 A 
ATOM      6  C   UNL     1      46.694   5.910  12.826  0.00  0.00    +0.000 A 
ENDROOT
BRANCH   1   7
ATOM      7  C   UNL     1      47.206   4.594  14.910  0.00  0.00    +0.000 C 
BRANCH   7   8
ATOM      8  N   UNL     1      47.653   3.229  15.153  0.00  0.00    +0.000 NA
ATOM      9  H   UNL     1      48.535   3.079  14.667  0.00  0.00    +0.000 HD
ATOM     10  H   UNL     1      46.982   2.586  14.734  0.00  0.00    +0.000 HD
ENDBRANCH   7   8
ENDBRANCH   1   7
BRANCH   4  11
ATOM     11  O   UNL     1      44.523   5.139   9.931  0.00  0.00    +0.000 OA
BRANCH  11  12
ATOM     12  C   UNL     1      44.157   3.878   9.357  0.00  0.00    +0.000 C 
BRANCH  12  13
ATOM     13  C   UNL     1      45.265   3.345   8.489  0.00  0.00    +0.000 A 
ATOM     14  C   UNL     1      46.133   4.195   7.788  0.00  0.00    +0.000 A 
ATOM     15  C   UNL     1      47.199   3.667   7.056  0.00  0.00    +0.000 A 
ATOM     16  C   UNL     1      47.404   2.292   7.035  0.00  0.00    +0.000 A 
ATOM     17  F   UNL     1      48.433   1.792   6.340  0.00  0.00    +0.000 F 
ATOM     18  C   UNL     1      46.569   1.431   7.733  0.00  0.00    +0.000 A 
ATOM     19  C   UNL     1      45.510   1.966   8.458  0.00  0.00    +0.000 A 
ATOM     20  F   UNL     1      44.720   1.136   9.156  0.00  0.00    +0.000 F 
ENDBRANCH  12  13
ENDBRANCH  11  12
ENDBRANCH   4  11
TORSDOF 5
ENDMDL
MODEL 4
REMARK VINA RESULT:    -6.713      3.167      5.983
REMARK INTER + INTRA:          -9.225
REMARK INTER:                  -8.606
REMARK INTRA:                  -0.618
REMARK UNBOUND:                -0.745
REMARK  Name = 
REMARK  5 active torsions:
REMARK  status: ('A' for Active; 'I' for Inactive)
REMARK    1  A    between atoms: N_1  and  C_2
REMARK    2  A    between atoms: C_2  and  C_3
REMARK    3  A    between atoms: C_6  and  O_7
REMARK    4  A    between atoms: O_7  and  C_8
REMARK    5  A    between atoms: C_8  and  C_9
REMARK                            x       y       z     vdW  Elec       q    Type
REMARK                         _______ _______ _______ _____ _____    ______ ____
ROOT
ATOM      1  C   UNL     1      46.860   5.422  13.286  0.00  0.00    +0.000 A 
ATOM      2  C   UNL     1      46.065   5.964  12.268  0.00  0.00    +0.000 A 
ATOM      3  C   UNL     1      45.172   5.155  11.559  0.00  0.00    +0.000 A 
ATOM      4  C   UNL     1      45.080   3.794  11.850  0.00  0.00    +0.000 A 
ATOM      5  C   UNL     1      45.832   3.260  12.896  0.00  0.00    +0.000 A 
ATOM      6  C   UNL     1      46.727   4.066  13.600  0.00  0.00    +0.000 A 
ENDROOT
BRANCH   1   7
ATOM      7  C   UNL     1      47.862   6.271  14.030  0.00  0.00    +0.000 C 
BRANCH   7   8
ATOM      8  N   UNL     1      48.159   5.722  15.346  0.00  0.00    +0.000 NA
ATOM      9  H   UNL     1      48.846   6.317  15.804  0.00  0.00    +0.000 HD
ATOM     10  H   UNL     1      48.601   4.811  15.227  0.00  0.00    +0.000 HD
ENDBRANCH   7   8
ENDBRANCH   1   7
BRANCH   4  11
ATOM     11  O   UNL     1      44.227   3.069  11.061  0.00  0.00    +0.000 OA
BRANCH  11  12
ATOM     12  C   UNL     1      44.106   3.544   9.714  0.00  0.00    +0.000 C 
BRANCH  12  13
ATOM     13  C   UNL     1      45.206   2.984   8.852  0.00  0.00    +0.000 A 
ATOM     14  C   UNL     1      45.416   1.604   8.718  0.00  0.00    +0.000 A 
ATOM     15  C   UNL     1      46.395   1.120   7.849  0.00  0.00    +0.000 A 
ATOM     16  C   UNL     1      47.155   2.015   7.104  0.00  0.00    +0.000 A 
ATOM     17  F   UNL     1      48.086   1.545   6.264  0.00  0.00    +0.000 F 
ATOM     18  C   UNL     1      46.957   3.384   7.206  0.00  0.00    +0.000 A 
ATOM     19  C   UNL     1      45.980   3.856   8.076  0.00  0.00    +0.000 A 
ATOM     20  F   UNL     1      45.769   5.179   8.153  0.00  0.00    +0.000 F 
ENDBRANCH  12  13
ENDBRANCH  11  12
ENDBRANCH   4  11
TORSDOF 5
ENDMDL
MODEL 5
REMARK VINA RESULT:    -6.097      3.386      6.011
REMARK INTER + INTRA:          -8.446
REMARK INTER:                  -8.034
REMARK INTRA:                  -0.412
REMARK UNBOUND:                -0.745
REMARK  Name = 
REMARK  5 active torsions:
REMARK  status: ('A' for Active; 'I' for Inactive)
REMARK    1  A    between atoms: N_1  and  C_2
REMARK    2  A    between atoms: C_2  and  C_3
REMARK    3  A    between atoms: C_6  and  O_7
REMARK    4  A    between atoms: O_7  and  C_8
REMARK    5  A    between atoms: C_8  and  C_9
REMARK                            x       y       z     vdW  Elec       q    Type
REMARK                         _______ _______ _______ _____ _____    ______ ____
ROOT
ATOM      1  C   UNL     1      45.436   5.601  12.427  0.00  0.00    +0.000 A 
ATOM      2  C   UNL     1      44.643   5.998  11.343  0.00  0.00    +0.000 A 
ATOM      3  C   UNL     1      44.136   5.048  10.451  0.00  0.00    +0.000 A 
ATOM      4  C   UNL     1      44.430   3.696  10.626  0.00  0.00    +0.000 A 
ATOM      5  C   UNL     1      45.176   3.291  11.733  0.00  0.00    +0.000 A 
ATOM      6  C   UNL     1      45.687   4.238  12.620  0.00  0.00    +0.000 A 
ENDROOT
BRANCH   1   7
ATOM      7  C   UNL     1      46.031   6.616  13.372  0.00  0.00    +0.000 C 
BRANCH   7   8
ATOM      8  N   UNL     1      46.204   7.912  12.729  0.00  0.00    +0.000 NA
ATOM      9  H   UNL     1      47.184   8.031  12.485  0.00  0.00    +0.000 HD
ATOM     10  H   UNL     1      45.985   8.643  13.406  0.00  0.00    +0.000 HD
ENDBRANCH   7   8
ENDBRANCH   1   7
BRANCH   4  11
ATOM     11  O   UNL     1      43.943   2.848   9.668  0.00  0.00    +0.000 OA
BRANCH  11  12
ATOM     12  C   UNL     1      44.799   1.741   9.356  0.00  0.00    +0.000 C 
BRANCH  12  13
ATOM     13  C   UNL     1      45.640   2.043   8.145  0.00  0.00    +0.000 A 
ATOM     14  C   UNL     1      45.673   3.318   7.563  0.00  0.00    +0.000 A 
ATOM     15  C   UNL     1      46.525   3.582   6.489  0.00  0.00    +0.000 A 
ATOM     16  C   UNL     1      47.353   2.574   6.005  0.00  0.00    +0.000 A 
ATOM     17  F   UNL     1      48.175   2.834   4.982  0.00  0.00    +0.000 F 
ATOM     18  C   UNL     1      47.351   1.309   6.574  0.00  0.00    +0.000 A 
ATOM     19  C   UNL     1      46.498   1.056   7.642  0.00  0.00    +0.000 A 
ATOM     20  F   UNL     1      46.517  -0.159   8.211  0.00  0.00    +0.000 F 
ENDBRANCH  12  13
ENDBRANCH  11  12
ENDBRANCH   4  11
TORSDOF 5
ENDMDL
MODEL 6
REMARK VINA RESULT:    -5.535      5.033      7.924
REMARK INTER + INTRA:          -7.737
REMARK INTER:                  -7.390
REMARK INTRA:                  -0.347
REMARK UNBOUND:                -0.745
REMARK  Name = 
REMARK  5 active torsions:
REMARK  status: ('A' for Active; 'I' for Inactive)
REMARK    1  A    between atoms: N_1  and  C_2
REMARK    2  A    between atoms: C_2  and  C_3
REMARK    3  A    between atoms: C_6  and  O_7
REMARK    4  A    between atoms: O_7  and  C_8
REMARK    5  A    between atoms: C_8  and  C_9
REMARK                            x       y       z     vdW  Elec       q    Type
REMARK                         _______ _______ _______ _____ _____    ______ ____
ROOT
ATOM      1  C   UNL     1      48.703   4.479  18.521  0.00  0.00    +0.000 A 
ATOM      2  C   UNL     1      48.066   3.283  18.164  0.00  0.00    +0.000 A 
ATOM      3  C   UNL     1      47.472   3.145  16.907  0.00  0.00    +0.000 A 
ATOM      4  C   UNL     1      47.494   4.206  16.002  0.00  0.00    +0.000 A 
ATOM      5  C   UNL     1      48.171   5.380  16.332  0.00  0.00    +0.000 A 
ATOM      6  C   UNL     1      48.760   5.521  17.590  0.00  0.00    +0.000 A 
ENDROOT
BRANCH   1   7
ATOM      7  C   UNL     1      49.309   4.662  19.891  0.00  0.00    +0.000 C 
BRANCH   7   8
ATOM      8  N   UNL     1      48.511   4.013  20.923  0.00  0.00    +0.000 NA
ATOM      9  H   UNL     1      49.028   3.217  21.288  0.00  0.00    +0.000 HD
ATOM     10  H   UNL     1      47.667   3.635  20.493  0.00  0.00    +0.000 HD
ENDBRANCH   7   8
ENDBRANCH   1   7
BRANCH   4  11
ATOM     11  O   UNL     1      46.831   4.002  14.821  0.00  0.00    +0.000 OA
BRANCH  11  12
ATOM     12  C   UNL     1      46.865   5.110  13.914  0.00  0.00    +0.000 C 
BRANCH  12  13
ATOM     13  C   UNL     1      46.121   4.785  12.647  0.00  0.00    +0.000 A 
ATOM     14  C   UNL     1      45.395   3.594  12.498  0.00  0.00    +0.000 A 
ATOM     15  C   UNL     1      44.653   3.361  11.338  0.00  0.00    +0.000 A 
ATOM     16  C   UNL     1      44.626   4.323  10.335  0.00  0.00    +0.000 A 
ATOM     17  F   UNL     1      43.904   4.100   9.230  0.00  0.00    +0.000 F 
ATOM     18  C   UNL     1      45.322   5.516  10.465  0.00  0.00    +0.000 A 
ATOM     19  C   UNL     1      46.060   5.738  11.623  0.00  0.00    +0.000 A 
ATOM     20  F   UNL     1      46.710   6.903  11.761  0.00  0.00    +0.000 F 
ENDBRANCH  12  13
ENDBRANCH  11  12
ENDBRANCH   4  11
TORSDOF 5
ENDMDL
MODEL 7
REMARK VINA RESULT:    -5.481      3.799      6.659
REMARK INTER + INTRA:          -7.668
REMARK INTER:                  -7.126
REMARK INTRA:                  -0.542
REMARK UNBOUND:                -0.745
REMARK  Name = 
REMARK  5 active torsions:
REMARK  status: ('A' for Active; 'I' for Inactive)
REMARK    1  A    between atoms: N_1  and  C_2
REMARK    2  A    between atoms: C_2  and  C_3
REMARK    3  A    between atoms: C_6  and  O_7
REMARK    4  A    between atoms: O_7  and  C_8
REMARK    5  A    between atoms: C_8  and  C_9
REMARK                            x       y       z     vdW  Elec       q    Type
REMARK                         _______ _______ _______ _____ _____    ______ ____
ROOT
ATOM      1  C   UNL     1      48.158   5.152  16.327  0.00  0.00    +0.000 A 
ATOM      2  C   UNL     1      48.632   6.287  15.656  0.00  0.00    +0.000 A 
ATOM      3  C   UNL     1      48.200   6.575  14.358  0.00  0.00    +0.000 A 
ATOM      4  C   UNL     1      47.304   5.723  13.714  0.00  0.00    +0.000 A 
ATOM      5  C   UNL     1      46.789   4.620  14.396  0.00  0.00    +0.000 A 
ATOM      6  C   UNL     1      47.225   4.329  15.689  0.00  0.00    +0.000 A 
ENDROOT
BRANCH   1   7
ATOM      7  C   UNL     1      48.650   4.801  17.710  0.00  0.00    +0.000 C 
BRANCH   7   8
ATOM      8  N   UNL     1      47.676   3.999  18.438  0.00  0.00    +0.000 NA
ATOM      9  H   UNL     1      48.158   3.472  19.163  0.00  0.00    +0.000 HD
ATOM     10  H   UNL     1      47.278   3.311  17.800  0.00  0.00    +0.000 HD
ENDBRANCH   7   8
ENDBRANCH   1   7
BRANCH   4  11
ATOM     11  O   UNL     1      46.987   6.051  12.423  0.00  0.00    +0.000 OA
BRANCH  11  12
ATOM     12  C   UNL     1      45.583   6.160  12.159  0.00  0.00    +0.000 C 
BRANCH  12  13
ATOM     13  C   UNL     1      45.155   5.149  11.128  0.00  0.00    +0.000 A 
ATOM     14  C   UNL     1      45.572   5.229   9.792  0.00  0.00    +0.000 A 
ATOM     15  C   UNL     1      45.220   4.230   8.882  0.00  0.00    +0.000 A 
ATOM     16  C   UNL     1      44.461   3.147   9.311  0.00  0.00    +0.000 A 
ATOM     17  F   UNL     1      44.134   2.187   8.437  0.00  0.00    +0.000 F 
ATOM     18  C   UNL     1      44.049   3.036  10.631  0.00  0.00    +0.000 A 
ATOM     19  C   UNL     1      44.404   4.036  11.529  0.00  0.00    +0.000 A 
ATOM     20  F   UNL     1      44.030   3.915  12.812  0.00  0.00    +0.000 F 
ENDBRANCH  12  13
ENDBRANCH  11  12
ENDBRANCH   4  11
TORSDOF 5
ENDMDL
MODEL 8
REMARK VINA RESULT:    -5.187      3.160      6.045
REMARK INTER + INTRA:          -7.297
REMARK INTER:                  -6.865
REMARK INTRA:                  -0.432
REMARK UNBOUND:                -0.745
REMARK  Name = 
REMARK  5 active torsions:
REMARK  status: ('A' for Active; 'I' for Inactive)
REMARK    1  A    between atoms: N_1  and  C_2
REMARK    2  A    between atoms: C_2  and  C_3
REMARK    3  A    between atoms: C_6  and  O_7
REMARK    4  A    between atoms: O_7  and  C_8
REMARK    5  A    between atoms: C_8  and  C_9
REMARK                            x       y       z     vdW  Elec       q    Type
REMARK                         _______ _______ _______ _____ _____    ______ ____
ROOT
ATOM      1  C   UNL     1      48.166   7.188  14.276  0.00  0.00    +0.000 A 
ATOM      2  C   UNL     1      47.584   8.345  13.741  0.00  0.00    +0.000 A 
ATOM      3  C   UNL     1      46.614   8.252  12.739  0.00  0.00    +0.000 A 
ATOM      4  C   UNL     1      46.229   7.003  12.251  0.00  0.00    +0.000 A 
ATOM      5  C   UNL     1      46.768   5.846  12.816  0.00  0.00    +0.000 A 
ATOM      6  C   UNL     1      47.740   5.939  13.813  0.00  0.00    +0.000 A 
ENDROOT
BRANCH   1   7
ATOM      7  C   UNL     1      49.247   7.272  15.325  0.00  0.00    +0.000 C 
BRANCH   7   8
ATOM      8  N   UNL     1      50.573   7.103  14.745  0.00  0.00    +0.000 NA
ATOM      9  H   UNL     1      51.257   7.553  15.348  0.00  0.00    +0.000 HD
ATOM     10  H   UNL     1      50.604   7.597  13.854  0.00  0.00    +0.000 HD
ENDBRANCH   7   8
ENDBRANCH   1   7
BRANCH   4  11
ATOM     11  O   UNL     1      45.322   7.013  11.226  0.00  0.00    +0.000 OA
BRANCH  11  12
ATOM     12  C   UNL     1      44.177   6.176  11.431  0.00  0.00    +0.000 C 
BRANCH  12  13
ATOM     13  C   UNL     1      44.317   4.886  10.667  0.00  0.00    +0.000 A 
ATOM     14  C   UNL     1      45.048   4.806   9.473  0.00  0.00    +0.000 A 
ATOM     15  C   UNL     1      45.222   3.577   8.833  0.00  0.00    +0.000 A 
ATOM     16  C   UNL     1      44.677   2.428   9.394  0.00  0.00    +0.000 A 
ATOM     17  F   UNL     1      44.855   1.250   8.782  0.00  0.00    +0.000 F 
ATOM     18  C   UNL     1      43.963   2.478  10.582  0.00  0.00    +0.000 A 
ATOM     19  C   UNL     1      43.794   3.706  11.211  0.00  0.00    +0.000 A 
ATOM     20  F   UNL     1      43.128   3.750  12.375  0.00  0.00    +0.000 F 
ENDBRANCH  12  13
ENDBRANCH  11  12
ENDBRANCH   4  11
TORSDOF 5
ENDMDL
MODEL 9
REMARK VINA RESULT:    -5.159      4.987      7.249
REMARK INTER + INTRA:          -7.262
REMARK INTER:                  -6.781
REMARK INTRA:                  -0.481
REMARK UNBOUND:                -0.745
REMARK  Name = 
REMARK  5 active torsions:
REMARK  status: ('A' for Active; 'I' for Inactive)
REMARK    1  A    between atoms: N_1  and  C_2
REMARK    2  A    between atoms: C_2  and  C_3
REMARK    3  A    between atoms: C_6  and  O_7
REMARK    4  A    between atoms: O_7  and  C_8
REMARK    5  A    between atoms: C_8  and  C_9
REMARK                            x       y       z     vdW  Elec       q    Type
REMARK                         _______ _______ _______ _____ _____    ______ ____
ROOT
ATOM      1  C   UNL     1      50.132   4.019  17.678  0.00  0.00    +0.000 A 
ATOM      2  C   UNL     1      49.484   5.210  17.323  0.00  0.00    +0.000 A 
ATOM      3  C   UNL     1      48.293   5.178  16.593  0.00  0.00    +0.000 A 
ATOM      4  C   UNL     1      47.748   3.957  16.197  0.00  0.00    +0.000 A 
ATOM      5  C   UNL     1      48.360   2.767  16.592  0.00  0.00    +0.000 A 
ATOM      6  C   UNL     1      49.552   2.799  17.317  0.00  0.00    +0.000 A 
ENDROOT
BRANCH   1   7
ATOM      7  C   UNL     1      51.443   4.036  18.427  0.00  0.00    +0.000 C 
BRANCH   7   8
ATOM      8  N   UNL     1      52.060   2.717  18.460  0.00  0.00    +0.000 NA
ATOM      9  H   UNL     1      51.613   2.126  17.762  0.00  0.00    +0.000 HD
ATOM     10  H   UNL     1      51.867   2.290  19.365  0.00  0.00    +0.000 HD
ENDBRANCH   7   8
ENDBRANCH   1   7
BRANCH   4  11
ATOM     11  O   UNL     1      46.615   4.026  15.431  0.00  0.00    +0.000 OA
BRANCH  11  12
ATOM     12  C   UNL     1      46.842   3.958  14.017  0.00  0.00    +0.000 C 
BRANCH  12  13
ATOM     13  C   UNL     1      46.255   5.158  13.325  0.00  0.00    +0.000 A 
ATOM     14  C   UNL     1      47.037   6.266  12.968  0.00  0.00    +0.000 A 
ATOM     15  C   UNL     1      46.475   7.328  12.257  0.00  0.00    +0.000 A 
ATOM     16  C   UNL     1      45.134   7.276  11.892  0.00  0.00    +0.000 A 
ATOM     17  F   UNL     1      44.601   8.292  11.201  0.00  0.00    +0.000 F 
ATOM     18  C   UNL     1      44.342   6.184  12.219  0.00  0.00    +0.000 A 
ATOM     19  C   UNL     1      44.911   5.133  12.929  0.00  0.00    +0.000 A 
ATOM     20  F   UNL     1      44.153   4.065  13.220  0.00  0.00    +0.000 F 
ENDBRANCH  12  13
ENDBRANCH  11  12
ENDBRANCH   4  11
TORSDOF 5
ENDMDL
