MODEL 1
REMARK VINA RESULT:    -7.490      0.000      0.000
REMARK INTER + INTRA:          -9.614
REMARK INTER:                  -9.242
REMARK INTRA:                  -0.372
REMARK UNBOUND:                -0.372
REMARK  Name = 
REMARK  4 active torsions:
REMARK  status: ('A' for Active; 'I' for Inactive)
REMARK    1  A    between atoms: C_2  and  C_4
REMARK    2  A    between atoms: C_7  and  S_8
REMARK    3  A    between atoms: S_8  and  C_9
REMARK    4  A    between atoms: C_9  and  C_10
REMARK                            x       y       z     vdW  Elec       q    Type
REMARK                         _______ _______ _______ _____ _____    ______ ____
ROOT
ATOM      1  C   UNL     1      46.399   2.466   7.753  0.00  0.00    +0.000 A 
ATOM      2  C   UNL     1      45.626   1.780   8.688  0.00  0.00    +0.000 A 
ATOM      3  C   UNL     1      44.760   2.500   9.514  0.00  0.00    +0.000 A 
ATOM      4  C   UNL     1      44.677   3.883   9.370  0.00  0.00    +0.000 A 
ATOM      5  N   UNL     1      45.419   4.563   8.471  0.00  0.00    +0.000 NA
ATOM      6  C   UNL     1      46.273   3.846   7.695  0.00  0.00    +0.000 A 
ENDROOT
BRANCH   1   8
ATOM      7  N   UNL     1      48.447   2.519   6.443  0.00  0.00    +0.000 N 
ATOM      8  C   UNL     1      47.357   1.801   6.847  0.00  0.00    +0.000 C 
ATOM      9  O   UNL     1      47.202   0.637   6.500  0.00  0.00    +0.000 OA
ATOM     10  H   UNL     1      49.144   2.011   5.909  0.00  0.00    +0.000 HD
ATOM     11  H   UNL     1      48.739   3.372   6.895  0.00  0.00    +0.000 HD
ENDBRANCH   1   8
BRANCH   4  12
ATOM     12  S   UNL     1      43.595   4.803  10.441  0.00  0.00    +0.000 S 
BRANCH  12  13
ATOM     13  C   UNL     1      43.969   3.982  12.031  0.00  0.00    +0.000 C 
BRANCH  13  14
ATOM     14  C   UNL     1      45.182   4.578  12.705  0.00  0.00    +0.000 A 
ATOM     15  N   UNL     1      45.571   5.813  12.325  0.00  0.00    +0.000 NA
ATOM     16  C   UNL     1      46.651   6.324  12.943  0.00  0.00    +0.000 A 
ATOM     17  C   UNL     1      47.353   5.658  13.917  0.00  0.00    +0.000 A 
ATOM     18  C   UNL     1      46.880   4.409  14.237  0.00  0.00    +0.000 A 
ATOM     19  N   UNL     1      45.804   3.847  13.656  0.00  0.00    +0.000 NA
ENDBRANCH  13  14
ENDBRANCH  12  13
ENDBRANCH   4  12
TORSDOF 4
ENDMDL
MODEL 2
REMARK VINA RESULT:    -6.862      2.783      6.318
REMARK INTER + INTRA:          -8.839
REMARK INTER:                  -8.516
REMARK INTRA:                  -0.323
REMARK UNBOUND:                -0.372
REMARK  Name = 
REMARK  4 active torsions:
REMARK  status: ('A' for Active; 'I' for Inactive)
REMARK    1  A    between atoms: C_2  and  C_4
REMARK    2  A    between atoms: C_7  and  S_8
REMARK    3  A    between atoms: S_8  and  C_9
REMARK    4  A    between atoms: C_9  and  C_10
REMARK                            x       y       z     vdW  Elec       q    Type
REMARK                         _______ _______ _______ _____ _____    ______ ____
ROOT
ATOM      1  C   UNL     1      46.714   5.185  13.406  0.00  0.00    +0.000 A 
ATOM      2  C   UNL     1      46.561   6.154  12.416  0.00  0.00    +0.000 A 
ATOM      3  C   UNL     1      45.761   5.870  11.306  0.00  0.00    +0.000 A 
ATOM      4  C   UNL     1      45.122   4.635  11.227  0.00  0.00    +0.000 A 
ATOM      5  N   UNL     1      45.261   3.686  12.177  0.00  0.00    +0.000 NA
ATOM      6  C   UNL     1      46.063   3.972  13.235  0.00  0.00    +0.000 A 
ENDROOT
BRANCH   1   8
ATOM      7  N   UNL     1      47.161   4.751  15.757  0.00  0.00    +0.000 N 
ATOM      8  C   UNL     1      47.551   5.379  14.608  0.00  0.00    +0.000 C 
ATOM      9  O   UNL     1      48.578   6.045  14.568  0.00  0.00    +0.000 OA
ATOM     10  H   UNL     1      47.803   4.810  16.539  0.00  0.00    +0.000 HD
ATOM     11  H   UNL     1      46.480   4.007  15.770  0.00  0.00    +0.000 HD
ENDBRANCH   1   8
BRANCH   4  12
ATOM     12  S   UNL     1      44.127   4.263   9.801  0.00  0.00    +0.000 S 
BRANCH  12  13
ATOM     13  C   UNL     1      44.597   2.515   9.547  0.00  0.00    +0.000 C 
BRANCH  13  14
ATOM     14  C   UNL     1      45.577   2.351   8.410  0.00  0.00    +0.000 A 
ATOM     15  N   UNL     1      45.762   3.401   7.582  0.00  0.00    +0.000 NA
ATOM     16  C   UNL     1      46.643   3.231   6.579  0.00  0.00    +0.000 A 
ATOM     17  C   UNL     1      47.341   2.067   6.371  0.00  0.00    +0.000 A 
ATOM     18  C   UNL     1      47.085   1.057   7.266  0.00  0.00    +0.000 A 
ATOM     19  N   UNL     1      46.219   1.168   8.290  0.00  0.00    +0.000 NA
ENDBRANCH  13  14
ENDBRANCH  12  13
ENDBRANCH   4  12
TORSDOF 4
ENDMDL
MODEL 3
REMARK VINA RESULT:    -6.851      1.449      2.099
REMARK INTER + INTRA:          -8.825
REMARK INTER:                  -8.492
REMARK INTRA:                  -0.333
REMARK UNBOUND:                -0.372
REMARK  Name = 
REMARK  4 active torsions:
REMARK  status: ('A' for Active; 'I' for Inactive)
REMARK    1  A    between atoms: C_2  and  C_4
REMARK    2  A    between atoms: C_7  and  S_8
REMARK    3  A    between atoms: S_8  and  C_9
REMARK    4  A    between atoms: C_9  and  C_10
REMARK                            x       y       z     vdW  Elec       q    Type
REMARK                         _______ _______ _______ _____ _____    ______ ____
ROOT
ATOM      1  C   UNL     1      46.486   2.749   7.557  0.00  0.00    +0.000 A 
ATOM      2  C   UNL     1      45.822   1.865   8.405  0.00  0.00    +0.000 A 
ATOM      3  C   UNL     1      44.962   2.376   9.380  0.00  0.00    +0.000 A 
ATOM      4  C   UNL     1      44.775   3.753   9.467  0.00  0.00    +0.000 A 
ATOM      5  N   UNL     1      45.412   4.623   8.654  0.00  0.00    +0.000 NA
ATOM      6  C   UNL     1      46.263   4.107   7.730  0.00  0.00    +0.000 A 
ENDROOT
BRANCH   1   8
ATOM      7  N   UNL     1      47.380   2.960   5.305  0.00  0.00    +0.000 N 
ATOM      8  C   UNL     1      47.429   2.313   6.507  0.00  0.00    +0.000 C 
ATOM      9  O   UNL     1      48.251   1.429   6.716  0.00  0.00    +0.000 OA
ATOM     10  H   UNL     1      48.104   2.719   4.637  0.00  0.00    +0.000 HD
ATOM     11  H   UNL     1      46.905   3.841   5.177  0.00  0.00    +0.000 HD
ENDBRANCH   1   8
BRANCH   4  12
ATOM     12  S   UNL     1      43.702   4.405  10.727  0.00  0.00    +0.000 S 
BRANCH  12  13
ATOM     13  C   UNL     1      44.937   4.761  12.026  0.00  0.00    +0.000 C 
BRANCH  13  14
ATOM     14  C   UNL     1      45.207   6.240  12.162  0.00  0.00    +0.000 A 
ATOM     15  N   UNL     1      46.171   6.628  13.024  0.00  0.00    +0.000 NA
ATOM     16  C   UNL     1      46.396   7.951  13.125  0.00  0.00    +0.000 A 
ATOM     17  C   UNL     1      45.705   8.895  12.405  0.00  0.00    +0.000 A 
ATOM     18  C   UNL     1      44.746   8.403  11.553  0.00  0.00    +0.000 A 
ATOM     19  N   UNL     1      44.478   7.092  11.407  0.00  0.00    +0.000 NA
ENDBRANCH  13  14
ENDBRANCH  12  13
ENDBRANCH   4  12
TORSDOF 4
ENDMDL
MODEL 4
REMARK VINA RESULT:    -6.619      2.814      6.199
REMARK INTER + INTRA:          -8.539
REMARK INTER:                  -8.202
REMARK INTRA:                  -0.337
REMARK UNBOUND:                -0.372
REMARK  Name = 
REMARK  4 active torsions:
REMARK  status: ('A' for Active; 'I' for Inactive)
REMARK    1  A    between atoms: C_2  and  C_4
REMARK    2  A    between atoms: C_7  and  S_8
REMARK    3  A    between atoms: S_8  and  C_9
REMARK    4  A    between atoms: C_9  and  C_10
REMARK                            x       y       z     vdW  Elec       q    Type
REMARK                         _______ _______ _______ _____ _____    ______ ____
ROOT
ATOM      1  C   UNL     1      46.828   5.542  13.175  0.00  0.00    +0.000 A 
ATOM      2  C   UNL     1      46.453   4.244  13.519  0.00  0.00    +0.000 A 
ATOM      3  C   UNL     1      45.626   3.524  12.653  0.00  0.00    +0.000 A 
ATOM      4  C   UNL     1      45.213   4.114  11.461  0.00  0.00    +0.000 A 
ATOM      5  N   UNL     1      45.566   5.370  11.114  0.00  0.00    +0.000 NA
ATOM      6  C   UNL     1      46.350   6.061  11.981  0.00  0.00    +0.000 A 
ENDROOT
BRANCH   1   8
ATOM      7  N   UNL     1      47.447   7.737  14.018  0.00  0.00    +0.000 N 
ATOM      8  C   UNL     1      47.684   6.392  14.028  0.00  0.00    +0.000 C 
ATOM      9  O   UNL     1      48.548   5.907  14.747  0.00  0.00    +0.000 OA
ATOM     10  H   UNL     1      47.972   8.288  14.688  0.00  0.00    +0.000 HD
ATOM     11  H   UNL     1      46.601   8.141  13.645  0.00  0.00    +0.000 HD
ENDBRANCH   1   8
BRANCH   4  12
ATOM     12  S   UNL     1      44.137   3.208  10.372  0.00  0.00    +0.000 S 
BRANCH  12  13
ATOM     13  C   UNL     1      44.589   3.983   8.780  0.00  0.00    +0.000 C 
BRANCH  13  14
ATOM     14  C   UNL     1      45.586   3.153   8.008  0.00  0.00    +0.000 A 
ATOM     15  N   UNL     1      46.153   3.705   6.915  0.00  0.00    +0.000 NA
ATOM     16  C   UNL     1      47.041   2.947   6.246  0.00  0.00    +0.000 A 
ATOM     17  C   UNL     1      47.385   1.672   6.622  0.00  0.00    +0.000 A 
ATOM     18  C   UNL     1      46.757   1.198   7.748  0.00  0.00    +0.000 A 
ATOM     19  N   UNL     1      45.863   1.909   8.460  0.00  0.00    +0.000 NA
ENDBRANCH  13  14
ENDBRANCH  12  13
ENDBRANCH   4  12
TORSDOF 4
ENDMDL
MODEL 5
REMARK VINA RESULT:    -5.608      3.233      6.778
REMARK INTER + INTRA:          -7.292
REMARK INTER:                  -6.992
REMARK INTRA:                  -0.300
REMARK UNBOUND:                -0.372
REMARK  Name = 
REMARK  4 active torsions:
REMARK  status: ('A' for Active; 'I' for Inactive)
REMARK    1  A    between atoms: C_2  and  C_4
REMARK    2  A    between atoms: C_7  and  S_8
REMARK    3  A    between atoms: S_8  and  C_9
REMARK    4  A    between atoms: C_9  and  C_10
REMARK                            x       y       z     vdW  Elec       q    Type
REMARK                         _______ _______ _______ _____ _____    ______ ____
ROOT
ATOM      1  C   UNL     1      47.335   4.646  15.342  0.00  0.00    +0.000 A 
ATOM      2  C   UNL     1      47.971   5.837  14.994  0.00  0.00    +0.000 A 
ATOM      3  C   UNL     1      47.693   6.418  13.754  0.00  0.00    +0.000 A 
ATOM      4  C   UNL     1      46.774   5.804  12.907  0.00  0.00    +0.000 A 
ATOM      5  N   UNL     1      46.150   4.651  13.229  0.00  0.00    +0.000 NA
ATOM      6  C   UNL     1      46.454   4.089  14.428  0.00  0.00    +0.000 A 
ENDROOT
BRANCH   1   8
ATOM      7  N   UNL     1      48.810   4.065  17.186  0.00  0.00    +0.000 N 
ATOM      8  C   UNL     1      47.573   3.943  16.619  0.00  0.00    +0.000 C 
ATOM      9  O   UNL     1      46.684   3.307  17.171  0.00  0.00    +0.000 OA
ATOM     10  H   UNL     1      48.919   3.664  18.111  0.00  0.00    +0.000 HD
ATOM     11  H   UNL     1      49.475   4.768  16.903  0.00  0.00    +0.000 HD
ENDBRANCH   1   8
BRANCH   4  12
ATOM     12  S   UNL     1      46.441   6.529  11.316  0.00  0.00    +0.000 S 
BRANCH  12  13
ATOM     13  C   UNL     1      44.928   5.606  10.871  0.00  0.00    +0.000 C 
BRANCH  13  14
ATOM     14  C   UNL     1      45.197   4.547   9.829  0.00  0.00    +0.000 A 
ATOM     15  N   UNL     1      44.785   3.288  10.089  0.00  0.00    +0.000 NA
ATOM     16  C   UNL     1      45.032   2.362   9.144  0.00  0.00    +0.000 A 
ATOM     17  C   UNL     1      45.667   2.640   7.958  0.00  0.00    +0.000 A 
ATOM     18  C   UNL     1      46.047   3.949   7.784  0.00  0.00    +0.000 A 
ATOM     19  N   UNL     1      45.825   4.918   8.691  0.00  0.00    +0.000 NA
ENDBRANCH  13  14
ENDBRANCH  12  13
ENDBRANCH   4  12
TORSDOF 4
ENDMDL
MODEL 6
REMARK VINA RESULT:    -5.182      3.609      5.015
REMARK INTER + INTRA:          -6.766
REMARK INTER:                  -6.449
REMARK INTRA:                  -0.317
REMARK UNBOUND:                -0.372
REMARK  Name = 
REMARK  4 active torsions:
REMARK  status: ('A' for Active; 'I' for Inactive)
REMARK    1  A    between atoms: C_2  and  C_4
REMARK    2  A    between atoms: C_7  and  S_8
REMARK    3  A    between atoms: S_8  and  C_9
REMARK    4  A    between atoms: C_9  and  C_10
REMARK                            x       y       z     vdW  Elec       q    Type
REMARK                         _______ _______ _______ _____ _____    ______ ____
ROOT
ATOM      1  C   UNL     1      44.767   4.248  11.477  0.00  0.00    +0.000 A 
ATOM      2  C   UNL     1      45.272   5.215  10.610  0.00  0.00    +0.000 A 
ATOM      3  C   UNL     1      45.957   6.312  11.140  0.00  0.00    +0.000 A 
ATOM      4  C   UNL     1      46.134   6.400  12.518  0.00  0.00    +0.000 A 
ATOM      5  N   UNL     1      45.650   5.472  13.372  0.00  0.00    +0.000 NA
ATOM      6  C   UNL     1      44.965   4.428  12.838  0.00  0.00    +0.000 A 
ENDROOT
BRANCH   1   8
ATOM      7  N   UNL     1      43.469   2.252  11.975  0.00  0.00    +0.000 N 
ATOM      8  C   UNL     1      44.014   3.062  11.019  0.00  0.00    +0.000 C 
ATOM      9  O   UNL     1      43.850   2.833   9.827  0.00  0.00    +0.000 OA
ATOM     10  H   UNL     1      42.869   1.507  11.641  0.00  0.00    +0.000 HD
ATOM     11  H   UNL     1      43.365   2.535  12.938  0.00  0.00    +0.000 HD
ENDBRANCH   1   8
BRANCH   4  12
ATOM     12  S   UNL     1      46.981   7.810  13.196  0.00  0.00    +0.000 S 
BRANCH  12  13
ATOM     13  C   UNL     1      48.569   7.026  13.646  0.00  0.00    +0.000 C 
BRANCH  13  14
ATOM     14  C   UNL     1      48.630   6.671  15.112  0.00  0.00    +0.000 A 
ATOM     15  N   UNL     1      48.362   5.395  15.463  0.00  0.00    +0.000 NA
ATOM     16  C   UNL     1      48.427   5.102  16.775  0.00  0.00    +0.000 A 
ATOM     17  C   UNL     1      48.747   6.023  17.743  0.00  0.00    +0.000 A 
ATOM     18  C   UNL     1      49.004   7.293  17.288  0.00  0.00    +0.000 A 
ATOM     19  N   UNL     1      48.958   7.645  15.990  0.00  0.00    +0.000 NA
ENDBRANCH  13  14
ENDBRANCH  12  13
ENDBRANCH   4  12
TORSDOF 4
ENDMDL
MODEL 7
REMARK VINA RESULT:    -5.082      3.204      6.565
REMARK INTER + INTRA:          -6.642
REMARK INTER:                  -6.320
REMARK INTRA:                  -0.322
REMARK UNBOUND:                -0.372
REMARK  Name = 
REMARK  4 active torsions:
REMARK  status: ('A' for Active; 'I' for Inactive)
REMARK    1  A    between atoms: C_2  and  C_4
REMARK    2  A    between atoms: C_7  and  S_8
REMARK    3  A    between atoms: S_8  and  C_9
REMARK    4  A    between atoms: C_9  and  C_10
REMARK                            x       y       z     vdW  Elec       q    Type
REMARK                         _______ _______ _______ _____ _____    ______ ____
ROOT
ATOM      1  C   UNL     1      47.764   6.986  14.157  0.00  0.00    +0.000 A 
ATOM      2  C   UNL     1      47.165   8.131  13.634  0.00  0.00    +0.000 A 
ATOM      3  C   UNL     1      46.066   7.994  12.782  0.00  0.00    +0.000 A 
ATOM      4  C   UNL     1      45.586   6.720  12.492  0.00  0.00    +0.000 A 
ATOM      5  N   UNL     1      46.155   5.601  12.989  0.00  0.00    +0.000 NA
ATOM      6  C   UNL     1      47.237   5.755  13.795  0.00  0.00    +0.000 A 
ENDROOT
BRANCH   1   8
ATOM      7  N   UNL     1      48.707   7.090  16.396  0.00  0.00    +0.000 N 
ATOM      8  C   UNL     1      48.939   7.021  15.051  0.00  0.00    +0.000 C 
ATOM      9  O   UNL     1      50.079   6.951  14.608  0.00  0.00    +0.000 OA
ATOM     10  H   UNL     1      49.521   7.006  16.994  0.00  0.00    +0.000 HD
ATOM     11  H   UNL     1      47.807   6.897  16.807  0.00  0.00    +0.000 HD
ENDBRANCH   1   8
BRANCH   4  12
ATOM     12  S   UNL     1      44.205   6.545  11.384  0.00  0.00    +0.000 S 
BRANCH  12  13
ATOM     13  C   UNL     1      43.946   4.739  11.502  0.00  0.00    +0.000 C 
BRANCH  13  14
ATOM     14  C   UNL     1      44.499   4.008  10.302  0.00  0.00    +0.000 A 
ATOM     15  N   UNL     1      45.219   4.719   9.408  0.00  0.00    +0.000 NA
ATOM     16  C   UNL     1      45.704   4.044   8.350  0.00  0.00    +0.000 A 
ATOM     17  C   UNL     1      45.504   2.701   8.149  0.00  0.00    +0.000 A 
ATOM     18  C   UNL     1      44.761   2.064   9.114  0.00  0.00    +0.000 A 
ATOM     19  N   UNL     1      44.252   2.684  10.195  0.00  0.00    +0.000 NA
ENDBRANCH  13  14
ENDBRANCH  12  13
ENDBRANCH   4  12
TORSDOF 4
ENDMDL
MODEL 8
REMARK VINA RESULT:    -4.651      4.351      7.955
REMARK INTER + INTRA:          -6.111
REMARK INTER:                  -5.881
REMARK INTRA:                  -0.230
REMARK UNBOUND:                -0.372
REMARK  Name = 
REMARK  4 active torsions:
REMARK  status: ('A' for Active; 'I' for Inactive)
REMARK    1  A    between atoms: C_2  and  C_4
REMARK    2  A    between atoms: C_7  and  S_8
REMARK    3  A    between atoms: S_8  and  C_9
REMARK    4  A    between atoms: C_9  and  C_10
REMARK                            x       y       z     vdW  Elec       q    Type
REMARK                         _______ _______ _______ _____ _____    ______ ____
ROOT
ATOM      1  C   UNL     1      48.695   5.097  17.305  0.00  0.00    +0.000 A 
ATOM      2  C   UNL     1      49.044   6.314  16.724  0.00  0.00    +0.000 A 
ATOM      3  C   UNL     1      48.612   6.596  15.425  0.00  0.00    +0.000 A 
ATOM      4  C   UNL     1      47.829   5.662  14.753  0.00  0.00    +0.000 A 
ATOM      5  N   UNL     1      47.484   4.477  15.301  0.00  0.00    +0.000 NA
ATOM      6  C   UNL     1      47.935   4.213  16.554  0.00  0.00    +0.000 A 
ENDROOT
BRANCH   1   8
ATOM      7  N   UNL     1      48.149   4.621  19.627  0.00  0.00    +0.000 N 
ATOM      8  C   UNL     1      49.115   4.696  18.664  0.00  0.00    +0.000 C 
ATOM      9  O   UNL     1      50.279   4.404  18.910  0.00  0.00    +0.000 OA
ATOM     10  H   UNL     1      48.439   4.243  20.522  0.00  0.00    +0.000 HD
ATOM     11  H   UNL     1      47.163   4.606  19.414  0.00  0.00    +0.000 HD
ENDBRANCH   1   8
BRANCH   4  12
ATOM     12  S   UNL     1      47.303   6.008  13.088  0.00  0.00    +0.000 S 
BRANCH  12  13
ATOM     13  C   UNL     1      45.678   5.173  13.102  0.00  0.00    +0.000 C 
BRANCH  13  14
ATOM     14  C   UNL     1      45.304   4.639  11.740  0.00  0.00    +0.000 A 
ATOM     15  N   UNL     1      44.603   3.487  11.685  0.00  0.00    +0.000 NA
ATOM     16  C   UNL     1      44.278   3.033  10.461  0.00  0.00    +0.000 A 
ATOM     17  C   UNL     1      44.620   3.678   9.298  0.00  0.00    +0.000 A 
ATOM     18  C   UNL     1      45.331   4.843   9.455  0.00  0.00    +0.000 A 
ATOM     19  N   UNL     1      45.682   5.348  10.653  0.00  0.00    +0.000 NA
ENDBRANCH  13  14
ENDBRANCH  12  13
ENDBRANCH   4  12
TORSDOF 4
ENDMDL
MODEL 9
REMARK VINA RESULT:    -4.540      4.677      6.928
REMARK INTER + INTRA:          -5.974
REMARK INTER:                  -5.651
REMARK INTRA:                  -0.323
REMARK UNBOUND:                -0.372
REMARK  Name = 
REMARK  4 active torsions:
REMARK  status: ('A' for Active; 'I' for Inactive)
REMARK    1  A    between atoms: C_2  and  C_4
REMARK    2  A    between atoms: C_7  and  S_8
REMARK    3  A    between atoms: S_8  and  C_9
REMARK    4  A    between atoms: C_9  and  C_10
REMARK                            x       y       z     vdW  Elec       q    Type
REMARK                         _______ _______ _______ _____ _____    ______ ____
ROOT
ATOM      1  C   UNL     1      46.360   4.930  13.173  0.00  0.00    +0.000 A 
ATOM      2  C   UNL     1      46.807   6.200  12.811  0.00  0.00    +0.000 A 
ATOM      3  C   UNL     1      47.737   6.851  13.626  0.00  0.00    +0.000 A 
ATOM      4  C   UNL     1      48.207   6.207  14.768  0.00  0.00    +0.000 A 
ATOM      5  N   UNL     1      47.783   4.979  15.133  0.00  0.00    +0.000 NA
ATOM      6  C   UNL     1      46.860   4.374  14.340  0.00  0.00    +0.000 A 
ENDROOT
BRANCH   1   8
ATOM      7  N   UNL     1      45.346   2.810  12.550  0.00  0.00    +0.000 N 
ATOM      8  C   UNL     1      45.367   4.166  12.390  0.00  0.00    +0.000 C 
ATOM      9  O   UNL     1      44.566   4.730  11.654  0.00  0.00    +0.000 OA
ATOM     10  H   UNL     1      44.590   2.317  12.087  0.00  0.00    +0.000 HD
ATOM     11  H   UNL     1      45.805   2.342  13.317  0.00  0.00    +0.000 HD
ENDBRANCH   1   8
BRANCH   4  12
ATOM     12  S   UNL     1      49.368   7.048  15.821  0.00  0.00    +0.000 S 
BRANCH  12  13
ATOM     13  C   UNL     1      49.779   5.687  16.970  0.00  0.00    +0.000 C 
BRANCH  13  14
ATOM     14  C   UNL     1      49.044   5.812  18.282  0.00  0.00    +0.000 A 
ATOM     15  N   UNL     1      49.253   4.858  19.215  0.00  0.00    +0.000 NA
ATOM     16  C   UNL     1      48.589   4.994  20.378  0.00  0.00    +0.000 A 
ATOM     17  C   UNL     1      47.733   6.033  20.646  0.00  0.00    +0.000 A 
ATOM     18  C   UNL     1      47.587   6.954  19.637  0.00  0.00    +0.000 A 
ATOM     19  N   UNL     1      48.225   6.874  18.455  0.00  0.00    +0.000 NA
ENDBRANCH  13  14
ENDBRANCH  12  13
ENDBRANCH   4  12
TORSDOF 4
ENDMDL
