MODEL 1
REMARK VINA RESULT:    -8.030      0.000      0.000
REMARK INTER + INTRA:         -10.406
REMARK INTER:                  -9.908
REMARK INTRA:                  -0.498
REMARK UNBOUND:                -0.498
REMARK  Name = 
REMARK  4 active torsions:
REMARK  status: ('A' for Active; 'I' for Inactive)
REMARK    1  A    between atoms: C_2  and  C_4
REMARK    2  A    between atoms: C_7  and  O_8
REMARK    3  A    between atoms: O_8  and  C_9
REMARK    4  A    between atoms: C_9  and  C_10
REMARK                            x       y       z     vdW  Elec       q    Type
REMARK                         _______ _______ _______ _____ _____    ______ ____
ROOT
ATOM      1  C   UNL     1      46.419   2.794   7.537  0.00  0.00    +0.000 A 
ATOM      2  C   UNL     1      45.985   1.784   8.385  0.00  0.00    +0.000 A 
ATOM      3  C   UNL     1      45.108   2.126   9.411  0.00  0.00    +0.000 A 
ATOM      4  C   UNL     1      44.683   3.446   9.550  0.00  0.00    +0.000 A 
ATOM      5  C   UNL     1      45.176   4.391   8.662  0.00  0.00    +0.000 A 
ATOM      6  N   UNL     1      46.035   4.100   7.649  0.00  0.00    +0.000 NA
ENDROOT
BRANCH   1   8
ATOM      7  N   UNL     1      47.267   3.238   5.312  0.00  0.00    +0.000 N 
ATOM      8  C   UNL     1      47.381   2.467   6.437  0.00  0.00    +0.000 C 
ATOM      9  O   UNL     1      48.230   1.589   6.536  0.00  0.00    +0.000 OA
ATOM     10  H   UNL     1      47.908   3.097   4.544  0.00  0.00    +0.000 HD
ATOM     11  H   UNL     1      46.576   3.978   5.281  0.00  0.00    +0.000 HD
ENDBRANCH   1   8
BRANCH   4  12
ATOM     12  O   UNL     1      43.844   3.687  10.603  0.00  0.00    +0.000 OA
BRANCH  12  13
ATOM     13  C   UNL     1      43.934   4.947  11.313  0.00  0.00    +0.000 C 
ATOM     14  C   UNL     1      42.702   5.132  12.200  0.00  0.00    +0.000 C 
ATOM     15  C   UNL     1      42.931   6.059  11.057  0.00  0.00    +0.000 C 
BRANCH  13  16
ATOM     16  C   UNL     1      45.284   5.280  11.932  0.00  0.00    +0.000 A 
ATOM     17  C   UNL     1      46.038   6.398  11.526  0.00  0.00    +0.000 A 
ATOM     18  C   UNL     1      47.244   6.734  12.148  0.00  0.00    +0.000 A 
ATOM     19  C   UNL     1      47.726   5.939  13.178  0.00  0.00    +0.000 A 
ATOM     20  F   UNL     1      48.872   6.268  13.786  0.00  0.00    +0.000 F 
ATOM     21  C   UNL     1      47.031   4.811  13.587  0.00  0.00    +0.000 A 
ATOM     22  C   UNL     1      45.820   4.485  12.965  0.00  0.00    +0.000 A 
ENDBRANCH  13  16
ENDBRANCH  12  13
ENDBRANCH   4  12
TORSDOF 4
ENDMDL
MODEL 2
REMARK VINA RESULT:    -7.010      3.947      6.470
REMARK INTER + INTRA:          -9.147
REMARK INTER:                  -8.862
REMARK INTRA:                  -0.285
REMARK UNBOUND:                -0.498
REMARK  Name = 
REMARK  4 active torsions:
REMARK  status: ('A' for Active; 'I' for Inactive)
REMARK    1  A    between atoms: C_2  and  C_4
REMARK    2  A    between atoms: C_7  and  O_8
REMARK    3  A    between atoms: O_8  and  C_9
REMARK    4  A    between atoms: C_9  and  C_10
REMARK                            x       y       z     vdW  Elec       q    Type
REMARK                         _______ _______ _______ _____ _____    ______ ____
ROOT
ATOM      1  C   UNL     1      47.280   4.237  15.025  0.00  0.00    +0.000 A 
ATOM      2  C   UNL     1      47.110   5.576  14.703  0.00  0.00    +0.000 A 
ATOM      3  C   UNL     1      46.528   5.882  13.476  0.00  0.00    +0.000 A 
ATOM      4  C   UNL     1      46.124   4.856  12.624  0.00  0.00    +0.000 A 
ATOM      5  C   UNL     1      46.341   3.546  13.025  0.00  0.00    +0.000 A 
ATOM      6  N   UNL     1      46.908   3.203  14.212  0.00  0.00    +0.000 NA
ENDROOT
BRANCH   1   8
ATOM      7  N   UNL     1      47.156   3.111  17.167  0.00  0.00    +0.000 N 
ATOM      8  C   UNL     1      47.924   3.870  16.327  0.00  0.00    +0.000 C 
ATOM      9  O   UNL     1      49.068   4.201  16.619  0.00  0.00    +0.000 OA
ATOM     10  H   UNL     1      47.540   2.796  18.047  0.00  0.00    +0.000 HD
ATOM     11  H   UNL     1      46.228   2.828  16.876  0.00  0.00    +0.000 HD
ENDBRANCH   1   8
BRANCH   4  12
ATOM     12  O   UNL     1      45.588   5.257  11.431  0.00  0.00    +0.000 OA
BRANCH  12  13
ATOM     13  C   UNL     1      44.661   4.386  10.736  0.00  0.00    +0.000 C 
ATOM     14  C   UNL     1      43.302   5.076  10.603  0.00  0.00    +0.000 C 
ATOM     15  C   UNL     1      43.425   3.847  11.437  0.00  0.00    +0.000 C 
BRANCH  13  16
ATOM     16  C   UNL     1      45.197   3.676   9.502  0.00  0.00    +0.000 A 
ATOM     17  C   UNL     1      45.739   4.379   8.409  0.00  0.00    +0.000 A 
ATOM     18  C   UNL     1      46.291   3.715   7.311  0.00  0.00    +0.000 A 
ATOM     19  C   UNL     1      46.291   2.328   7.281  0.00  0.00    +0.000 A 
ATOM     20  F   UNL     1      46.835   1.690   6.237  0.00  0.00    +0.000 F 
ATOM     21  C   UNL     1      45.740   1.597   8.321  0.00  0.00    +0.000 A 
ATOM     22  C   UNL     1      45.195   2.268   9.422  0.00  0.00    +0.000 A 
ENDBRANCH  13  16
ENDBRANCH  12  13
ENDBRANCH   4  12
TORSDOF 4
ENDMDL
MODEL 3
REMARK VINA RESULT:    -6.688      3.961      6.381
REMARK INTER + INTRA:          -8.750
REMARK INTER:                  -8.371
REMARK INTRA:                  -0.379
REMARK UNBOUND:                -0.498
REMARK  Name = 
REMARK  4 active torsions:
REMARK  status: ('A' for Active; 'I' for Inactive)
REMARK    1  A    between atoms: C_2  and  C_4
REMARK    2  A    between atoms: C_7  and  O_8
REMARK    3  A    between atoms: O_8  and  C_9
REMARK    4  A    between atoms: C_9  and  C_10
REMARK                            x       y       z     vdW  Elec       q    Type
REMARK                         _______ _______ _______ _____ _____    ______ ____
ROOT
ATOM      1  C   UNL     1      47.222   8.049  13.271  0.00  0.00    +0.000 A 
ATOM      2  C   UNL     1      47.689   7.030  12.453  0.00  0.00    +0.000 A 
ATOM      3  C   UNL     1      46.787   6.433  11.575  0.00  0.00    +0.000 A 
ATOM      4  C   UNL     1      45.467   6.877  11.529  0.00  0.00    +0.000 A 
ATOM      5  C   UNL     1      45.087   7.896  12.390  0.00  0.00    +0.000 A 
ATOM      6  N   UNL     1      45.934   8.503  13.264  0.00  0.00    +0.000 NA
ENDROOT
BRANCH   1   8
ATOM      7  N   UNL     1      47.589   9.111  15.417  0.00  0.00    +0.000 N 
ATOM      8  C   UNL     1      48.158   8.698  14.244  0.00  0.00    +0.000 C 
ATOM      9  O   UNL     1      49.357   8.832  14.024  0.00  0.00    +0.000 OA
ATOM     10  H   UNL     1      48.168   9.524  16.135  0.00  0.00    +0.000 HD
ATOM     11  H   UNL     1      46.602   8.950  15.577  0.00  0.00    +0.000 HD
ENDBRANCH   1   8
BRANCH   4  12
ATOM     12  O   UNL     1      44.652   6.212  10.655  0.00  0.00    +0.000 OA
BRANCH  12  13
ATOM     13  C   UNL     1      44.478   4.780  10.790  0.00  0.00    +0.000 C 
ATOM     14  C   UNL     1      43.051   4.472  11.246  0.00  0.00    +0.000 C 
ATOM     15  C   UNL     1      44.196   4.154  12.145  0.00  0.00    +0.000 C 
BRANCH  13  16
ATOM     16  C   UNL     1      45.043   3.921   9.668  0.00  0.00    +0.000 A 
ATOM     17  C   UNL     1      45.645   4.483   8.525  0.00  0.00    +0.000 A 
ATOM     18  C   UNL     1      46.222   3.686   7.533  0.00  0.00    +0.000 A 
ATOM     19  C   UNL     1      46.188   2.305   7.661  0.00  0.00    +0.000 A 
ATOM     20  F   UNL     1      46.755   1.540   6.720  0.00  0.00    +0.000 F 
ATOM     21  C   UNL     1      45.578   1.709   8.754  0.00  0.00    +0.000 A 
ATOM     22  C   UNL     1      45.008   2.514   9.748  0.00  0.00    +0.000 A 
ENDBRANCH  13  16
ENDBRANCH  12  13
ENDBRANCH   4  12
TORSDOF 4
ENDMDL
MODEL 4
REMARK VINA RESULT:    -5.850      3.681      6.341
REMARK INTER + INTRA:          -7.715
REMARK INTER:                  -7.327
REMARK INTRA:                  -0.388
REMARK UNBOUND:                -0.498
REMARK  Name = 
REMARK  4 active torsions:
REMARK  status: ('A' for Active; 'I' for Inactive)
REMARK    1  A    between atoms: C_2  and  C_4
REMARK    2  A    between atoms: C_7  and  O_8
REMARK    3  A    between atoms: O_8  and  C_9
REMARK    4  A    between atoms: C_9  and  C_10
REMARK                            x       y       z     vdW  Elec       q    Type
REMARK                         _______ _______ _______ _____ _____    ______ ____
ROOT
ATOM      1  C   UNL     1      45.845   7.186  12.263  0.00  0.00    +0.000 A 
ATOM      2  C   UNL     1      46.607   6.759  11.185  0.00  0.00    +0.000 A 
ATOM      3  C   UNL     1      46.038   5.840  10.307  0.00  0.00    +0.000 A 
ATOM      4  C   UNL     1      44.735   5.392  10.520  0.00  0.00    +0.000 A 
ATOM      5  C   UNL     1      44.051   5.868  11.628  0.00  0.00    +0.000 A 
ATOM      6  N   UNL     1      44.570   6.763  12.511  0.00  0.00    +0.000 NA
ENDROOT
BRANCH   1   8
ATOM      7  N   UNL     1      47.318   7.622  14.135  0.00  0.00    +0.000 N 
ATOM      8  C   UNL     1      46.433   8.156  13.240  0.00  0.00    +0.000 C 
ATOM      9  O   UNL     1      46.164   9.353  13.233  0.00  0.00    +0.000 OA
ATOM     10  H   UNL     1      47.782   8.225  14.801  0.00  0.00    +0.000 HD
ATOM     11  H   UNL     1      47.542   6.635  14.088  0.00  0.00    +0.000 HD
ENDBRANCH   1   8
BRANCH   4  12
ATOM     12  O   UNL     1      44.274   4.472   9.619  0.00  0.00    +0.000 OA
BRANCH  12  13
ATOM     13  C   UNL     1      44.859   3.146   9.590  0.00  0.00    +0.000 C 
ATOM     14  C   UNL     1      43.829   2.115  10.052  0.00  0.00    +0.000 C 
ATOM     15  C   UNL     1      45.051   2.352  10.871  0.00  0.00    +0.000 C 
BRANCH  13  16
ATOM     16  C   UNL     1      45.680   2.796   8.358  0.00  0.00    +0.000 A 
ATOM     17  C   UNL     1      45.897   3.719   7.316  0.00  0.00    +0.000 A 
ATOM     18  C   UNL     1      46.709   3.411   6.221  0.00  0.00    +0.000 A 
ATOM     19  C   UNL     1      47.304   2.160   6.143  0.00  0.00    +0.000 A 
ATOM     20  F   UNL     1      48.096   1.869   5.103  0.00  0.00    +0.000 F 
ATOM     21  C   UNL     1      47.092   1.211   7.131  0.00  0.00    +0.000 A 
ATOM     22  C   UNL     1      46.283   1.529   8.228  0.00  0.00    +0.000 A 
ENDBRANCH  13  16
ENDBRANCH  12  13
ENDBRANCH   4  12
TORSDOF 4
ENDMDL
MODEL 5
REMARK VINA RESULT:    -5.576      3.312      5.144
REMARK INTER + INTRA:          -7.377
REMARK INTER:                  -6.960
REMARK INTRA:                  -0.417
REMARK UNBOUND:                -0.498
REMARK  Name = 
REMARK  4 active torsions:
REMARK  status: ('A' for Active; 'I' for Inactive)
REMARK    1  A    between atoms: C_2  and  C_4
REMARK    2  A    between atoms: C_7  and  O_8
REMARK    3  A    between atoms: O_8  and  C_9
REMARK    4  A    between atoms: C_9  and  C_10
REMARK                            x       y       z     vdW  Elec       q    Type
REMARK                         _______ _______ _______ _____ _____    ______ ____
ROOT
ATOM      1  C   UNL     1      44.624   4.157  11.524  0.00  0.00    +0.000 A 
ATOM      2  C   UNL     1      44.888   5.139  10.580  0.00  0.00    +0.000 A 
ATOM      3  C   UNL     1      45.474   6.325  11.018  0.00  0.00    +0.000 A 
ATOM      4  C   UNL     1      45.788   6.486  12.366  0.00  0.00    +0.000 A 
ATOM      5  C   UNL     1      45.480   5.454  13.240  0.00  0.00    +0.000 A 
ATOM      6  N   UNL     1      44.906   4.283  12.855  0.00  0.00    +0.000 NA
ENDROOT
BRANCH   1   8
ATOM      7  N   UNL     1      44.564   2.250  10.031  0.00  0.00    +0.000 N 
ATOM      8  C   UNL     1      43.973   2.879  11.093  0.00  0.00    +0.000 C 
ATOM      9  O   UNL     1      42.993   2.408  11.660  0.00  0.00    +0.000 OA
ATOM     10  H   UNL     1      44.200   1.364   9.710  0.00  0.00    +0.000 HD
ATOM     11  H   UNL     1      45.394   2.653   9.612  0.00  0.00    +0.000 HD
ENDBRANCH   1   8
BRANCH   4  12
ATOM     12  O   UNL     1      46.335   7.694  12.703  0.00  0.00    +0.000 OA
BRANCH  12  13
ATOM     13  C   UNL     1      47.760   7.788  12.949  0.00  0.00    +0.000 C 
ATOM     14  C   UNL     1      48.381   8.828  12.016  0.00  0.00    +0.000 C 
ATOM     15  C   UNL     1      48.764   7.395  11.878  0.00  0.00    +0.000 C 
BRANCH  13  16
ATOM     16  C   UNL     1      48.193   7.825  14.408  0.00  0.00    +0.000 A 
ATOM     17  C   UNL     1      48.106   8.997  15.185  0.00  0.00    +0.000 A 
ATOM     18  C   UNL     1      48.441   9.003  16.542  0.00  0.00    +0.000 A 
ATOM     19  C   UNL     1      48.889   7.834  17.140  0.00  0.00    +0.000 A 
ATOM     20  F   UNL     1      49.195   7.835  18.444  0.00  0.00    +0.000 F 
ATOM     21  C   UNL     1      49.020   6.666  16.405  0.00  0.00    +0.000 A 
ATOM     22  C   UNL     1      48.675   6.665  15.048  0.00  0.00    +0.000 A 
ENDBRANCH  13  16
ENDBRANCH  12  13
ENDBRANCH   4  12
TORSDOF 4
ENDMDL
MODEL 6
REMARK VINA RESULT:    -5.564      4.497      7.001
REMARK INTER + INTRA:          -7.363
REMARK INTER:                  -6.974
REMARK INTRA:                  -0.389
REMARK UNBOUND:                -0.498
REMARK  Name = 
REMARK  4 active torsions:
REMARK  status: ('A' for Active; 'I' for Inactive)
REMARK    1  A    between atoms: C_2  and  C_4
REMARK    2  A    between atoms: C_7  and  O_8
REMARK    3  A    between atoms: O_8  and  C_9
REMARK    4  A    between atoms: C_9  and  C_10
REMARK                            x       y       z     vdW  Elec       q    Type
REMARK                         _______ _______ _______ _____ _____    ______ ____
ROOT
ATOM      1  C   UNL     1      48.662   6.258  15.585  0.00  0.00    +0.000 A 
ATOM      2  C   UNL     1      48.839   7.417  14.841  0.00  0.00    +0.000 A 
ATOM      3  C   UNL     1      48.237   7.485  13.587  0.00  0.00    +0.000 A 
ATOM      4  C   UNL     1      47.474   6.416  13.124  0.00  0.00    +0.000 A 
ATOM      5  C   UNL     1      47.358   5.294  13.932  0.00  0.00    +0.000 A 
ATOM      6  N   UNL     1      47.931   5.185  15.161  0.00  0.00    +0.000 NA
ENDROOT
BRANCH   1   8
ATOM      7  N   UNL     1      48.469   5.853  17.965  0.00  0.00    +0.000 N 
ATOM      8  C   UNL     1      49.313   6.140  16.928  0.00  0.00    +0.000 C 
ATOM      9  O   UNL     1      50.522   6.266  17.094  0.00  0.00    +0.000 OA
ATOM     10  H   UNL     1      48.844   5.723  18.894  0.00  0.00    +0.000 HD
ATOM     11  H   UNL     1      47.481   5.721  17.783  0.00  0.00    +0.000 HD
ENDBRANCH   1   8
BRANCH   4  12
ATOM     12  O   UNL     1      46.946   6.567  11.872  0.00  0.00    +0.000 OA
BRANCH  12  13
ATOM     13  C   UNL     1      45.532   6.329  11.659  0.00  0.00    +0.000 C 
ATOM     14  C   UNL     1      44.823   7.652  11.364  0.00  0.00    +0.000 C 
ATOM     15  C   UNL     1      44.495   6.903  12.609  0.00  0.00    +0.000 C 
BRANCH  13  16
ATOM     16  C   UNL     1      45.171   5.142  10.778  0.00  0.00    +0.000 A 
ATOM     17  C   UNL     1      45.554   5.069   9.425  0.00  0.00    +0.000 A 
ATOM     18  C   UNL     1      45.277   3.945   8.644  0.00  0.00    +0.000 A 
ATOM     19  C   UNL     1      44.590   2.877   9.203  0.00  0.00    +0.000 A 
ATOM     20  F   UNL     1      44.339   1.791   8.461  0.00  0.00    +0.000 F 
ATOM     21  C   UNL     1      44.167   2.920  10.523  0.00  0.00    +0.000 A 
ATOM     22  C   UNL     1      44.454   4.047  11.301  0.00  0.00    +0.000 A 
ENDBRANCH  13  16
ENDBRANCH  12  13
ENDBRANCH   4  12
TORSDOF 4
ENDMDL
MODEL 7
REMARK VINA RESULT:    -5.533      2.583      4.217
REMARK INTER + INTRA:          -7.325
REMARK INTER:                  -7.370
REMARK INTRA:                   0.045
REMARK UNBOUND:                -0.498
REMARK  Name = 
REMARK  4 active torsions:
REMARK  status: ('A' for Active; 'I' for Inactive)
REMARK    1  A    between atoms: C_2  and  C_4
REMARK    2  A    between atoms: C_7  and  O_8
REMARK    3  A    between atoms: O_8  and  C_9
REMARK    4  A    between atoms: C_9  and  C_10
REMARK                            x       y       z     vdW  Elec       q    Type
REMARK                         _______ _______ _______ _____ _____    ______ ____
ROOT
ATOM      1  C   UNL     1      44.936   3.784  10.170  0.00  0.00    +0.000 A 
ATOM      2  C   UNL     1      44.898   3.288  11.466  0.00  0.00    +0.000 A 
ATOM      3  C   UNL     1      45.249   4.149  12.504  0.00  0.00    +0.000 A 
ATOM      4  C   UNL     1      45.609   5.465  12.222  0.00  0.00    +0.000 A 
ATOM      5  C   UNL     1      45.627   5.871  10.895  0.00  0.00    +0.000 A 
ATOM      6  N   UNL     1      45.295   5.063   9.853  0.00  0.00    +0.000 NA
ENDROOT
BRANCH   1   8
ATOM      7  N   UNL     1      44.308   3.511   7.847  0.00  0.00    +0.000 N 
ATOM      8  C   UNL     1      44.588   2.880   9.028  0.00  0.00    +0.000 C 
ATOM      9  O   UNL     1      44.574   1.658   9.127  0.00  0.00    +0.000 OA
ATOM     10  H   UNL     1      44.100   2.963   7.024  0.00  0.00    +0.000 HD
ATOM     11  H   UNL     1      44.364   4.521   7.795  0.00  0.00    +0.000 HD
ENDBRANCH   1   8
BRANCH   4  12
ATOM     12  O   UNL     1      45.962   6.224  13.303  0.00  0.00    +0.000 OA
BRANCH  12  13
ATOM     13  C   UNL     1      47.358   6.325  13.679  0.00  0.00    +0.000 C 
ATOM     14  C   UNL     1      47.843   7.763  13.490  0.00  0.00    +0.000 C 
ATOM     15  C   UNL     1      48.418   6.676  12.649  0.00  0.00    +0.000 C 
BRANCH  13  16
ATOM     16  C   UNL     1      47.764   5.624  14.967  0.00  0.00    +0.000 A 
ATOM     17  C   UNL     1      48.698   6.184  15.862  0.00  0.00    +0.000 A 
ATOM     18  C   UNL     1      49.012   5.565  17.075  0.00  0.00    +0.000 A 
ATOM     19  C   UNL     1      48.408   4.361  17.404  0.00  0.00    +0.000 A 
ATOM     20  F   UNL     1      48.695   3.775  18.573  0.00  0.00    +0.000 F 
ATOM     21  C   UNL     1      47.507   3.760  16.539  0.00  0.00    +0.000 A 
ATOM     22  C   UNL     1      47.191   4.388  15.328  0.00  0.00    +0.000 A 
ENDBRANCH  13  16
ENDBRANCH  12  13
ENDBRANCH   4  12
TORSDOF 4
ENDMDL
MODEL 8
REMARK VINA RESULT:    -5.336      4.496      6.882
REMARK INTER + INTRA:          -7.082
REMARK INTER:                  -6.978
REMARK INTRA:                  -0.104
REMARK UNBOUND:                -0.498
REMARK  Name = 
REMARK  4 active torsions:
REMARK  status: ('A' for Active; 'I' for Inactive)
REMARK    1  A    between atoms: C_2  and  C_4
REMARK    2  A    between atoms: C_7  and  O_8
REMARK    3  A    between atoms: O_8  and  C_9
REMARK    4  A    between atoms: C_9  and  C_10
REMARK                            x       y       z     vdW  Elec       q    Type
REMARK                         _______ _______ _______ _____ _____    ______ ____
ROOT
ATOM      1  C   UNL     1      49.871   7.446  14.148  0.00  0.00    +0.000 A 
ATOM      2  C   UNL     1      49.873   8.307  13.059  0.00  0.00    +0.000 A 
ATOM      3  C   UNL     1      48.898   8.124  12.081  0.00  0.00    +0.000 A 
ATOM      4  C   UNL     1      47.953   7.110  12.224  0.00  0.00    +0.000 A 
ATOM      5  C   UNL     1      48.033   6.292  13.341  0.00  0.00    +0.000 A 
ATOM      6  N   UNL     1      48.969   6.434  14.317  0.00  0.00    +0.000 NA
ENDROOT
BRANCH   1   8
ATOM      7  N   UNL     1      51.475   8.844  15.306  0.00  0.00    +0.000 N 
ATOM      8  C   UNL     1      50.918   7.598  15.207  0.00  0.00    +0.000 C 
ATOM      9  O   UNL     1      51.245   6.683  15.955  0.00  0.00    +0.000 OA
ATOM     10  H   UNL     1      52.162   9.029  16.023  0.00  0.00    +0.000 HD
ATOM     11  H   UNL     1      51.154   9.584  14.694  0.00  0.00    +0.000 HD
ENDBRANCH   1   8
BRANCH   4  12
ATOM     12  O   UNL     1      47.055   6.994  11.200  0.00  0.00    +0.000 OA
BRANCH  12  13
ATOM     13  C   UNL     1      45.735   6.457  11.466  0.00  0.00    +0.000 C 
ATOM     14  C   UNL     1      44.698   7.581  11.412  0.00  0.00    +0.000 C 
ATOM     15  C   UNL     1      44.957   6.879  12.701  0.00  0.00    +0.000 C 
BRANCH  13  16
ATOM     16  C   UNL     1      45.379   5.157  10.761  0.00  0.00    +0.000 A 
ATOM     17  C   UNL     1      44.814   4.064  11.446  0.00  0.00    +0.000 A 
ATOM     18  C   UNL     1      44.427   2.899  10.777  0.00  0.00    +0.000 A 
ATOM     19  C   UNL     1      44.620   2.803   9.406  0.00  0.00    +0.000 A 
ATOM     20  F   UNL     1      44.234   1.695   8.761  0.00  0.00    +0.000 F 
ATOM     21  C   UNL     1      45.201   3.843   8.698  0.00  0.00    +0.000 A 
ATOM     22  C   UNL     1      45.579   5.010   9.373  0.00  0.00    +0.000 A 
ENDBRANCH  13  16
ENDBRANCH  12  13
ENDBRANCH   4  12
TORSDOF 4
ENDMDL
