MODEL 1
REMARK VINA RESULT:    -7.550      0.000      0.000
REMARK INTER + INTRA:         -11.794
REMARK INTER:                 -11.081
REMARK INTRA:                  -0.713
REMARK UNBOUND:                -0.713
REMARK  Name = 
REMARK  11 active torsions:
REMARK  status: ('A' for Active; 'I' for Inactive)
REMARK    1  A    between atoms: C_1  and  C_2
REMARK    2  A    between atoms: C_2  and  N_3
REMARK    3  A    between atoms: C_2  and  C_19
REMARK    4  A    between atoms: N_3  and  C_4
REMARK    5  A    between atoms: C_4  and  C_5
REMARK    6  A    between atoms: C_8  and  C_9
REMARK    7  A    between atoms: C_9  and  N_10
REMARK    8  A    between atoms: N_10  and  C_11
REMARK    9  A    between atoms: C_11  and  C_12
REMARK   10  A    between atoms: C_12  and  C_13
REMARK   11  A    between atoms: N_15  and  C_16
REMARK                            x       y       z     vdW  Elec       q    Type
REMARK                         _______ _______ _______ _____ _____    ______ ____
ROOT
ATOM      1  C   UNL     1      47.424   5.494  14.735  0.00  0.00    +0.000 C 
ENDROOT
BRANCH   1   2
ATOM      2  C   UNL     1      46.481   4.939  13.698  0.00  0.00    +0.000 A 
ATOM      3  C   UNL     1      45.800   5.806  12.834  0.00  0.00    +0.000 A 
ATOM      4  C   UNL     1      45.030   5.299  11.792  0.00  0.00    +0.000 A 
ATOM      5  C   UNL     1      44.946   3.915  11.579  0.00  0.00    +0.000 A 
ATOM      6  C   UNL     1      45.597   3.051  12.468  0.00  0.00    +0.000 A 
ATOM      7  C   UNL     1      46.361   3.557  13.517  0.00  0.00    +0.000 A 
BRANCH   5   8
ATOM      8  C   UNL     1      44.128   3.324  10.460  0.00  0.00    +0.000 C 
BRANCH   8   9
ATOM      9  N   UNL     1      44.881   2.356   9.669  0.00  0.00    +0.000 NA
ATOM     10  H   UNL     1      44.542   1.416   9.872  0.00  0.00    +0.000 HD
BRANCH   9  11
ATOM     11  C   UNL     1      44.737   2.640   8.244  0.00  0.00    +0.000 C 
BRANCH  11  12
ATOM     12  C   UNL     1      46.022   3.227   7.720  0.00  0.00    +0.000 C 
ATOM     13  C   UNL     1      46.270   4.671   8.056  0.00  0.00    +0.000 C 
ATOM     14  O   UNL     1      46.286   2.916   6.350  0.00  0.00    +0.000 OA
ATOM     15  N   UNL     1      47.192   2.407   7.363  0.00  0.00    +0.000 NA
ATOM     16  C   UNL     1      46.997   0.964   7.330  0.00  0.00    +0.000 C 
ENDBRANCH  11  12
ENDBRANCH   9  11
ENDBRANCH   8   9
ENDBRANCH   5   8
ENDBRANCH   1   2
BRANCH   1  17
ATOM     17  N   UNL     1      48.156   4.441  15.433  0.00  0.00    +0.000 NA
ATOM     18  H   UNL     1      49.151   4.567  15.235  0.00  0.00    +0.000 HD
BRANCH  17  20
ATOM     19  C   UNL     1      47.084   3.347  17.424  0.00  0.00    +0.000 C 
ATOM     20  C   UNL     1      47.965   4.487  16.891  0.00  0.00    +0.000 C 
BRANCH  20  21
ATOM     21  C   UNL     1      49.340   4.474  17.543  0.00  0.00    +0.000 A 
ATOM     22  C   UNL     1      49.902   5.508  18.279  0.00  0.00    +0.000 A 
ATOM     23  S   UNL     1      51.446   5.135  18.909  0.00  0.00    +0.000 S 
ATOM     24  C   UNL     1      51.441   3.600  18.175  0.00  0.00    +0.000 A 
ATOM     25  N   UNL     1      52.494   2.748  18.308  0.00  0.00    +0.000 NA
ATOM     26  C   UNL     1      52.343   1.617  17.701  0.00  0.00    +0.000 A 
ATOM     27  N   UNL     1      51.239   1.267  16.965  0.00  0.00    +0.000 N 
ATOM     28  C   UNL     1      50.154   2.094  16.792  0.00  0.00    +0.000 A 
ATOM     29  O   UNL     1      49.192   1.761  16.109  0.00  0.00    +0.000 OA
ATOM     30  C   UNL     1      50.272   3.370  17.475  0.00  0.00    +0.000 A 
ATOM     31  H   UNL     1      51.189   0.368  16.502  0.00  0.00    +0.000 HD
ENDBRANCH  20  21
ENDBRANCH  17  20
ENDBRANCH   1  17
TORSDOF 8
ENDMDL
MODEL 2
REMARK VINA RESULT:    -7.114      2.040      2.823
REMARK INTER + INTRA:         -11.154
REMARK INTER:                  -9.892
REMARK INTRA:                  -1.262
REMARK UNBOUND:                -0.713
REMARK  Name = 
REMARK  11 active torsions:
REMARK  status: ('A' for Active; 'I' for Inactive)
REMARK    1  A    between atoms: C_1  and  C_2
REMARK    2  A    between atoms: C_2  and  N_3
REMARK    3  A    between atoms: C_2  and  C_19
REMARK    4  A    between atoms: N_3  and  C_4
REMARK    5  A    between atoms: C_4  and  C_5
REMARK    6  A    between atoms: C_8  and  C_9
REMARK    7  A    between atoms: C_9  and  N_10
REMARK    8  A    between atoms: N_10  and  C_11
REMARK    9  A    between atoms: C_11  and  C_12
REMARK   10  A    between atoms: C_12  and  C_13
REMARK   11  A    between atoms: N_15  and  C_16
REMARK                            x       y       z     vdW  Elec       q    Type
REMARK                         _______ _______ _______ _____ _____    ______ ____
ROOT
ATOM      1  C   UNL     1      47.378   6.582  14.067  0.00  0.00    +0.000 C 
ENDROOT
BRANCH   1   2
ATOM      2  C   UNL     1      46.666   5.708  13.066  0.00  0.00    +0.000 A 
ATOM      3  C   UNL     1      46.251   4.421  13.429  0.00  0.00    +0.000 A 
ATOM      4  C   UNL     1      45.481   3.657  12.557  0.00  0.00    +0.000 A 
ATOM      5  C   UNL     1      45.091   4.177  11.314  0.00  0.00    +0.000 A 
ATOM      6  C   UNL     1      45.540   5.449  10.939  0.00  0.00    +0.000 A 
ATOM      7  C   UNL     1      46.318   6.211  11.807  0.00  0.00    +0.000 A 
BRANCH   5   8
ATOM      8  C   UNL     1      44.253   3.386  10.343  0.00  0.00    +0.000 C 
BRANCH   8   9
ATOM      9  N   UNL     1      45.033   2.391   9.614  0.00  0.00    +0.000 NA
ATOM     10  H   UNL     1      44.730   1.456   9.888  0.00  0.00    +0.000 HD
BRANCH   9  11
ATOM     11  C   UNL     1      44.864   2.565   8.174  0.00  0.00    +0.000 C 
BRANCH  11  12
ATOM     12  C   UNL     1      46.194   2.908   7.554  0.00  0.00    +0.000 C 
ATOM     13  C   UNL     1      46.616   4.347   7.657  0.00  0.00    +0.000 C 
ATOM     14  O   UNL     1      46.384   2.359   6.248  0.00  0.00    +0.000 OA
ATOM     15  N   UNL     1      47.252   1.910   7.322  0.00  0.00    +0.000 NA
ATOM     16  C   UNL     1      46.891   0.513   7.518  0.00  0.00    +0.000 C 
ENDBRANCH  11  12
ENDBRANCH   9  11
ENDBRANCH   8   9
ENDBRANCH   5   8
ENDBRANCH   1   2
BRANCH   1  17
ATOM     17  N   UNL     1      48.315   5.824  14.891  0.00  0.00    +0.000 NA
ATOM     18  H   UNL     1      48.783   5.142  14.289  0.00  0.00    +0.000 HD
BRANCH  17  20
ATOM     19  C   UNL     1      49.569   7.996  14.764  0.00  0.00    +0.000 C 
ATOM     20  C   UNL     1      49.342   6.675  15.514  0.00  0.00    +0.000 C 
BRANCH  20  21
ATOM     21  C   UNL     1      48.929   6.922  16.958  0.00  0.00    +0.000 A 
ATOM     22  C   UNL     1      48.493   8.131  17.483  0.00  0.00    +0.000 A 
ATOM     23  S   UNL     1      48.064   8.041  19.135  0.00  0.00    +0.000 S 
ATOM     24  C   UNL     1      48.496   6.397  19.219  0.00  0.00    +0.000 A 
ATOM     25  N   UNL     1      48.382   5.694  20.378  0.00  0.00    +0.000 NA
ATOM     26  C   UNL     1      48.741   4.456  20.287  0.00  0.00    +0.000 A 
ATOM     27  N   UNL     1      49.213   3.863  19.143  0.00  0.00    +0.000 N 
ATOM     28  C   UNL     1      49.356   4.530  17.949  0.00  0.00    +0.000 A 
ATOM     29  O   UNL     1      49.802   3.978  16.950  0.00  0.00    +0.000 OA
ATOM     30  C   UNL     1      48.945   5.922  18.002  0.00  0.00    +0.000 A 
ATOM     31  H   UNL     1      49.490   2.889  19.141  0.00  0.00    +0.000 HD
ENDBRANCH  20  21
ENDBRANCH  17  20
ENDBRANCH   1  17
TORSDOF 8
ENDMDL
MODEL 3
REMARK VINA RESULT:    -7.079      2.245      3.224
REMARK INTER + INTRA:         -11.102
REMARK INTER:                 -10.105
REMARK INTRA:                  -0.998
REMARK UNBOUND:                -0.713
REMARK  Name = 
REMARK  11 active torsions:
REMARK  status: ('A' for Active; 'I' for Inactive)
REMARK    1  A    between atoms: C_1  and  C_2
REMARK    2  A    between atoms: C_2  and  N_3
REMARK    3  A    between atoms: C_2  and  C_19
REMARK    4  A    between atoms: N_3  and  C_4
REMARK    5  A    between atoms: C_4  and  C_5
REMARK    6  A    between atoms: C_8  and  C_9
REMARK    7  A    between atoms: C_9  and  N_10
REMARK    8  A    between atoms: N_10  and  C_11
REMARK    9  A    between atoms: C_11  and  C_12
REMARK   10  A    between atoms: C_12  and  C_13
REMARK   11  A    between atoms: N_15  and  C_16
REMARK                            x       y       z     vdW  Elec       q    Type
REMARK                         _______ _______ _______ _____ _____    ______ ____
ROOT
ATOM      1  C   UNL     1      49.101   6.843  15.338  0.00  0.00    +0.000 C 
ENDROOT
BRANCH   1   2
ATOM      2  C   UNL     1      48.086   6.844  14.223  0.00  0.00    +0.000 A 
ATOM      3  C   UNL     1      47.623   5.632  13.696  0.00  0.00    +0.000 A 
ATOM      4  C   UNL     1      46.594   5.620  12.759  0.00  0.00    +0.000 A 
ATOM      5  C   UNL     1      45.993   6.819  12.350  0.00  0.00    +0.000 A 
ATOM      6  C   UNL     1      46.484   8.031  12.851  0.00  0.00    +0.000 A 
ATOM      7  C   UNL     1      47.520   8.045  13.782  0.00  0.00    +0.000 A 
BRANCH   5   8
ATOM      8  C   UNL     1      44.872   6.850  11.343  0.00  0.00    +0.000 C 
BRANCH   8   9
ATOM      9  N   UNL     1      44.933   5.733  10.406  0.00  0.00    +0.000 NA
ATOM     10  H   UNL     1      45.742   5.150  10.625  0.00  0.00    +0.000 HD
BRANCH   9  11
ATOM     11  C   UNL     1      43.711   4.936  10.483  0.00  0.00    +0.000 C 
BRANCH  11  12
ATOM     12  C   UNL     1      44.054   3.539  10.929  0.00  0.00    +0.000 C 
ATOM     13  C   UNL     1      44.954   2.758  10.012  0.00  0.00    +0.000 C 
ATOM     14  O   UNL     1      42.931   2.784  11.389  0.00  0.00    +0.000 OA
ATOM     15  N   UNL     1      43.985   3.105  12.334  0.00  0.00    +0.000 NA
ATOM     16  C   UNL     1      43.358   4.024  13.275  0.00  0.00    +0.000 C 
ENDBRANCH  11  12
ENDBRANCH   9  11
ENDBRANCH   8   9
ENDBRANCH   5   8
ENDBRANCH   1   2
BRANCH   1  17
ATOM     17  N   UNL     1      49.153   5.560  16.034  0.00  0.00    +0.000 NA
ATOM     18  H   UNL     1      49.949   5.034  15.664  0.00  0.00    +0.000 HD
BRANCH  17  20
ATOM     19  C   UNL     1      48.144   5.170  18.301  0.00  0.00    +0.000 C 
ATOM     20  C   UNL     1      49.330   5.708  17.487  0.00  0.00    +0.000 C 
BRANCH  20  21
ATOM     21  C   UNL     1      50.626   5.009  17.872  0.00  0.00    +0.000 A 
ATOM     22  C   UNL     1      51.719   5.603  18.488  0.00  0.00    +0.000 A 
ATOM     23  S   UNL     1      52.991   4.511  18.822  0.00  0.00    +0.000 S 
ATOM     24  C   UNL     1      52.147   3.217  18.108  0.00  0.00    +0.000 A 
ATOM     25  N   UNL     1      52.685   1.969  18.047  0.00  0.00    +0.000 NA
ATOM     26  C   UNL     1      51.925   1.089  17.482  0.00  0.00    +0.000 A 
ATOM     27  N   UNL     1      50.681   1.349  16.966  0.00  0.00    +0.000 N 
ATOM     28  C   UNL     1      50.096   2.593  16.994  0.00  0.00    +0.000 A 
ATOM     29  O   UNL     1      48.992   2.799  16.502  0.00  0.00    +0.000 OA
ATOM     30  C   UNL     1      50.909   3.610  17.637  0.00  0.00    +0.000 A 
ATOM     31  H   UNL     1      50.140   0.616  16.524  0.00  0.00    +0.000 HD
ENDBRANCH  20  21
ENDBRANCH  17  20
ENDBRANCH   1  17
TORSDOF 8
ENDMDL
MODEL 4
REMARK VINA RESULT:    -7.018      2.600      3.590
REMARK INTER + INTRA:         -11.013
REMARK INTER:                  -9.581
REMARK INTRA:                  -1.432
REMARK UNBOUND:                -0.713
REMARK  Name = 
REMARK  11 active torsions:
REMARK  status: ('A' for Active; 'I' for Inactive)
REMARK    1  A    between atoms: C_1  and  C_2
REMARK    2  A    between atoms: C_2  and  N_3
REMARK    3  A    between atoms: C_2  and  C_19
REMARK    4  A    between atoms: N_3  and  C_4
REMARK    5  A    between atoms: C_4  and  C_5
REMARK    6  A    between atoms: C_8  and  C_9
REMARK    7  A    between atoms: C_9  and  N_10
REMARK    8  A    between atoms: N_10  and  C_11
REMARK    9  A    between atoms: C_11  and  C_12
REMARK   10  A    between atoms: C_12  and  C_13
REMARK   11  A    between atoms: N_15  and  C_16
REMARK                            x       y       z     vdW  Elec       q    Type
REMARK                         _______ _______ _______ _____ _____    ______ ____
ROOT
ATOM      1  C   UNL     1      49.047   7.078  15.137  0.00  0.00    +0.000 C 
ENDROOT
BRANCH   1   2
ATOM      2  C   UNL     1      47.895   6.996  14.167  0.00  0.00    +0.000 A 
ATOM      3  C   UNL     1      47.219   8.160  13.783  0.00  0.00    +0.000 A 
ATOM      4  C   UNL     1      46.242   8.111  12.793  0.00  0.00    +0.000 A 
ATOM      5  C   UNL     1      45.941   6.900  12.152  0.00  0.00    +0.000 A 
ATOM      6  C   UNL     1      46.593   5.732  12.566  0.00  0.00    +0.000 A 
ATOM      7  C   UNL     1      47.564   5.778  13.563  0.00  0.00    +0.000 A 
BRANCH   5   8
ATOM      8  C   UNL     1      44.895   6.804  11.071  0.00  0.00    +0.000 C 
BRANCH   8   9
ATOM      9  N   UNL     1      45.018   5.583  10.282  0.00  0.00    +0.000 NA
ATOM     10  H   UNL     1      45.798   5.028  10.636  0.00  0.00    +0.000 HD
BRANCH   9  11
ATOM     11  C   UNL     1      43.784   4.805  10.350  0.00  0.00    +0.000 C 
BRANCH  11  12
ATOM     12  C   UNL     1      44.091   3.429  10.881  0.00  0.00    +0.000 C 
ATOM     13  C   UNL     1      44.971   2.571  10.014  0.00  0.00    +0.000 C 
ATOM     14  O   UNL     1      42.948   2.732  11.383  0.00  0.00    +0.000 OA
ATOM     15  N   UNL     1      44.009   3.082  12.309  0.00  0.00    +0.000 NA
ATOM     16  C   UNL     1      43.406   4.072  13.192  0.00  0.00    +0.000 C 
ENDBRANCH  11  12
ENDBRANCH   9  11
ENDBRANCH   8   9
ENDBRANCH   5   8
ENDBRANCH   1   2
BRANCH   1  17
ATOM     17  N   UNL     1      48.618   7.501  16.467  0.00  0.00    +0.000 NA
ATOM     18  H   UNL     1      47.613   7.327  16.543  0.00  0.00    +0.000 HD
BRANCH  17  20
ATOM     19  C   UNL     1      48.980   7.309  18.945  0.00  0.00    +0.000 C 
ATOM     20  C   UNL     1      49.298   6.765  17.544  0.00  0.00    +0.000 C 
BRANCH  20  21
ATOM     21  C   UNL     1      48.913   5.297  17.422  0.00  0.00    +0.000 A 
ATOM     22  C   UNL     1      47.621   4.803  17.304  0.00  0.00    +0.000 A 
ATOM     23  S   UNL     1      47.555   3.103  17.137  0.00  0.00    +0.000 S 
ATOM     24  C   UNL     1      49.246   2.964  17.269  0.00  0.00    +0.000 A 
ATOM     25  N   UNL     1      49.863   1.753  17.216  0.00  0.00    +0.000 NA
ATOM     26  C   UNL     1      51.150   1.807  17.324  0.00  0.00    +0.000 A 
ATOM     27  N   UNL     1      51.872   2.961  17.489  0.00  0.00    +0.000 N 
ATOM     28  C   UNL     1      51.297   4.209  17.558  0.00  0.00    +0.000 A 
ATOM     29  O   UNL     1      51.968   5.220  17.730  0.00  0.00    +0.000 OA
ATOM     30  C   UNL     1      49.851   4.197  17.422  0.00  0.00    +0.000 A 
ATOM     31  H   UNL     1      52.880   2.934  17.580  0.00  0.00    +0.000 HD
ENDBRANCH  20  21
ENDBRANCH  17  20
ENDBRANCH   1  17
TORSDOF 8
ENDMDL
MODEL 5
REMARK VINA RESULT:    -6.768      3.185      4.155
REMARK INTER + INTRA:         -10.647
REMARK INTER:                  -9.210
REMARK INTRA:                  -1.437
REMARK UNBOUND:                -0.713
REMARK  Name = 
REMARK  11 active torsions:
REMARK  status: ('A' for Active; 'I' for Inactive)
REMARK    1  A    between atoms: C_1  and  C_2
REMARK    2  A    between atoms: C_2  and  N_3
REMARK    3  A    between atoms: C_2  and  C_19
REMARK    4  A    between atoms: N_3  and  C_4
REMARK    5  A    between atoms: C_4  and  C_5
REMARK    6  A    between atoms: C_8  and  C_9
REMARK    7  A    between atoms: C_9  and  N_10
REMARK    8  A    between atoms: N_10  and  C_11
REMARK    9  A    between atoms: C_11  and  C_12
REMARK   10  A    between atoms: C_12  and  C_13
REMARK   11  A    between atoms: N_15  and  C_16
REMARK                            x       y       z     vdW  Elec       q    Type
REMARK                         _______ _______ _______ _____ _____    ______ ____
ROOT
ATOM      1  C   UNL     1      46.251   7.915  13.161  0.00  0.00    +0.000 C 
ENDROOT
BRANCH   1   2
ATOM      2  C   UNL     1      45.569   6.662  12.673  0.00  0.00    +0.000 A 
ATOM      3  C   UNL     1      44.538   6.748  11.729  0.00  0.00    +0.000 A 
ATOM      4  C   UNL     1      43.992   5.594  11.177  0.00  0.00    +0.000 A 
ATOM      5  C   UNL     1      44.483   4.332  11.541  0.00  0.00    +0.000 A 
ATOM      6  C   UNL     1      45.487   4.249  12.514  0.00  0.00    +0.000 A 
ATOM      7  C   UNL     1      46.029   5.403  13.073  0.00  0.00    +0.000 A 
BRANCH   5   8
ATOM      8  C   UNL     1      43.924   3.057  10.964  0.00  0.00    +0.000 C 
BRANCH   8   9
ATOM      9  N   UNL     1      44.886   2.358  10.118  0.00  0.00    +0.000 NA
ATOM     10  H   UNL     1      44.854   1.359  10.324  0.00  0.00    +0.000 HD
BRANCH   9  11
ATOM     11  C   UNL     1      44.585   2.585   8.708  0.00  0.00    +0.000 C 
BRANCH  11  12
ATOM     12  C   UNL     1      45.783   3.202   8.035  0.00  0.00    +0.000 C 
ATOM     13  C   UNL     1      46.020   4.658   8.323  0.00  0.00    +0.000 C 
ATOM     14  O   UNL     1      45.902   2.878   6.648  0.00  0.00    +0.000 OA
ATOM     15  N   UNL     1      46.932   2.414   7.559  0.00  0.00    +0.000 NA
ATOM     16  C   UNL     1      46.781   0.965   7.566  0.00  0.00    +0.000 C 
ENDBRANCH  11  12
ENDBRANCH   9  11
ENDBRANCH   8   9
ENDBRANCH   5   8
ENDBRANCH   1   2
BRANCH   1  17
ATOM     17  N   UNL     1      47.392   8.281  12.326  0.00  0.00    +0.000 NA
ATOM     18  H   UNL     1      47.420   9.301  12.261  0.00  0.00    +0.000 HD
BRANCH  17  20
ATOM     19  C   UNL     1      49.835   7.903  11.878  0.00  0.00    +0.000 C 
ATOM     20  C   UNL     1      48.674   7.817  12.880  0.00  0.00    +0.000 C 
BRANCH  20  21
ATOM     21  C   UNL     1      48.963   8.634  14.132  0.00  0.00    +0.000 A 
ATOM     22  C   UNL     1      49.233   9.995  14.171  0.00  0.00    +0.000 A 
ATOM     23  S   UNL     1      49.464  10.599  15.752  0.00  0.00    +0.000 S 
ATOM     24  C   UNL     1      49.263   9.054  16.437  0.00  0.00    +0.000 A 
ATOM     25  N   UNL     1      49.350   8.858  17.780  0.00  0.00    +0.000 NA
ATOM     26  C   UNL     1      49.168   7.633  18.152  0.00  0.00    +0.000 A 
ATOM     27  N   UNL     1      48.918   6.588  17.300  0.00  0.00    +0.000 N 
ATOM     28  C   UNL     1      48.829   6.731  15.935  0.00  0.00    +0.000 A 
ATOM     29  O   UNL     1      48.627   5.773  15.197  0.00  0.00    +0.000 OA
ATOM     30  C   UNL     1      49.008   8.096  15.474  0.00  0.00    +0.000 A 
ATOM     31  H   UNL     1      48.797   5.647  17.654  0.00  0.00    +0.000 HD
ENDBRANCH  20  21
ENDBRANCH  17  20
ENDBRANCH   1  17
TORSDOF 8
ENDMDL
MODEL 6
REMARK VINA RESULT:    -6.717      3.305      4.532
REMARK INTER + INTRA:         -10.571
REMARK INTER:                  -8.849
REMARK INTRA:                  -1.722
REMARK UNBOUND:                -0.713
REMARK  Name = 
REMARK  11 active torsions:
REMARK  status: ('A' for Active; 'I' for Inactive)
REMARK    1  A    between atoms: C_1  and  C_2
REMARK    2  A    between atoms: C_2  and  N_3
REMARK    3  A    between atoms: C_2  and  C_19
REMARK    4  A    between atoms: N_3  and  C_4
REMARK    5  A    between atoms: C_4  and  C_5
REMARK    6  A    between atoms: C_8  and  C_9
REMARK    7  A    between atoms: C_9  and  N_10
REMARK    8  A    between atoms: N_10  and  C_11
REMARK    9  A    between atoms: C_11  and  C_12
REMARK   10  A    between atoms: C_12  and  C_13
REMARK   11  A    between atoms: N_15  and  C_16
REMARK                            x       y       z     vdW  Elec       q    Type
REMARK                         _______ _______ _______ _____ _____    ______ ____
ROOT
ATOM      1  C   UNL     1      49.060   8.563  12.783  0.00  0.00    +0.000 C 
ENDROOT
BRANCH   1   2
ATOM      2  C   UNL     1      47.680   8.180  12.310  0.00  0.00    +0.000 A 
ATOM      3  C   UNL     1      47.497   7.015  11.555  0.00  0.00    +0.000 A 
ATOM      4  C   UNL     1      46.215   6.585  11.226  0.00  0.00    +0.000 A 
ATOM      5  C   UNL     1      45.092   7.300  11.666  0.00  0.00    +0.000 A 
ATOM      6  C   UNL     1      45.281   8.485  12.388  0.00  0.00    +0.000 A 
ATOM      7  C   UNL     1      46.563   8.921  12.711  0.00  0.00    +0.000 A 
BRANCH   5   8
ATOM      8  C   UNL     1      43.687   6.867  11.336  0.00  0.00    +0.000 C 
BRANCH   8   9
ATOM      9  N   UNL     1      43.651   5.628  10.564  0.00  0.00    +0.000 NA
ATOM     10  H   UNL     1      44.602   5.363  10.305  0.00  0.00    +0.000 HD
BRANCH   9  11
ATOM     11  C   UNL     1      43.031   4.560  11.343  0.00  0.00    +0.000 C 
BRANCH  11  12
ATOM     12  C   UNL     1      43.975   3.389  11.422  0.00  0.00    +0.000 C 
ATOM     13  C   UNL     1      44.198   2.636  10.140  0.00  0.00    +0.000 C 
ATOM     14  O   UNL     1      43.745   2.532  12.543  0.00  0.00    +0.000 OA
ATOM     15  N   UNL     1      45.002   3.254  12.468  0.00  0.00    +0.000 NA
ATOM     16  C   UNL     1      44.940   4.201  13.574  0.00  0.00    +0.000 C 
ENDBRANCH  11  12
ENDBRANCH   9  11
ENDBRANCH   8   9
ENDBRANCH   5   8
ENDBRANCH   1   2
BRANCH   1  17
ATOM     17  N   UNL     1      49.176   8.514  14.238  0.00  0.00    +0.000 NA
ATOM     18  H   UNL     1      48.289   8.169  14.612  0.00  0.00    +0.000 HD
BRANCH  17  20
ATOM     19  C   UNL     1      51.650   8.241  14.576  0.00  0.00    +0.000 C 
ATOM     20  C   UNL     1      50.251   7.618  14.692  0.00  0.00    +0.000 C 
BRANCH  20  21
ATOM     21  C   UNL     1      49.945   7.213  16.127  0.00  0.00    +0.000 A 
ATOM     22  C   UNL     1      50.576   7.702  17.263  0.00  0.00    +0.000 A 
ATOM     23  S   UNL     1      49.949   7.065  18.719  0.00  0.00    +0.000 S 
ATOM     24  C   UNL     1      48.847   6.075  17.882  0.00  0.00    +0.000 A 
ATOM     25  N   UNL     1      47.994   5.247  18.544  0.00  0.00    +0.000 NA
ATOM     26  C   UNL     1      47.213   4.563  17.774  0.00  0.00    +0.000 A 
ATOM     27  N   UNL     1      47.216   4.625  16.404  0.00  0.00    +0.000 N 
ATOM     28  C   UNL     1      48.062   5.438  15.687  0.00  0.00    +0.000 A 
ATOM     29  O   UNL     1      48.057   5.454  14.461  0.00  0.00    +0.000 OA
ATOM     30  C   UNL     1      48.947   6.241  16.513  0.00  0.00    +0.000 A 
ATOM     31  H   UNL     1      46.585   4.052  15.857  0.00  0.00    +0.000 HD
ENDBRANCH  20  21
ENDBRANCH  17  20
ENDBRANCH   1  17
TORSDOF 8
ENDMDL
MODEL 7
REMARK VINA RESULT:    -6.582      3.666      8.563
REMARK INTER + INTRA:         -10.373
REMARK INTER:                  -8.739
REMARK INTRA:                  -1.633
REMARK UNBOUND:                -0.713
REMARK  Name = 
REMARK  11 active torsions:
REMARK  status: ('A' for Active; 'I' for Inactive)
REMARK    1  A    between atoms: C_1  and  C_2
REMARK    2  A    between atoms: C_2  and  N_3
REMARK    3  A    between atoms: C_2  and  C_19
REMARK    4  A    between atoms: N_3  and  C_4
REMARK    5  A    between atoms: C_4  and  C_5
REMARK    6  A    between atoms: C_8  and  C_9
REMARK    7  A    between atoms: C_9  and  N_10
REMARK    8  A    between atoms: N_10  and  C_11
REMARK    9  A    between atoms: C_11  and  C_12
REMARK   10  A    between atoms: C_12  and  C_13
REMARK   11  A    between atoms: N_15  and  C_16
REMARK                            x       y       z     vdW  Elec       q    Type
REMARK                         _______ _______ _______ _____ _____    ______ ____
ROOT
ATOM      1  C   UNL     1      48.398   9.461  13.906  0.00  0.00    +0.000 C 
ENDROOT
BRANCH   1   2
ATOM      2  C   UNL     1      48.772   8.860  15.237  0.00  0.00    +0.000 A 
ATOM      3  C   UNL     1      48.092   9.249  16.398  0.00  0.00    +0.000 A 
ATOM      4  C   UNL     1      48.341   8.607  17.607  0.00  0.00    +0.000 A 
ATOM      5  C   UNL     1      49.257   7.548  17.673  0.00  0.00    +0.000 A 
ATOM      6  C   UNL     1      49.964   7.188  16.519  0.00  0.00    +0.000 A 
ATOM      7  C   UNL     1      49.722   7.835  15.310  0.00  0.00    +0.000 A 
BRANCH   5   8
ATOM      8  C   UNL     1      49.552   6.823  18.961  0.00  0.00    +0.000 C 
BRANCH   8   9
ATOM      9  N   UNL     1      50.347   5.617  18.753  0.00  0.00    +0.000 NA
ATOM     10  H   UNL     1      51.118   5.600  19.422  0.00  0.00    +0.000 HD
BRANCH   9  11
ATOM     11  C   UNL     1      49.520   4.425  18.918  0.00  0.00    +0.000 C 
BRANCH  11  12
ATOM     12  C   UNL     1      49.751   3.493  17.758  0.00  0.00    +0.000 C 
ATOM     13  C   UNL     1      51.158   2.991  17.589  0.00  0.00    +0.000 C 
ATOM     14  O   UNL     1      49.161   3.932  16.533  0.00  0.00    +0.000 OA
ATOM     15  N   UNL     1      48.676   2.704  17.135  0.00  0.00    +0.000 NA
ATOM     16  C   UNL     1      47.312   3.016  17.543  0.00  0.00    +0.000 C 
ENDBRANCH  11  12
ENDBRANCH   9  11
ENDBRANCH   8   9
ENDBRANCH   5   8
ENDBRANCH   1   2
BRANCH   1  17
ATOM     17  N   UNL     1      47.094   8.997  13.440  0.00  0.00    +0.000 NA
ATOM     18  H   UNL     1      46.567   9.813  13.119  0.00  0.00    +0.000 HD
BRANCH  17  20
ATOM     19  C   UNL     1      48.610   7.950  11.732  0.00  0.00    +0.000 C 
ATOM     20  C   UNL     1      47.196   8.043  12.325  0.00  0.00    +0.000 C 
BRANCH  20  21
ATOM     21  C   UNL     1      46.718   6.687  12.827  0.00  0.00    +0.000 A 
ATOM     22  C   UNL     1      47.490   5.751  13.500  0.00  0.00    +0.000 A 
ATOM     23  S   UNL     1      46.620   4.355  13.962  0.00  0.00    +0.000 S 
ATOM     24  C   UNL     1      45.193   4.929  13.233  0.00  0.00    +0.000 A 
ATOM     25  N   UNL     1      44.045   4.201  13.253  0.00  0.00    +0.000 NA
ATOM     26  C   UNL     1      43.044   4.770  12.665  0.00  0.00    +0.000 A 
ATOM     27  N   UNL     1      43.093   5.995  12.051  0.00  0.00    +0.000 N 
ATOM     28  C   UNL     1      44.230   6.767  11.994  0.00  0.00    +0.000 A 
ATOM     29  O   UNL     1      44.248   7.848  11.417  0.00  0.00    +0.000 OA
ATOM     30  C   UNL     1      45.376   6.174  12.661  0.00  0.00    +0.000 A 
ATOM     31  H   UNL     1      42.275   6.380  11.595  0.00  0.00    +0.000 HD
ENDBRANCH  20  21
ENDBRANCH  17  20
ENDBRANCH   1  17
TORSDOF 8
ENDMDL
MODEL 8
REMARK VINA RESULT:    -6.385      1.491      2.320
REMARK INTER + INTRA:         -10.084
REMARK INTER:                  -9.605
REMARK INTRA:                  -0.479
REMARK UNBOUND:                -0.713
REMARK  Name = 
REMARK  11 active torsions:
REMARK  status: ('A' for Active; 'I' for Inactive)
REMARK    1  A    between atoms: C_1  and  C_2
REMARK    2  A    between atoms: C_2  and  N_3
REMARK    3  A    between atoms: C_2  and  C_19
REMARK    4  A    between atoms: N_3  and  C_4
REMARK    5  A    between atoms: C_4  and  C_5
REMARK    6  A    between atoms: C_8  and  C_9
REMARK    7  A    between atoms: C_9  and  N_10
REMARK    8  A    between atoms: N_10  and  C_11
REMARK    9  A    between atoms: C_11  and  C_12
REMARK   10  A    between atoms: C_12  and  C_13
REMARK   11  A    between atoms: N_15  and  C_16
REMARK                            x       y       z     vdW  Elec       q    Type
REMARK                         _______ _______ _______ _____ _____    ______ ____
ROOT
ATOM      1  C   UNL     1      47.541   4.286  16.128  0.00  0.00    +0.000 C 
ENDROOT
BRANCH   1   2
ATOM      2  C   UNL     1      47.136   4.887  14.806  0.00  0.00    +0.000 A 
ATOM      3  C   UNL     1      45.965   4.457  14.170  0.00  0.00    +0.000 A 
ATOM      4  C   UNL     1      45.515   5.095  13.018  0.00  0.00    +0.000 A 
ATOM      5  C   UNL     1      46.216   6.191  12.495  0.00  0.00    +0.000 A 
ATOM      6  C   UNL     1      47.407   6.593  13.111  0.00  0.00    +0.000 A 
ATOM      7  C   UNL     1      47.863   5.950  14.259  0.00  0.00    +0.000 A 
BRANCH   5   8
ATOM      8  C   UNL     1      45.760   6.913  11.253  0.00  0.00    +0.000 C 
BRANCH   8   9
ATOM      9  N   UNL     1      44.855   6.108  10.439  0.00  0.00    +0.000 NA
ATOM     10  H   UNL     1      44.323   6.719   9.819  0.00  0.00    +0.000 HD
BRANCH   9  11
ATOM     11  C   UNL     1      45.607   5.135   9.651  0.00  0.00    +0.000 C 
BRANCH  11  12
ATOM     12  C   UNL     1      44.786   3.882   9.491  0.00  0.00    +0.000 C 
ATOM     13  C   UNL     1      43.603   3.750  10.410  0.00  0.00    +0.000 C 
ATOM     14  O   UNL     1      45.563   2.686   9.401  0.00  0.00    +0.000 OA
ATOM     15  N   UNL     1      44.770   3.085   8.253  0.00  0.00    +0.000 NA
ATOM     16  C   UNL     1      45.754   3.431   7.237  0.00  0.00    +0.000 C 
ENDBRANCH  11  12
ENDBRANCH   9  11
ENDBRANCH   8   9
ENDBRANCH   5   8
ENDBRANCH   1   2
BRANCH   1  17
ATOM     17  N   UNL     1      48.968   4.448  16.392  0.00  0.00    +0.000 NA
ATOM     18  H   UNL     1      49.291   5.270  15.877  0.00  0.00    +0.000 HD
BRANCH  17  20
ATOM     19  C   UNL     1      48.360   3.825  18.749  0.00  0.00    +0.000 C 
ATOM     20  C   UNL     1      49.262   4.651  17.820  0.00  0.00    +0.000 C 
BRANCH  20  21
ATOM     21  C   UNL     1      50.732   4.326  18.044  0.00  0.00    +0.000 A 
ATOM     22  C   UNL     1      51.691   5.198  18.540  0.00  0.00    +0.000 A 
ATOM     23  S   UNL     1      53.236   4.488  18.710  0.00  0.00    +0.000 S 
ATOM     24  C   UNL     1      52.689   3.005  18.078  0.00  0.00    +0.000 A 
ATOM     25  N   UNL     1      53.528   1.944  17.936  0.00  0.00    +0.000 NA
ATOM     26  C   UNL     1      52.969   0.885  17.449  0.00  0.00    +0.000 A 
ATOM     27  N   UNL     1      51.650   0.798  17.081  0.00  0.00    +0.000 N 
ATOM     28  C   UNL     1      50.763   1.843  17.195  0.00  0.00    +0.000 A 
ATOM     29  O   UNL     1      49.596   1.741  16.835  0.00  0.00    +0.000 OA
ATOM     30  C   UNL     1      51.346   3.049  17.757  0.00  0.00    +0.000 A 
ATOM     31  H   UNL     1      51.276  -0.059  16.692  0.00  0.00    +0.000 HD
ENDBRANCH  20  21
ENDBRANCH  17  20
ENDBRANCH   1  17
TORSDOF 8
ENDMDL
MODEL 9
REMARK VINA RESULT:    -6.261      2.564      3.945
REMARK INTER + INTRA:          -9.901
REMARK INTER:                  -8.728
REMARK INTRA:                  -1.174
REMARK UNBOUND:                -0.713
REMARK  Name = 
REMARK  11 active torsions:
REMARK  status: ('A' for Active; 'I' for Inactive)
REMARK    1  A    between atoms: C_1  and  C_2
REMARK    2  A    between atoms: C_2  and  N_3
REMARK    3  A    between atoms: C_2  and  C_19
REMARK    4  A    between atoms: N_3  and  C_4
REMARK    5  A    between atoms: C_4  and  C_5
REMARK    6  A    between atoms: C_8  and  C_9
REMARK    7  A    between atoms: C_9  and  N_10
REMARK    8  A    between atoms: N_10  and  C_11
REMARK    9  A    between atoms: C_11  and  C_12
REMARK   10  A    between atoms: C_12  and  C_13
REMARK   11  A    between atoms: N_15  and  C_16
REMARK                            x       y       z     vdW  Elec       q    Type
REMARK                         _______ _______ _______ _____ _____    ______ ____
ROOT
ATOM      1  C   UNL     1      48.846   7.963  16.802  0.00  0.00    +0.000 C 
ENDROOT
BRANCH   1   2
ATOM      2  C   UNL     1      48.344   7.712  15.402  0.00  0.00    +0.000 A 
ATOM      3  C   UNL     1      48.356   6.414  14.876  0.00  0.00    +0.000 A 
ATOM      4  C   UNL     1      47.777   6.152  13.638  0.00  0.00    +0.000 A 
ATOM      5  C   UNL     1      47.154   7.179  12.914  0.00  0.00    +0.000 A 
ATOM      6  C   UNL     1      47.179   8.483  13.426  0.00  0.00    +0.000 A 
ATOM      7  C   UNL     1      47.766   8.748  14.661  0.00  0.00    +0.000 A 
BRANCH   5   8
ATOM      8  C   UNL     1      46.511   6.938  11.573  0.00  0.00    +0.000 C 
BRANCH   8   9
ATOM      9  N   UNL     1      45.975   5.586  11.446  0.00  0.00    +0.000 NA
ATOM     10  H   UNL     1      46.005   5.123  12.355  0.00  0.00    +0.000 HD
BRANCH   9  11
ATOM     11  C   UNL     1      44.602   5.626  10.953  0.00  0.00    +0.000 C 
BRANCH  11  12
ATOM     12  C   UNL     1      43.796   4.551  11.635  0.00  0.00    +0.000 C 
ATOM     13  C   UNL     1      42.856   5.017  12.712  0.00  0.00    +0.000 C 
ATOM     14  O   UNL     1      44.561   3.405  12.015  0.00  0.00    +0.000 OA
ATOM     15  N   UNL     1      43.518   3.243  11.018  0.00  0.00    +0.000 NA
ATOM     16  C   UNL     1      44.238   2.930   9.791  0.00  0.00    +0.000 C 
ENDBRANCH  11  12
ENDBRANCH   9  11
ENDBRANCH   8   9
ENDBRANCH   5   8
ENDBRANCH   1   2
BRANCH   1  17
ATOM     17  N   UNL     1      47.999   7.333  17.811  0.00  0.00    +0.000 NA
ATOM     18  H   UNL     1      47.494   6.565  17.362  0.00  0.00    +0.000 HD
BRANCH  17  20
ATOM     19  C   UNL     1      47.889   6.320  20.107  0.00  0.00    +0.000 C 
ATOM     20  C   UNL     1      48.771   6.783  18.937  0.00  0.00    +0.000 C 
BRANCH  20  21
ATOM     21  C   UNL     1      49.626   5.642  18.404  0.00  0.00    +0.000 A 
ATOM     22  C   UNL     1      51.012   5.582  18.435  0.00  0.00    +0.000 A 
ATOM     23  S   UNL     1      51.646   4.131  17.793  0.00  0.00    +0.000 S 
ATOM     24  C   UNL     1      50.093   3.555  17.403  0.00  0.00    +0.000 A 
ATOM     25  N   UNL     1      49.916   2.347  16.804  0.00  0.00    +0.000 NA
ATOM     26  C   UNL     1      48.681   2.042  16.576  0.00  0.00    +0.000 A 
ATOM     27  N   UNL     1      47.610   2.843  16.883  0.00  0.00    +0.000 N 
ATOM     28  C   UNL     1      47.735   4.075  17.479  0.00  0.00    +0.000 A 
ATOM     29  O   UNL     1      46.760   4.778  17.720  0.00  0.00    +0.000 OA
ATOM     30  C   UNL     1      49.107   4.450  17.772  0.00  0.00    +0.000 A 
ATOM     31  H   UNL     1      46.665   2.550  16.665  0.00  0.00    +0.000 HD
ENDBRANCH  20  21
ENDBRANCH  17  20
ENDBRANCH   1  17
TORSDOF 8
ENDMDL
