MODEL 1
REMARK VINA RESULT:    -8.102      0.000      0.000
REMARK INTER + INTRA:         -11.202
REMARK INTER:                 -10.471
REMARK INTRA:                  -0.732
REMARK UNBOUND:                -0.732
REMARK  Name = 
REMARK  5 active torsions:
REMARK  status: ('A' for Active; 'I' for Inactive)
REMARK    1  A    between atoms: C_2  and  C_5
REMARK    2  A    between atoms: C_9  and  C_10
REMARK    3  A    between atoms: C_14  and  C_15
REMARK    4  A    between atoms: C_15  and  O_16
REMARK    5  A    between atoms: O_16  and  C_17
REMARK                            x       y       z     vdW  Elec       q    Type
REMARK                         _______ _______ _______ _____ _____    ______ ____
ROOT
ATOM      1  C   UNL     1      45.195   4.843  12.988  0.00  0.00    +0.000 A 
ATOM      2  C   UNL     1      44.013   5.604  13.039  0.00  0.00    +0.000 A 
ATOM      3  C   UNL     1      42.941   5.346  12.179  0.00  0.00    +0.000 A 
ATOM      4  C   UNL     1      43.033   4.326  11.235  0.00  0.00    +0.000 A 
ATOM      5  C   UNL     1      44.196   3.556  11.144  0.00  0.00    +0.000 A 
ATOM      6  C   UNL     1      45.250   3.802  12.040  0.00  0.00    +0.000 A 
ENDROOT
BRANCH   1  11
ATOM      7  C   UNL     1      47.608   4.441  15.734  0.00  0.00    +0.000 A 
ATOM      8  C   UNL     1      48.436   5.557  15.624  0.00  0.00    +0.000 A 
ATOM      9  C   UNL     1      48.190   6.483  14.620  0.00  0.00    +0.000 A 
ATOM     10  C   UNL     1      47.129   6.274  13.745  0.00  0.00    +0.000 A 
ATOM     11  C   UNL     1      46.333   5.137  13.886  0.00  0.00    +0.000 A 
ATOM     12  N   UNL     1      46.560   4.238  14.878  0.00  0.00    +0.000 NA
BRANCH   7  14
ATOM     13  F   UNL     1      46.720   3.033  17.482  0.00  0.00    +0.000 F 
ATOM     14  C   UNL     1      47.861   3.420  16.834  0.00  0.00    +0.000 C 
ATOM     15  F   UNL     1      48.693   3.875  17.814  0.00  0.00    +0.000 F 
ATOM     16  F   UNL     1      48.418   2.263  16.372  0.00  0.00    +0.000 F 
ENDBRANCH   7  14
ENDBRANCH   1  11
BRANCH   5  17
ATOM     17  C   UNL     1      44.328   2.484  10.089  0.00  0.00    +0.000 C 
BRANCH  17  18
ATOM     18  O   UNL     1      44.510   3.087   8.815  0.00  0.00    +0.000 OA
BRANCH  18  19
ATOM     19  C   UNL     1      45.620   2.570   8.182  0.00  0.00    +0.000 A 
ATOM     20  N   UNL     1      46.334   3.451   7.469  0.00  0.00    +0.000 NA
ATOM     21  C   UNL     1      47.414   2.958   6.834  0.00  0.00    +0.000 A 
ATOM     22  C   UNL     1      47.797   1.639   6.897  0.00  0.00    +0.000 A 
ATOM     23  C   UNL     1      47.002   0.826   7.667  0.00  0.00    +0.000 A 
ATOM     24  N   UNL     1      45.907   1.263   8.317  0.00  0.00    +0.000 NA
ENDBRANCH  18  19
ENDBRANCH  17  18
ENDBRANCH   5  17
TORSDOF 5
ENDMDL
MODEL 2
REMARK VINA RESULT:    -7.909      1.095      1.692
REMARK INTER + INTRA:         -10.952
REMARK INTER:                 -10.215
REMARK INTRA:                  -0.737
REMARK UNBOUND:                -0.732
REMARK  Name = 
REMARK  5 active torsions:
REMARK  status: ('A' for Active; 'I' for Inactive)
REMARK    1  A    between atoms: C_2  and  C_5
REMARK    2  A    between atoms: C_9  and  C_10
REMARK    3  A    between atoms: C_14  and  C_15
REMARK    4  A    between atoms: C_15  and  O_16
REMARK    5  A    between atoms: O_16  and  C_17
REMARK                            x       y       z     vdW  Elec       q    Type
REMARK                         _______ _______ _______ _____ _____    ______ ____
ROOT
ATOM      1  C   UNL     1      46.525   5.694  13.274  0.00  0.00    +0.000 A 
ATOM      2  C   UNL     1      46.231   6.919  12.648  0.00  0.00    +0.000 A 
ATOM      3  C   UNL     1      45.407   6.983  11.520  0.00  0.00    +0.000 A 
ATOM      4  C   UNL     1      44.866   5.818  10.984  0.00  0.00    +0.000 A 
ATOM      5  C   UNL     1      45.143   4.580  11.569  0.00  0.00    +0.000 A 
ATOM      6  C   UNL     1      45.943   4.534  12.724  0.00  0.00    +0.000 A 
ENDROOT
BRANCH   1  11
ATOM      7  C   UNL     1      48.186   4.353  16.269  0.00  0.00    +0.000 A 
ATOM      8  C   UNL     1      49.042   5.378  16.669  0.00  0.00    +0.000 A 
ATOM      9  C   UNL     1      49.071   6.557  15.938  0.00  0.00    +0.000 A 
ATOM     10  C   UNL     1      48.249   6.687  14.823  0.00  0.00    +0.000 A 
ATOM     11  C   UNL     1      47.417   5.632  14.453  0.00  0.00    +0.000 A 
ATOM     12  N   UNL     1      47.373   4.483  15.176  0.00  0.00    +0.000 NA
BRANCH   7  14
ATOM     13  F   UNL     1      46.875   2.714  17.460  0.00  0.00    +0.000 F 
ATOM     14  C   UNL     1      48.139   3.056  17.064  0.00  0.00    +0.000 C 
ATOM     15  F   UNL     1      48.875   3.097  18.211  0.00  0.00    +0.000 F 
ATOM     16  F   UNL     1      48.596   1.980  16.360  0.00  0.00    +0.000 F 
ENDBRANCH   7  14
ENDBRANCH   1  11
BRANCH   5  17
ATOM     17  C   UNL     1      44.607   3.305  10.965  0.00  0.00    +0.000 C 
BRANCH  17  18
ATOM     18  O   UNL     1      44.200   3.546   9.625  0.00  0.00    +0.000 OA
BRANCH  18  19
ATOM     19  C   UNL     1      45.176   3.146   8.737  0.00  0.00    +0.000 A 
ATOM     20  N   UNL     1      45.514   1.851   8.804  0.00  0.00    +0.000 NA
ATOM     21  C   UNL     1      46.476   1.448   7.952  0.00  0.00    +0.000 A 
ATOM     22  C   UNL     1      47.089   2.283   7.049  0.00  0.00    +0.000 A 
ATOM     23  C   UNL     1      46.657   3.587   7.056  0.00  0.00    +0.000 A 
ATOM     24  N   UNL     1      45.706   4.046   7.889  0.00  0.00    +0.000 NA
ENDBRANCH  18  19
ENDBRANCH  17  18
ENDBRANCH   5  17
TORSDOF 5
ENDMDL
MODEL 3
REMARK VINA RESULT:    -7.713      1.647      2.087
REMARK INTER + INTRA:         -10.699
REMARK INTER:                  -9.930
REMARK INTRA:                  -0.769
REMARK UNBOUND:                -0.732
REMARK  Name = 
REMARK  5 active torsions:
REMARK  status: ('A' for Active; 'I' for Inactive)
REMARK    1  A    between atoms: C_2  and  C_5
REMARK    2  A    between atoms: C_9  and  C_10
REMARK    3  A    between atoms: C_14  and  C_15
REMARK    4  A    between atoms: C_15  and  O_16
REMARK    5  A    between atoms: O_16  and  C_17
REMARK                            x       y       z     vdW  Elec       q    Type
REMARK                         _______ _______ _______ _____ _____    ______ ____
ROOT
ATOM      1  C   UNL     1      45.523   5.620  12.245  0.00  0.00    +0.000 A 
ATOM      2  C   UNL     1      44.360   5.789  13.019  0.00  0.00    +0.000 A 
ATOM      3  C   UNL     1      43.156   5.169  12.670  0.00  0.00    +0.000 A 
ATOM      4  C   UNL     1      43.083   4.375  11.529  0.00  0.00    +0.000 A 
ATOM      5  C   UNL     1      44.213   4.193  10.727  0.00  0.00    +0.000 A 
ATOM      6  C   UNL     1      45.426   4.791  11.109  0.00  0.00    +0.000 A 
ENDROOT
BRANCH   1  11
ATOM      7  C   UNL     1      48.377   6.722  14.285  0.00  0.00    +0.000 A 
ATOM      8  C   UNL     1      49.140   7.495  13.411  0.00  0.00    +0.000 A 
ATOM      9  C   UNL     1      48.699   7.673  12.107  0.00  0.00    +0.000 A 
ATOM     10  C   UNL     1      47.512   7.072  11.702  0.00  0.00    +0.000 A 
ATOM     11  C   UNL     1      46.787   6.298  12.607  0.00  0.00    +0.000 A 
ATOM     12  N   UNL     1      47.206   6.136  13.889  0.00  0.00    +0.000 NA
BRANCH   7  14
ATOM     13  F   UNL     1      48.303   5.415  16.313  0.00  0.00    +0.000 F 
ATOM     14  C   UNL     1      48.845   6.523  15.720  0.00  0.00    +0.000 C 
ATOM     15  F   UNL     1      48.524   7.562  16.542  0.00  0.00    +0.000 F 
ATOM     16  F   UNL     1      50.195   6.360  15.825  0.00  0.00    +0.000 F 
ENDBRANCH   7  14
ENDBRANCH   1  11
BRANCH   5  17
ATOM     17  C   UNL     1      44.133   3.379   9.458  0.00  0.00    +0.000 C 
BRANCH  17  18
ATOM     18  O   UNL     1      44.991   2.250   9.561  0.00  0.00    +0.000 OA
BRANCH  18  19
ATOM     19  C   UNL     1      45.820   2.164   8.463  0.00  0.00    +0.000 A 
ATOM     20  N   UNL     1      45.981   3.304   7.777  0.00  0.00    +0.000 NA
ATOM     21  C   UNL     1      46.777   3.233   6.694  0.00  0.00    +0.000 A 
ATOM     22  C   UNL     1      47.413   2.082   6.292  0.00  0.00    +0.000 A 
ATOM     23  C   UNL     1      47.191   0.976   7.075  0.00  0.00    +0.000 A 
ATOM     24  N   UNL     1      46.398   0.987   8.162  0.00  0.00    +0.000 NA
ENDBRANCH  18  19
ENDBRANCH  17  18
ENDBRANCH   5  17
TORSDOF 5
ENDMDL
MODEL 4
REMARK VINA RESULT:    -7.660      4.622      5.488
REMARK INTER + INTRA:         -10.630
REMARK INTER:                  -9.916
REMARK INTRA:                  -0.714
REMARK UNBOUND:                -0.732
REMARK  Name = 
REMARK  5 active torsions:
REMARK  status: ('A' for Active; 'I' for Inactive)
REMARK    1  A    between atoms: C_2  and  C_5
REMARK    2  A    between atoms: C_9  and  C_10
REMARK    3  A    between atoms: C_14  and  C_15
REMARK    4  A    between atoms: C_15  and  O_16
REMARK    5  A    between atoms: O_16  and  C_17
REMARK                            x       y       z     vdW  Elec       q    Type
REMARK                         _______ _______ _______ _____ _____    ______ ____
ROOT
ATOM      1  C   UNL     1      45.505   6.142  11.952  0.00  0.00    +0.000 A 
ATOM      2  C   UNL     1      45.924   5.442  13.098  0.00  0.00    +0.000 A 
ATOM      3  C   UNL     1      45.833   4.049  13.175  0.00  0.00    +0.000 A 
ATOM      4  C   UNL     1      45.307   3.323  12.110  0.00  0.00    +0.000 A 
ATOM      5  C   UNL     1      44.868   3.983  10.959  0.00  0.00    +0.000 A 
ATOM      6  C   UNL     1      45.000   5.380  10.880  0.00  0.00    +0.000 A 
ENDROOT
BRANCH   1  11
ATOM      7  C   UNL     1      44.505   9.617  11.283  0.00  0.00    +0.000 A 
ATOM      8  C   UNL     1      45.591  10.373  11.722  0.00  0.00    +0.000 A 
ATOM      9  C   UNL     1      46.697   9.722  12.247  0.00  0.00    +0.000 A 
ATOM     10  C   UNL     1      46.696   8.333  12.328  0.00  0.00    +0.000 A 
ATOM     11  C   UNL     1      45.583   7.618  11.887  0.00  0.00    +0.000 A 
ATOM     12  N   UNL     1      44.505   8.251  11.356  0.00  0.00    +0.000 NA
BRANCH   7  14
ATOM     13  F   UNL     1      43.504  10.822   9.446  0.00  0.00    +0.000 F 
ATOM     14  C   UNL     1      43.285  10.317  10.699  0.00  0.00    +0.000 C 
ATOM     15  F   UNL     1      42.862  11.378  11.443  0.00  0.00    +0.000 F 
ATOM     16  F   UNL     1      42.206   9.493  10.568  0.00  0.00    +0.000 F 
ENDBRANCH   7  14
ENDBRANCH   1  11
BRANCH   5  17
ATOM     17  C   UNL     1      44.245   3.212   9.820  0.00  0.00    +0.000 C 
BRANCH  17  18
ATOM     18  O   UNL     1      44.998   2.032   9.574  0.00  0.00    +0.000 OA
BRANCH  18  19
ATOM     19  C   UNL     1      45.773   2.172   8.443  0.00  0.00    +0.000 A 
ATOM     20  N   UNL     1      46.497   1.096   8.109  0.00  0.00    +0.000 NA
ATOM     21  C   UNL     1      47.271   1.221   7.014  0.00  0.00    +0.000 A 
ATOM     22  C   UNL     1      47.331   2.365   6.254  0.00  0.00    +0.000 A 
ATOM     23  C   UNL     1      46.538   3.403   6.678  0.00  0.00    +0.000 A 
ATOM     24  N   UNL     1      45.753   3.336   7.769  0.00  0.00    +0.000 NA
ENDBRANCH  18  19
ENDBRANCH  17  18
ENDBRANCH   5  17
TORSDOF 5
ENDMDL
MODEL 5
REMARK VINA RESULT:    -7.480      3.688      4.444
REMARK INTER + INTRA:         -10.398
REMARK INTER:                  -9.606
REMARK INTRA:                  -0.791
REMARK UNBOUND:                -0.732
REMARK  Name = 
REMARK  5 active torsions:
REMARK  status: ('A' for Active; 'I' for Inactive)
REMARK    1  A    between atoms: C_2  and  C_5
REMARK    2  A    between atoms: C_9  and  C_10
REMARK    3  A    between atoms: C_14  and  C_15
REMARK    4  A    between atoms: C_15  and  O_16
REMARK    5  A    between atoms: O_16  and  C_17
REMARK                            x       y       z     vdW  Elec       q    Type
REMARK                         _______ _______ _______ _____ _____    ______ ____
ROOT
ATOM      1  C   UNL     1      46.333   6.126  11.986  0.00  0.00    +0.000 A 
ATOM      2  C   UNL     1      46.295   5.323  13.140  0.00  0.00    +0.000 A 
ATOM      3  C   UNL     1      45.621   4.098  13.155  0.00  0.00    +0.000 A 
ATOM      4  C   UNL     1      44.955   3.653  12.016  0.00  0.00    +0.000 A 
ATOM      5  C   UNL     1      44.959   4.428  10.852  0.00  0.00    +0.000 A 
ATOM      6  C   UNL     1      45.672   5.639  10.841  0.00  0.00    +0.000 A 
ENDROOT
BRANCH   1  11
ATOM      7  C   UNL     1      49.069   8.570  11.725  0.00  0.00    +0.000 A 
ATOM      8  C   UNL     1      48.448   9.799  11.941  0.00  0.00    +0.000 A 
ATOM      9  C   UNL     1      47.084   9.830  12.193  0.00  0.00    +0.000 A 
ATOM     10  C   UNL     1      46.368   8.637  12.218  0.00  0.00    +0.000 A 
ATOM     11  C   UNL     1      47.029   7.431  11.985  0.00  0.00    +0.000 A 
ATOM     12  N   UNL     1      48.367   7.396  11.756  0.00  0.00    +0.000 NA
BRANCH   7  14
ATOM     13  F   UNL     1      50.959   7.371  10.821  0.00  0.00    +0.000 F 
ATOM     14  C   UNL     1      50.566   8.519  11.453  0.00  0.00    +0.000 C 
ATOM     15  F   UNL     1      51.324   8.581  12.586  0.00  0.00    +0.000 F 
ATOM     16  F   UNL     1      51.000   9.534  10.652  0.00  0.00    +0.000 F 
ENDBRANCH   7  14
ENDBRANCH   1  11
BRANCH   5  17
ATOM     17  C   UNL     1      44.196   3.982   9.628  0.00  0.00    +0.000 C 
BRANCH  17  18
ATOM     18  O   UNL     1      44.461   2.610   9.374  0.00  0.00    +0.000 OA
BRANCH  18  19
ATOM     19  C   UNL     1      45.428   2.469   8.401  0.00  0.00    +0.000 A 
ATOM     20  N   UNL     1      46.071   1.294   8.399  0.00  0.00    +0.000 NA
ATOM     21  C   UNL     1      47.028   1.147   7.463  0.00  0.00    +0.000 A 
ATOM     22  C   UNL     1      47.345   2.117   6.542  0.00  0.00    +0.000 A 
ATOM     23  C   UNL     1      46.614   3.277   6.624  0.00  0.00    +0.000 A 
ATOM     24  N   UNL     1      45.653   3.481   7.544  0.00  0.00    +0.000 NA
ENDBRANCH  18  19
ENDBRANCH  17  18
ENDBRANCH   5  17
TORSDOF 5
ENDMDL
MODEL 6
REMARK VINA RESULT:    -7.221      4.075      7.703
REMARK INTER + INTRA:         -10.064
REMARK INTER:                  -9.274
REMARK INTRA:                  -0.790
REMARK UNBOUND:                -0.732
REMARK  Name = 
REMARK  5 active torsions:
REMARK  status: ('A' for Active; 'I' for Inactive)
REMARK    1  A    between atoms: C_2  and  C_5
REMARK    2  A    between atoms: C_9  and  C_10
REMARK    3  A    between atoms: C_14  and  C_15
REMARK    4  A    between atoms: C_15  and  O_16
REMARK    5  A    between atoms: O_16  and  C_17
REMARK                            x       y       z     vdW  Elec       q    Type
REMARK                         _______ _______ _______ _____ _____    ______ ____
ROOT
ATOM      1  C   UNL     1      45.528   6.441  11.742  0.00  0.00    +0.000 A 
ATOM      2  C   UNL     1      44.855   7.664  11.570  0.00  0.00    +0.000 A 
ATOM      3  C   UNL     1      45.281   8.829  12.216  0.00  0.00    +0.000 A 
ATOM      4  C   UNL     1      46.386   8.794  13.062  0.00  0.00    +0.000 A 
ATOM      5  C   UNL     1      47.075   7.596  13.269  0.00  0.00    +0.000 A 
ATOM      6  C   UNL     1      46.658   6.441  12.584  0.00  0.00    +0.000 A 
ENDROOT
BRANCH   1  11
ATOM      7  C   UNL     1      45.260   3.781   9.217  0.00  0.00    +0.000 A 
ATOM      8  C   UNL     1      44.283   2.927   9.727  0.00  0.00    +0.000 A 
ATOM      9  C   UNL     1      43.680   3.238  10.937  0.00  0.00    +0.000 A 
ATOM     10  C   UNL     1      44.068   4.389  11.615  0.00  0.00    +0.000 A 
ATOM     11  C   UNL     1      45.058   5.208  11.074  0.00  0.00    +0.000 A 
ATOM     12  N   UNL     1      45.637   4.916   9.880  0.00  0.00    +0.000 NA
BRANCH   7  14
ATOM     13  F   UNL     1      46.614   2.274   7.905  0.00  0.00    +0.000 F 
ATOM     14  C   UNL     1      45.926   3.456   7.887  0.00  0.00    +0.000 C 
ATOM     15  F   UNL     1      46.835   4.394   7.494  0.00  0.00    +0.000 F 
ATOM     16  F   UNL     1      45.038   3.337   6.859  0.00  0.00    +0.000 F 
ENDBRANCH   7  14
ENDBRANCH   1  11
BRANCH   5  17
ATOM     17  C   UNL     1      48.241   7.533  14.226  0.00  0.00    +0.000 C 
BRANCH  17  18
ATOM     18  O   UNL     1      48.662   6.185  14.377  0.00  0.00    +0.000 OA
BRANCH  18  19
ATOM     19  C   UNL     1      48.319   5.701  15.622  0.00  0.00    +0.000 A 
ATOM     20  N   UNL     1      47.631   4.550  15.618  0.00  0.00    +0.000 NA
ATOM     21  C   UNL     1      47.276   4.072  16.825  0.00  0.00    +0.000 A 
ATOM     22  C   UNL     1      47.591   4.692  18.011  0.00  0.00    +0.000 A 
ATOM     23  C   UNL     1      48.310   5.858  17.900  0.00  0.00    +0.000 A 
ATOM     24  N   UNL     1      48.684   6.386  16.720  0.00  0.00    +0.000 NA
ENDBRANCH  18  19
ENDBRANCH  17  18
ENDBRANCH   5  17
TORSDOF 5
ENDMDL
MODEL 7
REMARK VINA RESULT:    -7.183      2.053      2.997
REMARK INTER + INTRA:         -10.014
REMARK INTER:                  -9.328
REMARK INTRA:                  -0.686
REMARK UNBOUND:                -0.732
REMARK  Name = 
REMARK  5 active torsions:
REMARK  status: ('A' for Active; 'I' for Inactive)
REMARK    1  A    between atoms: C_2  and  C_5
REMARK    2  A    between atoms: C_9  and  C_10
REMARK    3  A    between atoms: C_14  and  C_15
REMARK    4  A    between atoms: C_15  and  O_16
REMARK    5  A    between atoms: O_16  and  C_17
REMARK                            x       y       z     vdW  Elec       q    Type
REMARK                         _______ _______ _______ _____ _____    ______ ____
ROOT
ATOM      1  C   UNL     1      46.844   5.408  13.687  0.00  0.00    +0.000 A 
ATOM      2  C   UNL     1      47.152   6.628  13.057  0.00  0.00    +0.000 A 
ATOM      3  C   UNL     1      46.561   6.991  11.843  0.00  0.00    +0.000 A 
ATOM      4  C   UNL     1      45.656   6.135  11.223  0.00  0.00    +0.000 A 
ATOM      5  C   UNL     1      45.332   4.909  11.810  0.00  0.00    +0.000 A 
ATOM      6  C   UNL     1      45.905   4.573  13.049  0.00  0.00    +0.000 A 
ENDROOT
BRANCH   1  11
ATOM      7  C   UNL     1      49.090   5.561  16.595  0.00  0.00    +0.000 A 
ATOM      8  C   UNL     1      48.768   4.423  17.332  0.00  0.00    +0.000 A 
ATOM      9  C   UNL     1      47.787   3.566  16.855  0.00  0.00    +0.000 A 
ATOM     10  C   UNL     1      47.144   3.864  15.658  0.00  0.00    +0.000 A 
ATOM     11  C   UNL     1      47.491   5.020  14.960  0.00  0.00    +0.000 A 
ATOM     12  N   UNL     1      48.463   5.852  15.414  0.00  0.00    +0.000 NA
BRANCH   7  14
ATOM     13  F   UNL     1      51.438   6.047  16.878  0.00  0.00    +0.000 F 
ATOM     14  C   UNL     1      50.169   6.508  17.102  0.00  0.00    +0.000 C 
ATOM     15  F   UNL     1      50.102   6.735  18.445  0.00  0.00    +0.000 F 
ATOM     16  F   UNL     1      50.125   7.736  16.509  0.00  0.00    +0.000 F 
ENDBRANCH   7  14
ENDBRANCH   1  11
BRANCH   5  17
ATOM     17  C   UNL     1      44.394   3.948  11.121  0.00  0.00    +0.000 C 
BRANCH  17  18
ATOM     18  O   UNL     1      44.214   4.344   9.768  0.00  0.00    +0.000 OA
BRANCH  18  19
ATOM     19  C   UNL     1      45.067   3.648   8.937  0.00  0.00    +0.000 A 
ATOM     20  N   UNL     1      45.126   2.327   9.156  0.00  0.00    +0.000 NA
ATOM     21  C   UNL     1      45.964   1.635   8.362  0.00  0.00    +0.000 A 
ATOM     22  C   UNL     1      46.721   2.212   7.370  0.00  0.00    +0.000 A 
ATOM     23  C   UNL     1      46.573   3.569   7.222  0.00  0.00    +0.000 A 
ATOM     24  N   UNL     1      45.757   4.312   7.993  0.00  0.00    +0.000 NA
ENDBRANCH  18  19
ENDBRANCH  17  18
ENDBRANCH   5  17
TORSDOF 5
ENDMDL
MODEL 8
REMARK VINA RESULT:    -6.793      4.104      7.953
REMARK INTER + INTRA:          -9.510
REMARK INTER:                  -8.696
REMARK INTRA:                  -0.814
REMARK UNBOUND:                -0.732
REMARK  Name = 
REMARK  5 active torsions:
REMARK  status: ('A' for Active; 'I' for Inactive)
REMARK    1  A    between atoms: C_2  and  C_5
REMARK    2  A    between atoms: C_9  and  C_10
REMARK    3  A    between atoms: C_14  and  C_15
REMARK    4  A    between atoms: C_15  and  O_16
REMARK    5  A    between atoms: O_16  and  C_17
REMARK                            x       y       z     vdW  Elec       q    Type
REMARK                         _______ _______ _______ _____ _____    ______ ____
ROOT
ATOM      1  C   UNL     1      45.689   6.402  12.348  0.00  0.00    +0.000 A 
ATOM      2  C   UNL     1      45.074   7.667  12.337  0.00  0.00    +0.000 A 
ATOM      3  C   UNL     1      45.695   8.785  12.902  0.00  0.00    +0.000 A 
ATOM      4  C   UNL     1      46.944   8.660  13.504  0.00  0.00    +0.000 A 
ATOM      5  C   UNL     1      47.582   7.418  13.547  0.00  0.00    +0.000 A 
ATOM      6  C   UNL     1      46.963   6.311  12.942  0.00  0.00    +0.000 A 
ENDROOT
BRANCH   1  11
ATOM      7  C   UNL     1      44.866   3.738   9.950  0.00  0.00    +0.000 A 
ATOM      8  C   UNL     1      43.852   3.017  10.578  0.00  0.00    +0.000 A 
ATOM      9  C   UNL     1      43.412   3.423  11.830  0.00  0.00    +0.000 A 
ATOM     10  C   UNL     1      43.995   4.535  12.430  0.00  0.00    +0.000 A 
ATOM     11  C   UNL     1      45.015   5.219  11.769  0.00  0.00    +0.000 A 
ATOM     12  N   UNL     1      45.436   4.835  10.535  0.00  0.00    +0.000 NA
BRANCH   7  14
ATOM     13  F   UNL     1      44.342   3.152   7.667  0.00  0.00    +0.000 F 
ATOM     14  C   UNL     1      45.355   3.308   8.574  0.00  0.00    +0.000 C 
ATOM     15  F   UNL     1      46.016   2.115   8.582  0.00  0.00    +0.000 F 
ATOM     16  F   UNL     1      46.208   4.208   8.004  0.00  0.00    +0.000 F 
ENDBRANCH   7  14
ENDBRANCH   1  11
BRANCH   5  17
ATOM     17  C   UNL     1      48.911   7.259  14.245  0.00  0.00    +0.000 C 
BRANCH  17  18
ATOM     18  O   UNL     1      48.943   6.017  14.935  0.00  0.00    +0.000 OA
BRANCH  18  19
ATOM     19  C   UNL     1      48.600   6.184  16.260  0.00  0.00    +0.000 A 
ATOM     20  N   UNL     1      48.054   5.111  16.849  0.00  0.00    +0.000 NA
ATOM     21  C   UNL     1      47.701   5.263  18.139  0.00  0.00    +0.000 A 
ATOM     22  C   UNL     1      47.884   6.428  18.845  0.00  0.00    +0.000 A 
ATOM     23  C   UNL     1      48.465   7.460  18.149  0.00  0.00    +0.000 A 
ATOM     24  N   UNL     1      48.829   7.367  16.857  0.00  0.00    +0.000 NA
ENDBRANCH  18  19
ENDBRANCH  17  18
ENDBRANCH   5  17
TORSDOF 5
ENDMDL
MODEL 9
REMARK VINA RESULT:    -6.702      2.442      4.212
REMARK INTER + INTRA:          -9.393
REMARK INTER:                  -8.506
REMARK INTRA:                  -0.886
REMARK UNBOUND:                -0.732
REMARK  Name = 
REMARK  5 active torsions:
REMARK  status: ('A' for Active; 'I' for Inactive)
REMARK    1  A    between atoms: C_2  and  C_5
REMARK    2  A    between atoms: C_9  and  C_10
REMARK    3  A    between atoms: C_14  and  C_15
REMARK    4  A    between atoms: C_15  and  O_16
REMARK    5  A    between atoms: O_16  and  C_17
REMARK                            x       y       z     vdW  Elec       q    Type
REMARK                         _______ _______ _______ _____ _____    ______ ____
ROOT
ATOM      1  C   UNL     1      48.460   6.828  14.175  0.00  0.00    +0.000 A 
ATOM      2  C   UNL     1      49.552   7.311  13.432  0.00  0.00    +0.000 A 
ATOM      3  C   UNL     1      49.409   7.709  12.099  0.00  0.00    +0.000 A 
ATOM      4  C   UNL     1      48.170   7.619  11.472  0.00  0.00    +0.000 A 
ATOM      5  C   UNL     1      47.062   7.132  12.172  0.00  0.00    +0.000 A 
ATOM      6  C   UNL     1      47.212   6.772  13.522  0.00  0.00    +0.000 A 
ENDROOT
BRANCH   1  11
ATOM      7  C   UNL     1      48.462   4.614  17.111  0.00  0.00    +0.000 A 
ATOM      8  C   UNL     1      48.901   5.431  18.152  0.00  0.00    +0.000 A 
ATOM      9  C   UNL     1      49.197   6.760  17.886  0.00  0.00    +0.000 A 
ATOM     10  C   UNL     1      49.055   7.244  16.589  0.00  0.00    +0.000 A 
ATOM     11  C   UNL     1      48.624   6.388  15.577  0.00  0.00    +0.000 A 
ATOM     12  N   UNL     1      48.316   5.090  15.837  0.00  0.00    +0.000 NA
BRANCH   7  14
ATOM     13  F   UNL     1      46.783   2.918  17.471  0.00  0.00    +0.000 F 
ATOM     14  C   UNL     1      48.128   3.155  17.388  0.00  0.00    +0.000 C 
ATOM     15  F   UNL     1      48.645   2.694  18.563  0.00  0.00    +0.000 F 
ATOM     16  F   UNL     1      48.580   2.309  16.418  0.00  0.00    +0.000 F 
ENDBRANCH   7  14
ENDBRANCH   1  11
BRANCH   5  17
ATOM     17  C   UNL     1      45.725   6.979  11.488  0.00  0.00    +0.000 C 
BRANCH  17  18
ATOM     18  O   UNL     1      45.782   5.901  10.564  0.00  0.00    +0.000 OA
BRANCH  18  19
ATOM     19  C   UNL     1      44.947   4.876  10.955  0.00  0.00    +0.000 A 
ATOM     20  N   UNL     1      44.928   3.812  10.142  0.00  0.00    +0.000 NA
ATOM     21  C   UNL     1      44.106   2.808  10.503  0.00  0.00    +0.000 A 
ATOM     22  C   UNL     1      43.328   2.833  11.636  0.00  0.00    +0.000 A 
ATOM     23  C   UNL     1      43.436   3.966  12.406  0.00  0.00    +0.000 A 
ATOM     24  N   UNL     1      44.233   5.002  12.088  0.00  0.00    +0.000 NA
ENDBRANCH  18  19
ENDBRANCH  17  18
ENDBRANCH   5  17
TORSDOF 5
ENDMDL
