MODEL 1
REMARK VINA RESULT:    -8.419      0.000      0.000
REMARK INTER + INTRA:         -12.125
REMARK INTER:                 -10.880
REMARK INTRA:                  -1.245
REMARK UNBOUND:                -1.245
REMARK  Name = 
REMARK  6 active torsions:
REMARK  status: ('A' for Active; 'I' for Inactive)
REMARK    1  A    between atoms: C_1  and  C_2
REMARK    2  A    between atoms: N_5  and  C_6
REMARK    3  A    between atoms: C_8  and  C_9
REMARK    4  A    between atoms: C_9  and  N_10
REMARK    5  A    between atoms: N_10  and  C_11
REMARK    6  A    between atoms: C_14  and  C_15
REMARK                            x       y       z     vdW  Elec       q    Type
REMARK                         _______ _______ _______ _____ _____    ______ ____
ROOT
ATOM      1  C   UNL     1      46.680   6.626  12.507  0.00  0.00    +0.000 A 
ATOM      2  C   UNL     1      45.476   6.332  11.835  0.00  0.00    +0.000 A 
ATOM      3  C   UNL     1      44.727   5.163  12.083  0.00  0.00    +0.000 A 
ATOM      4  C   UNL     1      45.168   4.285  13.080  0.00  0.00    +0.000 A 
ATOM      5  C   UNL     1      46.346   4.553  13.774  0.00  0.00    +0.000 A 
ATOM      6  C   UNL     1      47.088   5.698  13.484  0.00  0.00    +0.000 A 
ATOM      7  F   UNL     1      48.202   5.904  14.203  0.00  0.00    +0.000 F 
ENDROOT
BRANCH   1  12
ATOM      8  C   UNL     1      50.726  10.083  13.600  0.00  0.00    +0.000 C 
ATOM      9  C   UNL     1      49.557   9.592  12.751  0.00  0.00    +0.000 C 
ATOM     10  C   UNL     1      49.834   8.184  12.203  0.00  0.00    +0.000 C 
ATOM     11  C   UNL     1      48.648   7.672  11.389  0.00  0.00    +0.000 C 
ATOM     12  N   UNL     1      47.415   7.754  12.177  0.00  0.00    +0.000 N 
ATOM     13  C   UNL     1      47.078   9.065  12.733  0.00  0.00    +0.000 C 
ATOM     14  C   UNL     1      48.253   9.591  13.560  0.00  0.00    +0.000 C 
ENDBRANCH   1  12
BRANCH   3  15
ATOM     15  C   UNL     1      43.503   4.845  11.245  0.00  0.00    +0.000 C 
BRANCH  15  16
ATOM     16  N   UNL     1      43.782   4.995   9.825  0.00  0.00    +0.000 N 
ATOM     17  H   UNL     1      42.947   5.208   9.281  0.00  0.00    +0.000 HD
BRANCH  16  18
ATOM     18  C   UNL     1      44.603   4.077   9.154  0.00  0.00    +0.000 A 
ATOM     19  C   UNL     1      44.575   2.693   9.362  0.00  0.00    +0.000 A 
ATOM     20  C   UNL     1      45.461   1.842   8.684  0.00  0.00    +0.000 A 
ATOM     21  C   UNL     1      46.419   2.360   7.805  0.00  0.00    +0.000 A 
ATOM     22  C   UNL     1      46.491   3.741   7.623  0.00  0.00    +0.000 A 
ATOM     23  C   UNL     1      45.599   4.583   8.305  0.00  0.00    +0.000 A 
BRANCH  21  24
ATOM     24  C   UNL     1      47.357   1.419   7.145  0.00  0.00    +0.000 C 
ATOM     25  N   UNL     1      48.400   1.952   6.433  0.00  0.00    +0.000 N 
ATOM     26  O   UNL     1      47.202   0.204   7.201  0.00  0.00    +0.000 OA
ATOM     27  H   UNL     1      48.490   2.934   6.221  0.00  0.00    +0.000 HD
ATOM     28  H   UNL     1      48.997   1.299   5.940  0.00  0.00    +0.000 HD
ENDBRANCH  21  24
ENDBRANCH  16  18
ENDBRANCH  15  16
ENDBRANCH   3  15
TORSDOF 5
ENDMDL
MODEL 2
REMARK VINA RESULT:    -7.903      2.427      3.704
REMARK INTER + INTRA:         -11.458
REMARK INTER:                 -10.951
REMARK INTRA:                  -0.506
REMARK UNBOUND:                -1.245
REMARK  Name = 
REMARK  6 active torsions:
REMARK  status: ('A' for Active; 'I' for Inactive)
REMARK    1  A    between atoms: C_1  and  C_2
REMARK    2  A    between atoms: N_5  and  C_6
REMARK    3  A    between atoms: C_8  and  C_9
REMARK    4  A    between atoms: C_9  and  N_10
REMARK    5  A    between atoms: N_10  and  C_11
REMARK    6  A    between atoms: C_14  and  C_15
REMARK                            x       y       z     vdW  Elec       q    Type
REMARK                         _______ _______ _______ _____ _____    ______ ____
ROOT
ATOM      1  C   UNL     1      47.153   5.140  14.403  0.00  0.00    +0.000 A 
ATOM      2  C   UNL     1      46.037   4.579  13.750  0.00  0.00    +0.000 A 
ATOM      3  C   UNL     1      45.587   5.021  12.489  0.00  0.00    +0.000 A 
ATOM      4  C   UNL     1      46.313   6.020  11.831  0.00  0.00    +0.000 A 
ATOM      5  C   UNL     1      47.431   6.586  12.442  0.00  0.00    +0.000 A 
ATOM      6  C   UNL     1      47.834   6.157  13.706  0.00  0.00    +0.000 A 
ATOM      7  F   UNL     1      48.929   6.732  14.227  0.00  0.00    +0.000 F 
ENDROOT
BRANCH   1  12
ATOM      8  C   UNL     1      50.863   3.071  17.791  0.00  0.00    +0.000 C 
ATOM      9  C   UNL     1      49.475   3.620  17.475  0.00  0.00    +0.000 C 
ATOM     10  C   UNL     1      49.561   5.073  16.986  0.00  0.00    +0.000 C 
ATOM     11  C   UNL     1      48.177   5.612  16.628  0.00  0.00    +0.000 C 
ATOM     12  N   UNL     1      47.514   4.718  15.674  0.00  0.00    +0.000 N 
ATOM     13  C   UNL     1      47.390   3.314  16.067  0.00  0.00    +0.000 C 
ATOM     14  C   UNL     1      48.768   2.754  16.422  0.00  0.00    +0.000 C 
ENDBRANCH   1  12
BRANCH   3  15
ATOM     15  C   UNL     1      44.311   4.458  11.891  0.00  0.00    +0.000 C 
BRANCH  15  16
ATOM     16  N   UNL     1      44.230   4.734  10.465  0.00  0.00    +0.000 N 
ATOM     17  H   UNL     1      43.275   4.906  10.151  0.00  0.00    +0.000 HD
BRANCH  16  18
ATOM     18  C   UNL     1      44.933   3.946   9.541  0.00  0.00    +0.000 A 
ATOM     19  C   UNL     1      44.990   2.548   9.577  0.00  0.00    +0.000 A 
ATOM     20  C   UNL     1      45.752   1.831   8.643  0.00  0.00    +0.000 A 
ATOM     21  C   UNL     1      46.502   2.499   7.667  0.00  0.00    +0.000 A 
ATOM     22  C   UNL     1      46.492   3.894   7.647  0.00  0.00    +0.000 A 
ATOM     23  C   UNL     1      45.725   4.602   8.586  0.00  0.00    +0.000 A 
BRANCH  21  24
ATOM     24  C   UNL     1      47.322   1.694   6.729  0.00  0.00    +0.000 C 
ATOM     25  N   UNL     1      48.314   2.338   6.035  0.00  0.00    +0.000 N 
ATOM     26  O   UNL     1      47.113   0.500   6.547  0.00  0.00    +0.000 OA
ATOM     27  H   UNL     1      48.432   3.339   6.024  0.00  0.00    +0.000 HD
ATOM     28  H   UNL     1      48.826   1.788   5.357  0.00  0.00    +0.000 HD
ENDBRANCH  21  24
ENDBRANCH  16  18
ENDBRANCH  15  16
ENDBRANCH   3  15
TORSDOF 5
ENDMDL
MODEL 3
REMARK VINA RESULT:    -7.897      1.421      2.334
REMARK INTER + INTRA:         -11.451
REMARK INTER:                 -10.358
REMARK INTRA:                  -1.092
REMARK UNBOUND:                -1.245
REMARK  Name = 
REMARK  6 active torsions:
REMARK  status: ('A' for Active; 'I' for Inactive)
REMARK    1  A    between atoms: C_1  and  C_2
REMARK    2  A    between atoms: N_5  and  C_6
REMARK    3  A    between atoms: C_8  and  C_9
REMARK    4  A    between atoms: C_9  and  N_10
REMARK    5  A    between atoms: N_10  and  C_11
REMARK    6  A    between atoms: C_14  and  C_15
REMARK                            x       y       z     vdW  Elec       q    Type
REMARK                         _______ _______ _______ _____ _____    ______ ____
ROOT
ATOM      1  C   UNL     1      46.842   7.237  12.388  0.00  0.00    +0.000 A 
ATOM      2  C   UNL     1      46.018   6.160  12.003  0.00  0.00    +0.000 A 
ATOM      3  C   UNL     1      44.708   6.337  11.511  0.00  0.00    +0.000 A 
ATOM      4  C   UNL     1      44.226   7.640  11.344  0.00  0.00    +0.000 A 
ATOM      5  C   UNL     1      45.021   8.729  11.701  0.00  0.00    +0.000 A 
ATOM      6  C   UNL     1      46.300   8.525  12.219  0.00  0.00    +0.000 A 
ATOM      7  F   UNL     1      47.017   9.618  12.524  0.00  0.00    +0.000 F 
ENDROOT
BRANCH   1  12
ATOM      8  C   UNL     1      51.276   9.087  14.925  0.00  0.00    +0.000 C 
ATOM      9  C   UNL     1      50.451   7.981  14.274  0.00  0.00    +0.000 C 
ATOM     10  C   UNL     1      49.129   7.771  15.026  0.00  0.00    +0.000 C 
ATOM     11  C   UNL     1      48.281   6.694  14.351  0.00  0.00    +0.000 C 
ATOM     12  N   UNL     1      48.097   7.007  12.931  0.00  0.00    +0.000 N 
ATOM     13  C   UNL     1      49.312   7.219  12.143  0.00  0.00    +0.000 C 
ATOM     14  C   UNL     1      50.170   8.301  12.799  0.00  0.00    +0.000 C 
ENDBRANCH   1  12
BRANCH   3  15
ATOM     15  C   UNL     1      43.828   5.135  11.225  0.00  0.00    +0.000 C 
BRANCH  15  16
ATOM     16  N   UNL     1      43.731   4.880   9.796  0.00  0.00    +0.000 N 
ATOM     17  H   UNL     1      42.781   4.662   9.499  0.00  0.00    +0.000 HD
BRANCH  16  18
ATOM     18  C   UNL     1      44.665   4.057   9.149  0.00  0.00    +0.000 A 
ATOM     19  C   UNL     1      45.619   4.513   8.232  0.00  0.00    +0.000 A 
ATOM     20  C   UNL     1      46.491   3.621   7.591  0.00  0.00    +0.000 A 
ATOM     21  C   UNL     1      46.409   2.244   7.830  0.00  0.00    +0.000 A 
ATOM     22  C   UNL     1      45.433   1.769   8.707  0.00  0.00    +0.000 A 
ATOM     23  C   UNL     1      44.566   2.671   9.343  0.00  0.00    +0.000 A 
BRANCH  21  24
ATOM     24  C   UNL     1      47.329   1.341   7.096  0.00  0.00    +0.000 C 
ATOM     25  N   UNL     1      48.373   1.911   6.415  0.00  0.00    +0.000 N 
ATOM     26  O   UNL     1      47.157   0.127   7.065  0.00  0.00    +0.000 OA
ATOM     27  H   UNL     1      48.475   2.904   6.274  0.00  0.00    +0.000 HD
ATOM     28  H   UNL     1      48.957   1.287   5.871  0.00  0.00    +0.000 HD
ENDBRANCH  21  24
ENDBRANCH  16  18
ENDBRANCH  15  16
ENDBRANCH   3  15
TORSDOF 5
ENDMDL
MODEL 4
REMARK VINA RESULT:    -7.393      4.075      7.943
REMARK INTER + INTRA:         -10.798
REMARK INTER:                 -10.130
REMARK INTRA:                  -0.669
REMARK UNBOUND:                -1.245
REMARK  Name = 
REMARK  6 active torsions:
REMARK  status: ('A' for Active; 'I' for Inactive)
REMARK    1  A    between atoms: C_1  and  C_2
REMARK    2  A    between atoms: N_5  and  C_6
REMARK    3  A    between atoms: C_8  and  C_9
REMARK    4  A    between atoms: C_9  and  N_10
REMARK    5  A    between atoms: N_10  and  C_11
REMARK    6  A    between atoms: C_14  and  C_15
REMARK                            x       y       z     vdW  Elec       q    Type
REMARK                         _______ _______ _______ _____ _____    ______ ____
ROOT
ATOM      1  C   UNL     1      44.663   3.877  10.729  0.00  0.00    +0.000 A 
ATOM      2  C   UNL     1      45.560   4.842  11.231  0.00  0.00    +0.000 A 
ATOM      3  C   UNL     1      45.440   5.399  12.521  0.00  0.00    +0.000 A 
ATOM      4  C   UNL     1      44.421   4.933  13.360  0.00  0.00    +0.000 A 
ATOM      5  C   UNL     1      43.526   3.968  12.900  0.00  0.00    +0.000 A 
ATOM      6  C   UNL     1      43.644   3.460  11.606  0.00  0.00    +0.000 A 
ATOM      7  F   UNL     1      42.760   2.521  11.235  0.00  0.00    +0.000 F 
ENDROOT
BRANCH   1  12
ATOM      8  C   UNL     1      47.760   2.033   6.663  0.00  0.00    +0.000 C 
ATOM      9  C   UNL     1      46.418   2.435   7.268  0.00  0.00    +0.000 C 
ATOM     10  C   UNL     1      46.079   1.552   8.478  0.00  0.00    +0.000 C 
ATOM     11  C   UNL     1      44.757   1.980   9.112  0.00  0.00    +0.000 C 
ATOM     12  N   UNL     1      44.783   3.411   9.428  0.00  0.00    +0.000 N 
ATOM     13  C   UNL     1      45.097   4.321   8.326  0.00  0.00    +0.000 C 
ATOM     14  C   UNL     1      46.423   3.913   7.683  0.00  0.00    +0.000 C 
ENDBRANCH   1  12
BRANCH   3  15
ATOM     15  C   UNL     1      46.365   6.517  12.961  0.00  0.00    +0.000 C 
BRANCH  15  16
ATOM     16  N   UNL     1      47.644   5.995  13.421  0.00  0.00    +0.000 N 
ATOM     17  H   UNL     1      48.003   5.254  12.821  0.00  0.00    +0.000 HD
BRANCH  16  18
ATOM     18  C   UNL     1      47.851   5.697  14.776  0.00  0.00    +0.000 A 
ATOM     19  C   UNL     1      48.618   6.478  15.648  0.00  0.00    +0.000 A 
ATOM     20  C   UNL     1      48.817   6.091  16.982  0.00  0.00    +0.000 A 
ATOM     21  C   UNL     1      48.278   4.893  17.466  0.00  0.00    +0.000 A 
ATOM     22  C   UNL     1      47.550   4.080  16.596  0.00  0.00    +0.000 A 
ATOM     23  C   UNL     1      47.356   4.479  15.265  0.00  0.00    +0.000 A 
BRANCH  21  24
ATOM     24  C   UNL     1      48.552   4.510  18.873  0.00  0.00    +0.000 C 
ATOM     25  N   UNL     1      48.332   3.206  19.234  0.00  0.00    +0.000 N 
ATOM     26  O   UNL     1      48.934   5.327  19.703  0.00  0.00    +0.000 OA
ATOM     27  H   UNL     1      47.873   2.530  18.643  0.00  0.00    +0.000 HD
ATOM     28  H   UNL     1      48.467   2.975  20.210  0.00  0.00    +0.000 HD
ENDBRANCH  21  24
ENDBRANCH  16  18
ENDBRANCH  15  16
ENDBRANCH   3  15
TORSDOF 5
ENDMDL
MODEL 5
REMARK VINA RESULT:    -7.391      3.089      7.096
REMARK INTER + INTRA:         -10.796
REMARK INTER:                 -10.166
REMARK INTRA:                  -0.631
REMARK UNBOUND:                -1.245
REMARK  Name = 
REMARK  6 active torsions:
REMARK  status: ('A' for Active; 'I' for Inactive)
REMARK    1  A    between atoms: C_1  and  C_2
REMARK    2  A    between atoms: N_5  and  C_6
REMARK    3  A    between atoms: C_8  and  C_9
REMARK    4  A    between atoms: C_9  and  N_10
REMARK    5  A    between atoms: N_10  and  C_11
REMARK    6  A    between atoms: C_14  and  C_15
REMARK                            x       y       z     vdW  Elec       q    Type
REMARK                         _______ _______ _______ _____ _____    ______ ____
ROOT
ATOM      1  C   UNL     1      44.455   3.695  10.509  0.00  0.00    +0.000 A 
ATOM      2  C   UNL     1      45.024   4.926  10.892  0.00  0.00    +0.000 A 
ATOM      3  C   UNL     1      44.801   5.511  12.156  0.00  0.00    +0.000 A 
ATOM      4  C   UNL     1      44.027   4.812  13.090  0.00  0.00    +0.000 A 
ATOM      5  C   UNL     1      43.462   3.585  12.748  0.00  0.00    +0.000 A 
ATOM      6  C   UNL     1      43.667   3.045  11.479  0.00  0.00    +0.000 A 
ATOM      7  F   UNL     1      43.109   1.852  11.224  0.00  0.00    +0.000 F 
ENDROOT
BRANCH   1  12
ATOM      8  C   UNL     1      47.809   2.142   6.527  0.00  0.00    +0.000 C 
ATOM      9  C   UNL     1      46.420   2.373   7.114  0.00  0.00    +0.000 C 
ATOM     10  C   UNL     1      46.203   1.503   8.361  0.00  0.00    +0.000 C 
ATOM     11  C   UNL     1      44.830   1.763   8.976  0.00  0.00    +0.000 C 
ATOM     12  N   UNL     1      44.648   3.195   9.230  0.00  0.00    +0.000 N 
ATOM     13  C   UNL     1      44.834   4.092   8.089  0.00  0.00    +0.000 C 
ATOM     14  C   UNL     1      46.210   3.852   7.464  0.00  0.00    +0.000 C 
ENDBRANCH   1  12
BRANCH   3  15
ATOM     15  C   UNL     1      45.345   6.892  12.467  0.00  0.00    +0.000 C 
BRANCH  15  16
ATOM     16  N   UNL     1      46.398   6.832  13.469  0.00  0.00    +0.000 N 
ATOM     17  H   UNL     1      46.118   7.243  14.359  0.00  0.00    +0.000 HD
BRANCH  16  18
ATOM     18  C   UNL     1      47.718   7.176  13.144  0.00  0.00    +0.000 A 
ATOM     19  C   UNL     1      48.733   7.392  14.084  0.00  0.00    +0.000 A 
ATOM     20  C   UNL     1      50.020   7.778  13.682  0.00  0.00    +0.000 A 
ATOM     21  C   UNL     1      50.315   7.988  12.330  0.00  0.00    +0.000 A 
ATOM     22  C   UNL     1      49.302   7.822  11.385  0.00  0.00    +0.000 A 
ATOM     23  C   UNL     1      48.018   7.434  11.798  0.00  0.00    +0.000 A 
BRANCH  21  24
ATOM     24  C   UNL     1      51.682   8.435  11.964  0.00  0.00    +0.000 C 
ATOM     25  N   UNL     1      52.715   8.067  12.786  0.00  0.00    +0.000 N 
ATOM     26  O   UNL     1      51.892   9.135  10.979  0.00  0.00    +0.000 OA
ATOM     27  H   UNL     1      52.587   7.630  13.686  0.00  0.00    +0.000 HD
ATOM     28  H   UNL     1      53.632   8.428  12.555  0.00  0.00    +0.000 HD
ENDBRANCH  21  24
ENDBRANCH  16  18
ENDBRANCH  15  16
ENDBRANCH   3  15
TORSDOF 5
ENDMDL
MODEL 6
REMARK VINA RESULT:    -6.329      4.088      6.585
REMARK INTER + INTRA:          -9.424
REMARK INTER:                  -8.295
REMARK INTRA:                  -1.129
REMARK UNBOUND:                -1.245
REMARK  Name = 
REMARK  6 active torsions:
REMARK  status: ('A' for Active; 'I' for Inactive)
REMARK    1  A    between atoms: C_1  and  C_2
REMARK    2  A    between atoms: N_5  and  C_6
REMARK    3  A    between atoms: C_8  and  C_9
REMARK    4  A    between atoms: C_9  and  N_10
REMARK    5  A    between atoms: N_10  and  C_11
REMARK    6  A    between atoms: C_14  and  C_15
REMARK                            x       y       z     vdW  Elec       q    Type
REMARK                         _______ _______ _______ _____ _____    ______ ____
ROOT
ATOM      1  C   UNL     1      48.889   6.923  16.947  0.00  0.00    +0.000 A 
ATOM      2  C   UNL     1      49.143   6.990  15.562  0.00  0.00    +0.000 A 
ATOM      3  C   UNL     1      48.899   8.149  14.796  0.00  0.00    +0.000 A 
ATOM      4  C   UNL     1      48.439   9.298  15.448  0.00  0.00    +0.000 A 
ATOM      5  C   UNL     1      48.192   9.271  16.819  0.00  0.00    +0.000 A 
ATOM      6  C   UNL     1      48.406   8.101  17.549  0.00  0.00    +0.000 A 
ATOM      7  F   UNL     1      48.165   8.150  18.868  0.00  0.00    +0.000 F 
ENDROOT
BRANCH   1  12
ATOM      8  C   UNL     1      50.543   1.749  17.056  0.00  0.00    +0.000 C 
ATOM      9  C   UNL     1      49.952   2.995  17.708  0.00  0.00    +0.000 C 
ATOM     10  C   UNL     1      50.958   4.155  17.678  0.00  0.00    +0.000 C 
ATOM     11  C   UNL     1      50.354   5.417  18.291  0.00  0.00    +0.000 C 
ATOM     12  N   UNL     1      49.080   5.739  17.644  0.00  0.00    +0.000 N 
ATOM     13  C   UNL     1      48.065   4.685  17.632  0.00  0.00    +0.000 C 
ATOM     14  C   UNL     1      48.649   3.414  17.013  0.00  0.00    +0.000 C 
ENDBRANCH   1  12
BRANCH   3  15
ATOM     15  C   UNL     1      49.082   8.123  13.290  0.00  0.00    +0.000 C 
BRANCH  15  16
ATOM     16  N   UNL     1      48.631   6.859  12.725  0.00  0.00    +0.000 N 
ATOM     17  H   UNL     1      49.035   6.673  11.808  0.00  0.00    +0.000 HD
BRANCH  16  18
ATOM     18  C   UNL     1      47.277   6.498  12.766  0.00  0.00    +0.000 A 
ATOM     19  C   UNL     1      46.795   5.297  13.299  0.00  0.00    +0.000 A 
ATOM     20  C   UNL     1      45.428   4.986  13.264  0.00  0.00    +0.000 A 
ATOM     21  C   UNL     1      44.511   5.858  12.664  0.00  0.00    +0.000 A 
ATOM     22  C   UNL     1      44.982   7.038  12.086  0.00  0.00    +0.000 A 
ATOM     23  C   UNL     1      46.352   7.339  12.129  0.00  0.00    +0.000 A 
BRANCH  21  24
ATOM     24  C   UNL     1      43.082   5.462  12.617  0.00  0.00    +0.000 C 
ATOM     25  N   UNL     1      42.257   6.152  11.768  0.00  0.00    +0.000 N 
ATOM     26  O   UNL     1      42.634   4.571  13.330  0.00  0.00    +0.000 OA
ATOM     27  H   UNL     1      42.530   6.990  11.278  0.00  0.00    +0.000 HD
ATOM     28  H   UNL     1      41.274   5.909  11.791  0.00  0.00    +0.000 HD
ENDBRANCH  21  24
ENDBRANCH  16  18
ENDBRANCH  15  16
ENDBRANCH   3  15
TORSDOF 5
ENDMDL
MODEL 7
REMARK VINA RESULT:    -6.018      5.130      8.040
REMARK INTER + INTRA:          -9.022
REMARK INTER:                  -8.403
REMARK INTRA:                  -0.619
REMARK UNBOUND:                -1.245
REMARK  Name = 
REMARK  6 active torsions:
REMARK  status: ('A' for Active; 'I' for Inactive)
REMARK    1  A    between atoms: C_1  and  C_2
REMARK    2  A    between atoms: N_5  and  C_6
REMARK    3  A    between atoms: C_8  and  C_9
REMARK    4  A    between atoms: C_9  and  N_10
REMARK    5  A    between atoms: N_10  and  C_11
REMARK    6  A    between atoms: C_14  and  C_15
REMARK                            x       y       z     vdW  Elec       q    Type
REMARK                         _______ _______ _______ _____ _____    ______ ____
ROOT
ATOM      1  C   UNL     1      47.603   6.281  13.056  0.00  0.00    +0.000 A 
ATOM      2  C   UNL     1      47.646   6.093  14.452  0.00  0.00    +0.000 A 
ATOM      3  C   UNL     1      48.667   6.627  15.265  0.00  0.00    +0.000 A 
ATOM      4  C   UNL     1      49.648   7.427  14.668  0.00  0.00    +0.000 A 
ATOM      5  C   UNL     1      49.627   7.645  13.291  0.00  0.00    +0.000 A 
ATOM      6  C   UNL     1      48.627   7.075  12.504  0.00  0.00    +0.000 A 
ATOM      7  F   UNL     1      48.656   7.342  11.189  0.00  0.00    +0.000 F 
ENDROOT
BRANCH   1  12
ATOM      8  C   UNL     1      42.344   5.497  11.937  0.00  0.00    +0.000 C 
ATOM      9  C   UNL     1      43.831   5.254  11.694  0.00  0.00    +0.000 C 
ATOM     10  C   UNL     1      44.542   6.562  11.316  0.00  0.00    +0.000 C 
ATOM     11  C   UNL     1      46.039   6.331  11.114  0.00  0.00    +0.000 C 
ATOM     12  N   UNL     1      46.616   5.677  12.291  0.00  0.00    +0.000 N 
ATOM     13  C   UNL     1      45.995   4.422  12.716  0.00  0.00    +0.000 C 
ATOM     14  C   UNL     1      44.496   4.635  12.931  0.00  0.00    +0.000 C 
ENDBRANCH   1  12
BRANCH   3  15
ATOM     15  C   UNL     1      48.723   6.292  16.743  0.00  0.00    +0.000 C 
BRANCH  15  16
ATOM     16  N   UNL     1      48.506   4.871  16.971  0.00  0.00    +0.000 N 
ATOM     17  H   UNL     1      47.719   4.689  17.592  0.00  0.00    +0.000 HD
BRANCH  16  18
ATOM     18  C   UNL     1      49.582   4.017  17.252  0.00  0.00    +0.000 A 
ATOM     19  C   UNL     1      50.851   4.450  17.652  0.00  0.00    +0.000 A 
ATOM     20  C   UNL     1      51.892   3.535  17.872  0.00  0.00    +0.000 A 
ATOM     21  C   UNL     1      51.695   2.165  17.665  0.00  0.00    +0.000 A 
ATOM     22  C   UNL     1      50.449   1.722  17.220  0.00  0.00    +0.000 A 
ATOM     23  C   UNL     1      49.415   2.646  17.005  0.00  0.00    +0.000 A 
BRANCH  21  24
ATOM     24  C   UNL     1      52.841   1.245  17.873  0.00  0.00    +0.000 C 
ATOM     25  N   UNL     1      53.030   0.244  16.955  0.00  0.00    +0.000 N 
ATOM     26  O   UNL     1      53.584   1.346  18.842  0.00  0.00    +0.000 OA
ATOM     27  H   UNL     1      52.367   0.015  16.231  0.00  0.00    +0.000 HD
ATOM     28  H   UNL     1      53.780  -0.410  17.143  0.00  0.00    +0.000 HD
ENDBRANCH  21  24
ENDBRANCH  16  18
ENDBRANCH  15  16
ENDBRANCH   3  15
TORSDOF 5
ENDMDL
MODEL 8
REMARK VINA RESULT:    -5.442      5.096      8.154
REMARK INTER + INTRA:          -8.278
REMARK INTER:                  -7.369
REMARK INTRA:                  -0.908
REMARK UNBOUND:                -1.245
REMARK  Name = 
REMARK  6 active torsions:
REMARK  status: ('A' for Active; 'I' for Inactive)
REMARK    1  A    between atoms: C_1  and  C_2
REMARK    2  A    between atoms: N_5  and  C_6
REMARK    3  A    between atoms: C_8  and  C_9
REMARK    4  A    between atoms: C_9  and  N_10
REMARK    5  A    between atoms: N_10  and  C_11
REMARK    6  A    between atoms: C_14  and  C_15
REMARK                            x       y       z     vdW  Elec       q    Type
REMARK                         _______ _______ _______ _____ _____    ______ ____
ROOT
ATOM      1  C   UNL     1      48.301   7.217  13.681  0.00  0.00    +0.000 A 
ATOM      2  C   UNL     1      48.792   7.236  15.003  0.00  0.00    +0.000 A 
ATOM      3  C   UNL     1      50.114   7.610  15.322  0.00  0.00    +0.000 A 
ATOM      4  C   UNL     1      50.957   8.036  14.289  0.00  0.00    +0.000 A 
ATOM      5  C   UNL     1      50.499   8.043  12.973  0.00  0.00    +0.000 A 
ATOM      6  C   UNL     1      49.198   7.633  12.679  0.00  0.00    +0.000 A 
ATOM      7  F   UNL     1      48.817   7.683  11.393  0.00  0.00    +0.000 F 
ENDROOT
BRANCH   1  12
ATOM      8  C   UNL     1      44.757   4.839  10.319  0.00  0.00    +0.000 C 
ATOM      9  C   UNL     1      45.130   5.516  11.634  0.00  0.00    +0.000 C 
ATOM     10  C   UNL     1      46.190   4.699  12.388  0.00  0.00    +0.000 C 
ATOM     11  C   UNL     1      46.597   5.396  13.684  0.00  0.00    +0.000 C 
ATOM     12  N   UNL     1      47.015   6.774  13.412  0.00  0.00    +0.000 N 
ATOM     13  C   UNL     1      46.059   7.621  12.698  0.00  0.00    +0.000 C 
ATOM     14  C   UNL     1      45.645   6.942  11.391  0.00  0.00    +0.000 C 
ENDBRANCH   1  12
BRANCH   3  15
ATOM     15  C   UNL     1      50.618   7.498  16.748  0.00  0.00    +0.000 C 
BRANCH  15  16
ATOM     16  N   UNL     1      49.952   6.418  17.460  0.00  0.00    +0.000 N 
ATOM     17  H   UNL     1      49.632   6.697  18.387  0.00  0.00    +0.000 HD
BRANCH  16  18
ATOM     18  C   UNL     1      50.500   5.127  17.480  0.00  0.00    +0.000 A 
ATOM     19  C   UNL     1      49.748   3.948  17.435  0.00  0.00    +0.000 A 
ATOM     20  C   UNL     1      50.367   2.691  17.504  0.00  0.00    +0.000 A 
ATOM     21  C   UNL     1      51.755   2.585  17.654  0.00  0.00    +0.000 A 
ATOM     22  C   UNL     1      52.515   3.751  17.748  0.00  0.00    +0.000 A 
ATOM     23  C   UNL     1      51.884   5.004  17.676  0.00  0.00    +0.000 A 
BRANCH  21  24
ATOM     24  C   UNL     1      52.354   1.232  17.762  0.00  0.00    +0.000 C 
ATOM     25  N   UNL     1      51.535   0.200  18.141  0.00  0.00    +0.000 N 
ATOM     26  O   UNL     1      53.546   1.033  17.553  0.00  0.00    +0.000 OA
ATOM     27  H   UNL     1      50.592   0.327  18.476  0.00  0.00    +0.000 HD
ATOM     28  H   UNL     1      51.971  -0.705  18.268  0.00  0.00    +0.000 HD
ENDBRANCH  21  24
ENDBRANCH  16  18
ENDBRANCH  15  16
ENDBRANCH   3  15
TORSDOF 5
ENDMDL
