MODEL 1
REMARK VINA RESULT:    -7.416      0.000      0.000
REMARK INTER + INTRA:         -10.900
REMARK INTER:                 -10.234
REMARK INTRA:                  -0.666
REMARK UNBOUND:                -0.666
REMARK  Name = 
REMARK  7 active torsions:
REMARK  status: ('A' for Active; 'I' for Inactive)
REMARK    1  A    between atoms: N_1  and  C_2
REMARK    2  A    between atoms: C_2  and  C_3
REMARK    3  A    between atoms: C_6  and  S_7
REMARK    4  A    between atoms: S_7  and  C_8
REMARK    5  A    between atoms: C_8  and  C_9
REMARK    6  A    between atoms: C_9  and  C_10
REMARK    7  A    between atoms: C_12  and  C_13
REMARK                            x       y       z     vdW  Elec       q    Type
REMARK                         _______ _______ _______ _____ _____    ______ ____
ROOT
ATOM      1  C   UNL     1      43.046   4.062  11.364  0.00  0.00    +0.000 C 
ENDROOT
BRANCH   1   2
ATOM      2  S   UNL     1      43.281   4.442  13.142  0.00  0.00    +0.000 S 
BRANCH   2   6
ATOM      3  C   UNL     1      47.398   6.372  13.009  0.00  0.00    +0.000 A 
ATOM      4  C   UNL     1      46.331   6.993  12.352  0.00  0.00    +0.000 A 
ATOM      5  C   UNL     1      45.061   6.412  12.385  0.00  0.00    +0.000 A 
ATOM      6  C   UNL     1      44.890   5.218  13.076  0.00  0.00    +0.000 A 
ATOM      7  N   UNL     1      45.908   4.597  13.710  0.00  0.00    +0.000 NA
ATOM      8  C   UNL     1      47.124   5.182  13.666  0.00  0.00    +0.000 A 
BRANCH   3   9
ATOM      9  C   UNL     1      48.789   6.938  12.993  0.00  0.00    +0.000 C 
BRANCH   9  10
ATOM     10  N   UNL     1      49.507   6.652  14.229  0.00  0.00    +0.000 NA
ATOM     11  H   UNL     1      50.470   6.968  14.135  0.00  0.00    +0.000 HD
ATOM     12  H   UNL     1      49.552   5.641  14.362  0.00  0.00    +0.000 HD
ENDBRANCH   9  10
ENDBRANCH   3   9
ENDBRANCH   2   6
ENDBRANCH   1   2
BRANCH   1  13
ATOM     13  C   UNL     1      43.795   2.798  10.957  0.00  0.00    +0.000 C 
BRANCH  13  14
ATOM     14  C   UNL     1      44.718   3.079   9.792  0.00  0.00    +0.000 A 
ATOM     15  C   UNL     1      45.363   2.041   9.125  0.00  0.00    +0.000 A 
ATOM     16  C   UNL     1      46.201   2.337   8.041  0.00  0.00    +0.000 A 
ATOM     17  C   UNL     1      46.355   3.675   7.663  0.00  0.00    +0.000 A 
ATOM     18  C   UNL     1      45.672   4.643   8.374  0.00  0.00    +0.000 A 
ATOM     19  N   UNL     1      44.862   4.373   9.420  0.00  0.00    +0.000 NA
BRANCH  16  20
ATOM     20  C   UNL     1      46.929   1.255   7.290  0.00  0.00    +0.000 C 
ATOM     21  F   UNL     1      48.285   1.373   7.342  0.00  0.00    +0.000 F 
ATOM     22  F   UNL     1      46.644   0.010   7.762  0.00  0.00    +0.000 F 
ATOM     23  F   UNL     1      46.608   1.234   5.967  0.00  0.00    +0.000 F 
ENDBRANCH  16  20
ENDBRANCH  13  14
ENDBRANCH   1  13
TORSDOF 7
ENDMDL
MODEL 2
REMARK VINA RESULT:    -7.373      3.948      6.687
REMARK INTER + INTRA:         -10.840
REMARK INTER:                 -10.496
REMARK INTRA:                  -0.344
REMARK UNBOUND:                -0.666
REMARK  Name = 
REMARK  7 active torsions:
REMARK  status: ('A' for Active; 'I' for Inactive)
REMARK    1  A    between atoms: N_1  and  C_2
REMARK    2  A    between atoms: C_2  and  C_3
REMARK    3  A    between atoms: C_6  and  S_7
REMARK    4  A    between atoms: S_7  and  C_8
REMARK    5  A    between atoms: C_8  and  C_9
REMARK    6  A    between atoms: C_9  and  C_10
REMARK    7  A    between atoms: C_12  and  C_13
REMARK                            x       y       z     vdW  Elec       q    Type
REMARK                         _______ _______ _______ _____ _____    ______ ____
ROOT
ATOM      1  C   UNL     1      43.402   3.470  11.397  0.00  0.00    +0.000 C 
ENDROOT
BRANCH   1   2
ATOM      2  S   UNL     1      43.753   4.693  10.078  0.00  0.00    +0.000 S 
BRANCH   2   6
ATOM      3  C   UNL     1      46.660   2.325   7.503  0.00  0.00    +0.000 A 
ATOM      4  C   UNL     1      45.913   1.658   8.479  0.00  0.00    +0.000 A 
ATOM      5  C   UNL     1      45.015   2.372   9.276  0.00  0.00    +0.000 A 
ATOM      6  C   UNL     1      44.890   3.742   9.079  0.00  0.00    +0.000 A 
ATOM      7  N   UNL     1      45.609   4.408   8.148  0.00  0.00    +0.000 NA
ATOM      8  C   UNL     1      46.465   3.694   7.388  0.00  0.00    +0.000 A 
BRANCH   3   9
ATOM      9  C   UNL     1      47.654   1.616   6.629  0.00  0.00    +0.000 C 
BRANCH   9  10
ATOM     10  N   UNL     1      48.749   2.490   6.229  0.00  0.00    +0.000 NA
ATOM     11  H   UNL     1      49.455   1.940   5.744  0.00  0.00    +0.000 HD
ATOM     12  H   UNL     1      49.203   2.861   7.064  0.00  0.00    +0.000 HD
ENDBRANCH   9  10
ENDBRANCH   3   9
ENDBRANCH   2   6
ENDBRANCH   1   2
BRANCH   1  13
ATOM     13  C   UNL     1      43.427   4.114  12.780  0.00  0.00    +0.000 C 
BRANCH  13  14
ATOM     14  C   UNL     1      44.759   4.786  13.029  0.00  0.00    +0.000 A 
ATOM     15  C   UNL     1      44.894   6.167  12.918  0.00  0.00    +0.000 A 
ATOM     16  C   UNL     1      46.141   6.757  13.168  0.00  0.00    +0.000 A 
ATOM     17  C   UNL     1      47.209   5.931  13.531  0.00  0.00    +0.000 A 
ATOM     18  C   UNL     1      46.987   4.570  13.628  0.00  0.00    +0.000 A 
ATOM     19  N   UNL     1      45.793   3.988  13.388  0.00  0.00    +0.000 NA
BRANCH  16  20
ATOM     20  C   UNL     1      46.345   8.244  13.054  0.00  0.00    +0.000 C 
ATOM     21  F   UNL     1      47.023   8.783  14.105  0.00  0.00    +0.000 F 
ATOM     22  F   UNL     1      47.049   8.590  11.940  0.00  0.00    +0.000 F 
ATOM     23  F   UNL     1      45.170   8.927  12.979  0.00  0.00    +0.000 F 
ENDBRANCH  16  20
ENDBRANCH  13  14
ENDBRANCH   1  13
TORSDOF 7
ENDMDL
MODEL 3
REMARK VINA RESULT:    -6.835      4.209      6.790
REMARK INTER + INTRA:         -10.099
REMARK INTER:                  -9.604
REMARK INTRA:                  -0.495
REMARK UNBOUND:                -0.666
REMARK  Name = 
REMARK  7 active torsions:
REMARK  status: ('A' for Active; 'I' for Inactive)
REMARK    1  A    between atoms: N_1  and  C_2
REMARK    2  A    between atoms: C_2  and  C_3
REMARK    3  A    between atoms: C_6  and  S_7
REMARK    4  A    between atoms: S_7  and  C_8
REMARK    5  A    between atoms: C_8  and  C_9
REMARK    6  A    between atoms: C_9  and  C_10
REMARK    7  A    between atoms: C_12  and  C_13
REMARK                            x       y       z     vdW  Elec       q    Type
REMARK                         _______ _______ _______ _____ _____    ______ ____
ROOT
ATOM      1  C   UNL     1      44.789   3.524  12.140  0.00  0.00    +0.000 C 
ENDROOT
BRANCH   1   2
ATOM      2  S   UNL     1      43.788   3.908  10.654  0.00  0.00    +0.000 S 
BRANCH   2   6
ATOM      3  C   UNL     1      46.618   2.380   7.437  0.00  0.00    +0.000 A 
ATOM      4  C   UNL     1      46.332   3.747   7.501  0.00  0.00    +0.000 A 
ATOM      5  C   UNL     1      45.465   4.231   8.485  0.00  0.00    +0.000 A 
ATOM      6  C   UNL     1      44.902   3.331   9.381  0.00  0.00    +0.000 A 
ATOM      7  N   UNL     1      45.158   2.004   9.332  0.00  0.00    +0.000 NA
ATOM      8  C   UNL     1      46.002   1.564   8.375  0.00  0.00    +0.000 A 
BRANCH   3   9
ATOM      9  C   UNL     1      47.526   1.798   6.392  0.00  0.00    +0.000 C 
BRANCH   9  10
ATOM     10  N   UNL     1      48.686   2.645   6.147  0.00  0.00    +0.000 NA
ATOM     11  H   UNL     1      49.534   2.100   6.297  0.00  0.00    +0.000 HD
ATOM     12  H   UNL     1      48.705   3.395   6.838  0.00  0.00    +0.000 HD
ENDBRANCH   9  10
ENDBRANCH   3   9
ENDBRANCH   2   6
ENDBRANCH   1   2
BRANCH   1  13
ATOM     13  C   UNL     1      44.686   4.628  13.187  0.00  0.00    +0.000 C 
BRANCH  13  14
ATOM     14  C   UNL     1      45.553   5.807  12.803  0.00  0.00    +0.000 A 
ATOM     15  C   UNL     1      44.984   7.031  12.461  0.00  0.00    +0.000 A 
ATOM     16  C   UNL     1      45.819   8.105  12.122  0.00  0.00    +0.000 A 
ATOM     17  C   UNL     1      47.203   7.908  12.147  0.00  0.00    +0.000 A 
ATOM     18  C   UNL     1      47.685   6.663  12.506  0.00  0.00    +0.000 A 
ATOM     19  N   UNL     1      46.894   5.619  12.833  0.00  0.00    +0.000 NA
BRANCH  16  20
ATOM     20  C   UNL     1      45.257   9.446  11.737  0.00  0.00    +0.000 C 
ATOM     21  F   UNL     1      44.447   9.404  10.643  0.00  0.00    +0.000 F 
ATOM     22  F   UNL     1      44.513  10.006  12.731  0.00  0.00    +0.000 F 
ATOM     23  F   UNL     1      46.230  10.353  11.444  0.00  0.00    +0.000 F 
ENDBRANCH  16  20
ENDBRANCH  13  14
ENDBRANCH   1  13
TORSDOF 7
ENDMDL
MODEL 4
REMARK VINA RESULT:    -6.781      4.243      7.071
REMARK INTER + INTRA:         -10.024
REMARK INTER:                  -9.635
REMARK INTRA:                  -0.389
REMARK UNBOUND:                -0.666
REMARK  Name = 
REMARK  7 active torsions:
REMARK  status: ('A' for Active; 'I' for Inactive)
REMARK    1  A    between atoms: N_1  and  C_2
REMARK    2  A    between atoms: C_2  and  C_3
REMARK    3  A    between atoms: C_6  and  S_7
REMARK    4  A    between atoms: S_7  and  C_8
REMARK    5  A    between atoms: C_8  and  C_9
REMARK    6  A    between atoms: C_9  and  C_10
REMARK    7  A    between atoms: C_12  and  C_13
REMARK                            x       y       z     vdW  Elec       q    Type
REMARK                         _______ _______ _______ _____ _____    ______ ____
ROOT
ATOM      1  C   UNL     1      45.236   3.572  12.171  0.00  0.00    +0.000 C 
ENDROOT
BRANCH   1   2
ATOM      2  S   UNL     1      43.918   3.231  10.944  0.00  0.00    +0.000 S 
BRANCH   2   6
ATOM      3  C   UNL     1      46.454   2.791   7.193  0.00  0.00    +0.000 A 
ATOM      4  C   UNL     1      46.023   4.063   7.580  0.00  0.00    +0.000 A 
ATOM      5  C   UNL     1      45.245   4.214   8.730  0.00  0.00    +0.000 A 
ATOM      6  C   UNL     1      44.913   3.082   9.466  0.00  0.00    +0.000 A 
ATOM      7  N   UNL     1      45.311   1.842   9.105  0.00  0.00    +0.000 NA
ATOM      8  C   UNL     1      46.066   1.725   7.992  0.00  0.00    +0.000 A 
BRANCH   3   9
ATOM      9  C   UNL     1      47.276   2.563   5.957  0.00  0.00    +0.000 C 
BRANCH   9  10
ATOM     10  N   UNL     1      48.499   1.825   6.245  0.00  0.00    +0.000 NA
ATOM     11  H   UNL     1      49.265   2.484   6.371  0.00  0.00    +0.000 HD
ATOM     12  H   UNL     1      48.745   1.255   5.435  0.00  0.00    +0.000 HD
ENDBRANCH   9  10
ENDBRANCH   3   9
ENDBRANCH   2   6
ENDBRANCH   1   2
BRANCH   1  13
ATOM     13  C   UNL     1      45.358   5.063  12.464  0.00  0.00    +0.000 C 
BRANCH  13  14
ATOM     14  C   UNL     1      46.399   5.311  13.533  0.00  0.00    +0.000 A 
ATOM     15  C   UNL     1      46.620   4.382  14.546  0.00  0.00    +0.000 A 
ATOM     16  C   UNL     1      47.602   4.639  15.512  0.00  0.00    +0.000 A 
ATOM     17  C   UNL     1      48.334   5.827  15.420  0.00  0.00    +0.000 A 
ATOM     18  C   UNL     1      48.057   6.692  14.377  0.00  0.00    +0.000 A 
ATOM     19  N   UNL     1      47.114   6.458  13.440  0.00  0.00    +0.000 NA
BRANCH  16  20
ATOM     20  C   UNL     1      47.876   3.673  16.633  0.00  0.00    +0.000 C 
ATOM     21  F   UNL     1      48.786   4.131  17.537  0.00  0.00    +0.000 F 
ATOM     22  F   UNL     1      46.756   3.373  17.349  0.00  0.00    +0.000 F 
ATOM     23  F   UNL     1      48.361   2.482  16.186  0.00  0.00    +0.000 F 
ENDBRANCH  16  20
ENDBRANCH  13  14
ENDBRANCH   1  13
TORSDOF 7
ENDMDL
MODEL 5
REMARK VINA RESULT:    -6.710      3.745      6.591
REMARK INTER + INTRA:          -9.926
REMARK INTER:                  -9.456
REMARK INTRA:                  -0.470
REMARK UNBOUND:                -0.666
REMARK  Name = 
REMARK  7 active torsions:
REMARK  status: ('A' for Active; 'I' for Inactive)
REMARK    1  A    between atoms: N_1  and  C_2
REMARK    2  A    between atoms: C_2  and  C_3
REMARK    3  A    between atoms: C_6  and  S_7
REMARK    4  A    between atoms: S_7  and  C_8
REMARK    5  A    between atoms: C_8  and  C_9
REMARK    6  A    between atoms: C_9  and  C_10
REMARK    7  A    between atoms: C_12  and  C_13
REMARK                            x       y       z     vdW  Elec       q    Type
REMARK                         _______ _______ _______ _____ _____    ______ ____
ROOT
ATOM      1  C   UNL     1      44.305   4.444  11.965  0.00  0.00    +0.000 C 
ENDROOT
BRANCH   1   2
ATOM      2  S   UNL     1      43.754   4.991  10.305  0.00  0.00    +0.000 S 
BRANCH   2   6
ATOM      3  C   UNL     1      46.462   2.452   7.677  0.00  0.00    +0.000 A 
ATOM      4  C   UNL     1      45.656   1.825   8.633  0.00  0.00    +0.000 A 
ATOM      5  C   UNL     1      44.818   2.593   9.446  0.00  0.00    +0.000 A 
ATOM      6  C   UNL     1      44.810   3.973   9.284  0.00  0.00    +0.000 A 
ATOM      7  N   UNL     1      45.588   4.599   8.373  0.00  0.00    +0.000 NA
ATOM      8  C   UNL     1      46.384   3.834   7.597  0.00  0.00    +0.000 A 
BRANCH   3   9
ATOM      9  C   UNL     1      47.396   1.683   6.787  0.00  0.00    +0.000 C 
BRANCH   9  10
ATOM     10  N   UNL     1      48.554   2.477   6.398  0.00  0.00    +0.000 NA
ATOM     11  H   UNL     1      49.362   1.864   6.304  0.00  0.00    +0.000 HD
ATOM     12  H   UNL     1      48.779   3.130   7.149  0.00  0.00    +0.000 HD
ENDBRANCH   9  10
ENDBRANCH   3   9
ENDBRANCH   2   6
ENDBRANCH   1   2
BRANCH   1  13
ATOM     13  C   UNL     1      45.804   4.654  12.155  0.00  0.00    +0.000 C 
BRANCH  13  14
ATOM     14  C   UNL     1      46.119   6.127  12.301  0.00  0.00    +0.000 A 
ATOM     15  C   UNL     1      47.373   6.626  11.960  0.00  0.00    +0.000 A 
ATOM     16  C   UNL     1      47.626   7.998  12.096  0.00  0.00    +0.000 A 
ATOM     17  C   UNL     1      46.600   8.822  12.566  0.00  0.00    +0.000 A 
ATOM     18  C   UNL     1      45.381   8.247  12.874  0.00  0.00    +0.000 A 
ATOM     19  N   UNL     1      45.123   6.927  12.750  0.00  0.00    +0.000 NA
BRANCH  16  20
ATOM     20  C   UNL     1      48.966   8.589  11.750  0.00  0.00    +0.000 C 
ATOM     21  F   UNL     1      49.715   8.915  12.839  0.00  0.00    +0.000 F 
ATOM     22  F   UNL     1      49.734   7.744  11.008  0.00  0.00    +0.000 F 
ATOM     23  F   UNL     1      48.857   9.732  11.018  0.00  0.00    +0.000 F 
ENDBRANCH  16  20
ENDBRANCH  13  14
ENDBRANCH   1  13
TORSDOF 7
ENDMDL
MODEL 6
REMARK VINA RESULT:    -6.660      2.486      3.968
REMARK INTER + INTRA:          -9.857
REMARK INTER:                  -9.077
REMARK INTRA:                  -0.779
REMARK UNBOUND:                -0.666
REMARK  Name = 
REMARK  7 active torsions:
REMARK  status: ('A' for Active; 'I' for Inactive)
REMARK    1  A    between atoms: N_1  and  C_2
REMARK    2  A    between atoms: C_2  and  C_3
REMARK    3  A    between atoms: C_6  and  S_7
REMARK    4  A    between atoms: S_7  and  C_8
REMARK    5  A    between atoms: C_8  and  C_9
REMARK    6  A    between atoms: C_9  and  C_10
REMARK    7  A    between atoms: C_12  and  C_13
REMARK                            x       y       z     vdW  Elec       q    Type
REMARK                         _______ _______ _______ _____ _____    ______ ____
ROOT
ATOM      1  C   UNL     1      45.648   7.353  12.686  0.00  0.00    +0.000 C 
ENDROOT
BRANCH   1   2
ATOM      2  S   UNL     1      47.439   6.971  12.613  0.00  0.00    +0.000 S 
BRANCH   2   6
ATOM      3  C   UNL     1      47.785   4.108  16.130  0.00  0.00    +0.000 A 
ATOM      4  C   UNL     1      47.045   3.723  15.007  0.00  0.00    +0.000 A 
ATOM      5  C   UNL     1      46.931   4.592  13.919  0.00  0.00    +0.000 A 
ATOM      6  C   UNL     1      47.560   5.829  13.983  0.00  0.00    +0.000 A 
ATOM      7  N   UNL     1      48.272   6.225  15.062  0.00  0.00    +0.000 NA
ATOM      8  C   UNL     1      48.370   5.365  16.097  0.00  0.00    +0.000 A 
BRANCH   3   9
ATOM      9  C   UNL     1      47.928   3.226  17.338  0.00  0.00    +0.000 C 
BRANCH   9  10
ATOM     10  N   UNL     1      46.639   2.734  17.808  0.00  0.00    +0.000 NA
ATOM     11  H   UNL     1      45.911   3.037  17.164  0.00  0.00    +0.000 HD
ATOM     12  H   UNL     1      46.423   3.170  18.705  0.00  0.00    +0.000 HD
ENDBRANCH   9  10
ENDBRANCH   3   9
ENDBRANCH   2   6
ENDBRANCH   1   2
BRANCH   1  13
ATOM     13  C   UNL     1      44.955   7.051  11.362  0.00  0.00    +0.000 C 
BRANCH  13  14
ATOM     14  C   UNL     1      44.518   5.603  11.309  0.00  0.00    +0.000 A 
ATOM     15  C   UNL     1      44.862   4.791  10.231  0.00  0.00    +0.000 A 
ATOM     16  C   UNL     1      44.451   3.452  10.222  0.00  0.00    +0.000 A 
ATOM     17  C   UNL     1      43.710   2.973  11.307  0.00  0.00    +0.000 A 
ATOM     18  C   UNL     1      43.419   3.844  12.341  0.00  0.00    +0.000 A 
ATOM     19  N   UNL     1      43.807   5.137  12.363  0.00  0.00    +0.000 NA
BRANCH  16  20
ATOM     20  C   UNL     1      44.788   2.533   9.079  0.00  0.00    +0.000 C 
ATOM     21  F   UNL     1      44.461   3.040   7.858  0.00  0.00    +0.000 F 
ATOM     22  F   UNL     1      46.117   2.240   9.019  0.00  0.00    +0.000 F 
ATOM     23  F   UNL     1      44.147   1.335   9.168  0.00  0.00    +0.000 F 
ENDBRANCH  16  20
ENDBRANCH  13  14
ENDBRANCH   1  13
TORSDOF 7
ENDMDL
MODEL 7
REMARK VINA RESULT:    -6.571      4.218      6.900
REMARK INTER + INTRA:          -9.734
REMARK INTER:                  -9.255
REMARK INTRA:                  -0.479
REMARK UNBOUND:                -0.666
REMARK  Name = 
REMARK  7 active torsions:
REMARK  status: ('A' for Active; 'I' for Inactive)
REMARK    1  A    between atoms: N_1  and  C_2
REMARK    2  A    between atoms: C_2  and  C_3
REMARK    3  A    between atoms: C_6  and  S_7
REMARK    4  A    between atoms: S_7  and  C_8
REMARK    5  A    between atoms: C_8  and  C_9
REMARK    6  A    between atoms: C_9  and  C_10
REMARK    7  A    between atoms: C_12  and  C_13
REMARK                            x       y       z     vdW  Elec       q    Type
REMARK                         _______ _______ _______ _____ _____    ______ ____
ROOT
ATOM      1  C   UNL     1      45.286   3.126  12.110  0.00  0.00    +0.000 C 
ENDROOT
BRANCH   1   2
ATOM      2  S   UNL     1      43.969   3.086  10.837  0.00  0.00    +0.000 S 
BRANCH   2   6
ATOM      3  C   UNL     1      46.538   2.787   7.096  0.00  0.00    +0.000 A 
ATOM      4  C   UNL     1      46.036   4.034   7.481  0.00  0.00    +0.000 A 
ATOM      5  C   UNL     1      45.246   4.141   8.629  0.00  0.00    +0.000 A 
ATOM      6  C   UNL     1      44.975   2.993   9.363  0.00  0.00    +0.000 A 
ATOM      7  N   UNL     1      45.443   1.777   9.004  0.00  0.00    +0.000 NA
ATOM      8  C   UNL     1      46.207   1.702   7.894  0.00  0.00    +0.000 A 
BRANCH   3   9
ATOM      9  C   UNL     1      47.377   2.606   5.863  0.00  0.00    +0.000 C 
BRANCH   9  10
ATOM     10  N   UNL     1      48.431   1.620   6.062  0.00  0.00    +0.000 NA
ATOM     11  H   UNL     1      48.726   1.639   7.037  0.00  0.00    +0.000 HD
ATOM     12  H   UNL     1      49.248   1.889   5.513  0.00  0.00    +0.000 HD
ENDBRANCH   9  10
ENDBRANCH   3   9
ENDBRANCH   2   6
ENDBRANCH   1   2
BRANCH   1  13
ATOM     13  C   UNL     1      45.061   4.250  13.116  0.00  0.00    +0.000 C 
BRANCH  13  14
ATOM     14  C   UNL     1      46.115   5.324  12.956  0.00  0.00    +0.000 A 
ATOM     15  C   UNL     1      46.998   5.618  13.991  0.00  0.00    +0.000 A 
ATOM     16  C   UNL     1      47.970   6.610  13.804  0.00  0.00    +0.000 A 
ATOM     17  C   UNL     1      48.021   7.270  12.571  0.00  0.00    +0.000 A 
ATOM     18  C   UNL     1      47.112   6.910  11.594  0.00  0.00    +0.000 A 
ATOM     19  N   UNL     1      46.170   5.958  11.760  0.00  0.00    +0.000 NA
BRANCH  16  20
ATOM     20  C   UNL     1      48.944   6.974  14.891  0.00  0.00    +0.000 C 
ATOM     21  F   UNL     1      50.226   7.107  14.452  0.00  0.00    +0.000 F 
ATOM     22  F   UNL     1      48.633   8.154  15.497  0.00  0.00    +0.000 F 
ATOM     23  F   UNL     1      48.986   6.045  15.885  0.00  0.00    +0.000 F 
ENDBRANCH  16  20
ENDBRANCH  13  14
ENDBRANCH   1  13
TORSDOF 7
ENDMDL
MODEL 8
REMARK VINA RESULT:    -6.503      4.200      7.226
REMARK INTER + INTRA:          -9.641
REMARK INTER:                  -9.184
REMARK INTRA:                  -0.457
REMARK UNBOUND:                -0.666
REMARK  Name = 
REMARK  7 active torsions:
REMARK  status: ('A' for Active; 'I' for Inactive)
REMARK    1  A    between atoms: N_1  and  C_2
REMARK    2  A    between atoms: C_2  and  C_3
REMARK    3  A    between atoms: C_6  and  S_7
REMARK    4  A    between atoms: S_7  and  C_8
REMARK    5  A    between atoms: C_8  and  C_9
REMARK    6  A    between atoms: C_9  and  C_10
REMARK    7  A    between atoms: C_12  and  C_13
REMARK                            x       y       z     vdW  Elec       q    Type
REMARK                         _______ _______ _______ _____ _____    ______ ____
ROOT
ATOM      1  C   UNL     1      44.565   4.679  11.842  0.00  0.00    +0.000 C 
ENDROOT
BRANCH   1   2
ATOM      2  S   UNL     1      43.672   4.751  10.244  0.00  0.00    +0.000 S 
BRANCH   2   6
ATOM      3  C   UNL     1      46.551   2.400   7.623  0.00  0.00    +0.000 A 
ATOM      4  C   UNL     1      45.791   1.722   8.580  0.00  0.00    +0.000 A 
ATOM      5  C   UNL     1      44.901   2.431   9.391  0.00  0.00    +0.000 A 
ATOM      6  C   UNL     1      44.797   3.807   9.226  0.00  0.00    +0.000 A 
ATOM      7  N   UNL     1      45.529   4.484   8.313  0.00  0.00    +0.000 NA
ATOM      8  C   UNL     1      46.377   3.774   7.539  0.00  0.00    +0.000 A 
BRANCH   3   9
ATOM      9  C   UNL     1      47.537   1.696   6.735  0.00  0.00    +0.000 C 
BRANCH   9  10
ATOM     10  N   UNL     1      48.564   2.602   6.236  0.00  0.00    +0.000 NA
ATOM     11  H   UNL     1      48.934   3.146   7.013  0.00  0.00    +0.000 HD
ATOM     12  H   UNL     1      48.136   3.274   5.598  0.00  0.00    +0.000 HD
ENDBRANCH   9  10
ENDBRANCH   3   9
ENDBRANCH   2   6
ENDBRANCH   1   2
BRANCH   1  13
ATOM     13  C   UNL     1      45.901   5.412  11.772  0.00  0.00    +0.000 C 
BRANCH  13  14
ATOM     14  C   UNL     1      46.619   5.336  13.101  0.00  0.00    +0.000 A 
ATOM     15  C   UNL     1      47.599   6.266  13.438  0.00  0.00    +0.000 A 
ATOM     16  C   UNL     1      48.235   6.172  14.683  0.00  0.00    +0.000 A 
ATOM     17  C   UNL     1      47.855   5.144  15.551  0.00  0.00    +0.000 A 
ATOM     18  C   UNL     1      46.866   4.268  15.142  0.00  0.00    +0.000 A 
ATOM     19  N   UNL     1      46.246   4.345  13.945  0.00  0.00    +0.000 NA
BRANCH  16  20
ATOM     20  C   UNL     1      49.307   7.144  15.095  0.00  0.00    +0.000 C 
ATOM     21  F   UNL     1      50.205   6.624  15.978  0.00  0.00    +0.000 F 
ATOM     22  F   UNL     1      50.040   7.592  14.038  0.00  0.00    +0.000 F 
ATOM     23  F   UNL     1      48.799   8.257  15.694  0.00  0.00    +0.000 F 
ENDBRANCH  16  20
ENDBRANCH  13  14
ENDBRANCH   1  13
TORSDOF 7
ENDMDL
MODEL 9
REMARK VINA RESULT:    -6.218      2.252      3.024
REMARK INTER + INTRA:          -9.247
REMARK INTER:                  -8.897
REMARK INTRA:                  -0.350
REMARK UNBOUND:                -0.666
REMARK  Name = 
REMARK  7 active torsions:
REMARK  status: ('A' for Active; 'I' for Inactive)
REMARK    1  A    between atoms: N_1  and  C_2
REMARK    2  A    between atoms: C_2  and  C_3
REMARK    3  A    between atoms: C_6  and  S_7
REMARK    4  A    between atoms: S_7  and  C_8
REMARK    5  A    between atoms: C_8  and  C_9
REMARK    6  A    between atoms: C_9  and  C_10
REMARK    7  A    between atoms: C_12  and  C_13
REMARK                            x       y       z     vdW  Elec       q    Type
REMARK                         _______ _______ _______ _____ _____    ______ ____
ROOT
ATOM      1  C   UNL     1      44.609   5.405  12.289  0.00  0.00    +0.000 C 
ENDROOT
BRANCH   1   2
ATOM      2  S   UNL     1      46.310   6.072  12.150  0.00  0.00    +0.000 S 
BRANCH   2   6
ATOM      3  C   UNL     1      47.920   4.775  16.202  0.00  0.00    +0.000 A 
ATOM      4  C   UNL     1      48.400   5.954  15.622  0.00  0.00    +0.000 A 
ATOM      5  C   UNL     1      47.913   6.365  14.379  0.00  0.00    +0.000 A 
ATOM      6  C   UNL     1      46.958   5.582  13.742  0.00  0.00    +0.000 A 
ATOM      7  N   UNL     1      46.487   4.434  14.280  0.00  0.00    +0.000 NA
ATOM      8  C   UNL     1      46.970   4.062  15.484  0.00  0.00    +0.000 A 
BRANCH   3   9
ATOM      9  C   UNL     1      48.418   4.271  17.527  0.00  0.00    +0.000 C 
BRANCH   9  10
ATOM     10  N   UNL     1      47.421   4.429  18.578  0.00  0.00    +0.000 NA
ATOM     11  H   UNL     1      47.302   3.540  19.061  0.00  0.00    +0.000 HD
ATOM     12  H   UNL     1      46.518   4.644  18.153  0.00  0.00    +0.000 HD
ENDBRANCH   9  10
ENDBRANCH   3   9
ENDBRANCH   2   6
ENDBRANCH   1   2
BRANCH   1  13
ATOM     13  C   UNL     1      43.901   5.390  10.938  0.00  0.00    +0.000 C 
BRANCH  13  14
ATOM     14  C   UNL     1      44.338   4.193  10.122  0.00  0.00    +0.000 A 
ATOM     15  C   UNL     1      45.264   4.331   9.092  0.00  0.00    +0.000 A 
ATOM     16  C   UNL     1      45.655   3.199   8.365  0.00  0.00    +0.000 A 
ATOM     17  C   UNL     1      45.102   1.961   8.708  0.00  0.00    +0.000 A 
ATOM     18  C   UNL     1      44.196   1.911   9.751  0.00  0.00    +0.000 A 
ATOM     19  N   UNL     1      43.808   2.993  10.459  0.00  0.00    +0.000 NA
BRANCH  16  20
ATOM     20  C   UNL     1      46.646   3.292   7.236  0.00  0.00    +0.000 C 
ATOM     21  F   UNL     1      47.670   2.399   7.335  0.00  0.00    +0.000 F 
ATOM     22  F   UNL     1      46.074   3.070   6.020  0.00  0.00    +0.000 F 
ATOM     23  F   UNL     1      47.229   4.519   7.155  0.00  0.00    +0.000 F 
ENDBRANCH  16  20
ENDBRANCH  13  14
ENDBRANCH   1  13
TORSDOF 7
ENDMDL
