MODEL 1
REMARK VINA RESULT:    -7.726      0.000      0.000
REMARK INTER + INTRA:          -9.848
REMARK INTER:                  -9.307
REMARK INTRA:                  -0.541
REMARK UNBOUND:                -0.541
REMARK  Name = 
REMARK  4 active torsions:
REMARK  status: ('A' for Active; 'I' for Inactive)
REMARK    1  A    between atoms: N_1  and  C_2
REMARK    2  A    between atoms: C_2  and  C_3
REMARK    3  A    between atoms: C_6  and  C_7
REMARK    4  A    between atoms: C_7  and  N_8
REMARK                            x       y       z     vdW  Elec       q    Type
REMARK                         _______ _______ _______ _____ _____    ______ ____
ROOT
ATOM      1  C   UNL     1      46.832   2.160   7.451  0.00  0.00    +0.000 A 
ATOM      2  C   UNL     1      45.936   1.555   8.343  0.00  0.00    +0.000 A 
ATOM      3  C   UNL     1      44.977   2.314   9.019  0.00  0.00    +0.000 A 
ATOM      4  C   UNL     1      44.890   3.698   8.818  0.00  0.00    +0.000 A 
ATOM      5  C   UNL     1      45.786   4.303   7.925  0.00  0.00    +0.000 A 
ATOM      6  C   UNL     1      46.744   3.542   7.247  0.00  0.00    +0.000 A 
ENDROOT
BRANCH   1   7
ATOM      7  C   UNL     1      47.902   1.344   6.769  0.00  0.00    +0.000 C 
BRANCH   7   8
ATOM      8  N   UNL     1      48.405   1.995   5.565  0.00  0.00    +0.000 NA
ATOM      9  H   UNL     1      49.024   1.353   5.075  0.00  0.00    +0.000 HD
ATOM     10  H   UNL     1      48.975   2.793   5.840  0.00  0.00    +0.000 HD
ENDBRANCH   7   8
ENDBRANCH   1   7
BRANCH   4  11
ATOM     11  C   UNL     1      43.852   4.519   9.539  0.00  0.00    +0.000 C 
BRANCH  11  12
ATOM     12  N   UNL     1      44.093   4.600  10.975  0.00  0.00    +0.000 N 
ATOM     13  C   UNL     1      43.374   3.900  11.919  0.00  0.00    +0.000 A 
ATOM     14  C   UNL     1      43.964   4.107  13.148  0.00  0.00    +0.000 A 
ATOM     15  C   UNL     1      45.080   4.950  12.944  0.00  0.00    +0.000 A 
ATOM     16  N   UNL     1      45.974   5.402  13.857  0.00  0.00    +0.000 NA
ATOM     17  C   UNL     1      46.946   6.190  13.355  0.00  0.00    +0.000 A 
ATOM     18  C   UNL     1      47.080   6.556  12.024  0.00  0.00    +0.000 A 
ATOM     19  C   UNL     1      46.158   6.087  11.092  0.00  0.00    +0.000 A 
ATOM     20  C   UNL     1      45.143   5.259  11.584  0.00  0.00    +0.000 A 
ENDBRANCH  11  12
ENDBRANCH   4  11
TORSDOF 4
ENDMDL
MODEL 2
REMARK VINA RESULT:    -7.415      1.127      1.976
REMARK INTER + INTRA:          -9.473
REMARK INTER:                  -8.938
REMARK INTRA:                  -0.535
REMARK UNBOUND:                -0.541
REMARK  Name = 
REMARK  4 active torsions:
REMARK  status: ('A' for Active; 'I' for Inactive)
REMARK    1  A    between atoms: N_1  and  C_2
REMARK    2  A    between atoms: C_2  and  C_3
REMARK    3  A    between atoms: C_6  and  C_7
REMARK    4  A    between atoms: C_7  and  N_8
REMARK                            x       y       z     vdW  Elec       q    Type
REMARK                         _______ _______ _______ _____ _____    ______ ____
ROOT
ATOM      1  C   UNL     1      46.483   2.235   7.508  0.00  0.00    +0.000 A 
ATOM      2  C   UNL     1      46.401   3.634   7.536  0.00  0.00    +0.000 A 
ATOM      3  C   UNL     1      45.535   4.283   8.421  0.00  0.00    +0.000 A 
ATOM      4  C   UNL     1      44.730   3.547   9.300  0.00  0.00    +0.000 A 
ATOM      5  C   UNL     1      44.812   2.147   9.272  0.00  0.00    +0.000 A 
ATOM      6  C   UNL     1      45.681   1.499   8.388  0.00  0.00    +0.000 A 
ENDROOT
BRANCH   1   7
ATOM      7  C   UNL     1      47.377   1.540   6.511  0.00  0.00    +0.000 C 
BRANCH   7   8
ATOM      8  N   UNL     1      48.520   2.363   6.133  0.00  0.00    +0.000 NA
ATOM      9  H   UNL     1      48.213   3.328   6.025  0.00  0.00    +0.000 HD
ATOM     10  H   UNL     1      48.850   2.062   5.217  0.00  0.00    +0.000 HD
ENDBRANCH   7   8
ENDBRANCH   1   7
BRANCH   4  11
ATOM     11  C   UNL     1      43.801   4.242  10.262  0.00  0.00    +0.000 C 
BRANCH  11  12
ATOM     12  N   UNL     1      44.499   5.147  11.168  0.00  0.00    +0.000 N 
ATOM     13  C   UNL     1      44.262   6.502  11.241  0.00  0.00    +0.000 A 
ATOM     14  C   UNL     1      44.991   7.009  12.295  0.00  0.00    +0.000 A 
ATOM     15  C   UNL     1      45.685   5.929  12.887  0.00  0.00    +0.000 A 
ATOM     16  N   UNL     1      46.504   5.944  13.967  0.00  0.00    +0.000 NA
ATOM     17  C   UNL     1      47.016   4.742  14.304  0.00  0.00    +0.000 A 
ATOM     18  C   UNL     1      46.774   3.548  13.641  0.00  0.00    +0.000 A 
ATOM     19  C   UNL     1      45.930   3.542  12.534  0.00  0.00    +0.000 A 
ATOM     20  C   UNL     1      45.377   4.774  12.167  0.00  0.00    +0.000 A 
ENDBRANCH  11  12
ENDBRANCH   4  11
TORSDOF 4
ENDMDL
MODEL 3
REMARK VINA RESULT:    -6.119      2.011      5.719
REMARK INTER + INTRA:          -7.912
REMARK INTER:                  -7.409
REMARK INTRA:                  -0.503
REMARK UNBOUND:                -0.541
REMARK  Name = 
REMARK  4 active torsions:
REMARK  status: ('A' for Active; 'I' for Inactive)
REMARK    1  A    between atoms: N_1  and  C_2
REMARK    2  A    between atoms: C_2  and  C_3
REMARK    3  A    between atoms: C_6  and  C_7
REMARK    4  A    between atoms: C_7  and  N_8
REMARK                            x       y       z     vdW  Elec       q    Type
REMARK                         _______ _______ _______ _____ _____    ______ ____
ROOT
ATOM      1  C   UNL     1      48.354   7.394  12.991  0.00  0.00    +0.000 A 
ATOM      2  C   UNL     1      47.547   8.240  12.218  0.00  0.00    +0.000 A 
ATOM      3  C   UNL     1      46.238   7.878  11.889  0.00  0.00    +0.000 A 
ATOM      4  C   UNL     1      45.703   6.659  12.328  0.00  0.00    +0.000 A 
ATOM      5  C   UNL     1      46.510   5.813  13.102  0.00  0.00    +0.000 A 
ATOM      6  C   UNL     1      47.819   6.178  13.433  0.00  0.00    +0.000 A 
ENDROOT
BRANCH   1   7
ATOM      7  C   UNL     1      49.784   7.766  13.294  0.00  0.00    +0.000 C 
BRANCH   7   8
ATOM      8  N   UNL     1      50.278   7.111  14.499  0.00  0.00    +0.000 NA
ATOM      9  H   UNL     1      50.989   6.430  14.239  0.00  0.00    +0.000 HD
ATOM     10  H   UNL     1      49.515   6.585  14.921  0.00  0.00    +0.000 HD
ENDBRANCH   7   8
ENDBRANCH   1   7
BRANCH   4  11
ATOM     11  C   UNL     1      44.289   6.267  11.983  0.00  0.00    +0.000 C 
BRANCH  11  12
ATOM     12  N   UNL     1      44.173   4.872  11.575  0.00  0.00    +0.000 N 
ATOM     13  C   UNL     1      43.449   3.924  12.264  0.00  0.00    +0.000 A 
ATOM     14  C   UNL     1      43.444   2.763  11.520  0.00  0.00    +0.000 A 
ATOM     15  C   UNL     1      44.177   3.016  10.338  0.00  0.00    +0.000 A 
ATOM     16  N   UNL     1      44.417   2.179   9.300  0.00  0.00    +0.000 NA
ATOM     17  C   UNL     1      45.147   2.714   8.300  0.00  0.00    +0.000 A 
ATOM     18  C   UNL     1      45.652   4.006   8.271  0.00  0.00    +0.000 A 
ATOM     19  C   UNL     1      45.400   4.859   9.342  0.00  0.00    +0.000 A 
ATOM     20  C   UNL     1      44.637   4.333  10.390  0.00  0.00    +0.000 A 
ENDBRANCH  11  12
ENDBRANCH   4  11
TORSDOF 4
ENDMDL
MODEL 4
REMARK VINA RESULT:    -5.864      1.398      5.936
REMARK INTER + INTRA:          -7.605
REMARK INTER:                  -7.075
REMARK INTRA:                  -0.530
REMARK UNBOUND:                -0.541
REMARK  Name = 
REMARK  4 active torsions:
REMARK  status: ('A' for Active; 'I' for Inactive)
REMARK    1  A    between atoms: N_1  and  C_2
REMARK    2  A    between atoms: C_2  and  C_3
REMARK    3  A    between atoms: C_6  and  C_7
REMARK    4  A    between atoms: C_7  and  N_8
REMARK                            x       y       z     vdW  Elec       q    Type
REMARK                         _______ _______ _______ _____ _____    ______ ____
ROOT
ATOM      1  C   UNL     1      46.517   6.005  12.728  0.00  0.00    +0.000 A 
ATOM      2  C   UNL     1      46.656   6.541  11.441  0.00  0.00    +0.000 A 
ATOM      3  C   UNL     1      45.990   5.973  10.352  0.00  0.00    +0.000 A 
ATOM      4  C   UNL     1      45.166   4.853  10.525  0.00  0.00    +0.000 A 
ATOM      5  C   UNL     1      45.026   4.316  11.813  0.00  0.00    +0.000 A 
ATOM      6  C   UNL     1      45.691   4.887  12.902  0.00  0.00    +0.000 A 
ENDROOT
BRANCH   1   7
ATOM      7  C   UNL     1      47.284   6.588  13.888  0.00  0.00    +0.000 C 
BRANCH   7   8
ATOM      8  N   UNL     1      48.726   6.512  13.686  0.00  0.00    +0.000 NA
ATOM      9  H   UNL     1      48.913   6.024  12.812  0.00  0.00    +0.000 HD
ATOM     10  H   UNL     1      49.130   5.941  14.427  0.00  0.00    +0.000 HD
ENDBRANCH   7   8
ENDBRANCH   1   7
BRANCH   4  11
ATOM     11  C   UNL     1      44.439   4.241   9.354  0.00  0.00    +0.000 C 
BRANCH  11  12
ATOM     12  N   UNL     1      45.062   3.009   8.884  0.00  0.00    +0.000 N 
ATOM     13  C   UNL     1      44.635   1.746   9.232  0.00  0.00    +0.000 A 
ATOM     14  C   UNL     1      45.357   0.831   8.496  0.00  0.00    +0.000 A 
ATOM     15  C   UNL     1      46.242   1.559   7.668  0.00  0.00    +0.000 A 
ATOM     16  N   UNL     1      47.127   1.085   6.757  0.00  0.00    +0.000 NA
ATOM     17  C   UNL     1      47.832   2.034   6.107  0.00  0.00    +0.000 A 
ATOM     18  C   UNL     1      47.719   3.402   6.307  0.00  0.00    +0.000 A 
ATOM     19  C   UNL     1      46.807   3.880   7.245  0.00  0.00    +0.000 A 
ATOM     20  C   UNL     1      46.055   2.918   7.928  0.00  0.00    +0.000 A 
ENDBRANCH  11  12
ENDBRANCH   4  11
TORSDOF 4
ENDMDL
MODEL 5
REMARK VINA RESULT:    -5.856      1.506      6.210
REMARK INTER + INTRA:          -7.594
REMARK INTER:                  -7.039
REMARK INTRA:                  -0.556
REMARK UNBOUND:                -0.541
REMARK  Name = 
REMARK  4 active torsions:
REMARK  status: ('A' for Active; 'I' for Inactive)
REMARK    1  A    between atoms: N_1  and  C_2
REMARK    2  A    between atoms: C_2  and  C_3
REMARK    3  A    between atoms: C_6  and  C_7
REMARK    4  A    between atoms: C_7  and  N_8
REMARK                            x       y       z     vdW  Elec       q    Type
REMARK                         _______ _______ _______ _____ _____    ______ ____
ROOT
ATOM      1  C   UNL     1      46.160   4.642  13.308  0.00  0.00    +0.000 A 
ATOM      2  C   UNL     1      46.194   5.710  12.401  0.00  0.00    +0.000 A 
ATOM      3  C   UNL     1      45.675   5.571  11.111  0.00  0.00    +0.000 A 
ATOM      4  C   UNL     1      45.108   4.358  10.697  0.00  0.00    +0.000 A 
ATOM      5  C   UNL     1      45.073   3.290  11.604  0.00  0.00    +0.000 A 
ATOM      6  C   UNL     1      45.591   3.431  12.896  0.00  0.00    +0.000 A 
ENDROOT
BRANCH   1   7
ATOM      7  C   UNL     1      46.774   4.782  14.679  0.00  0.00    +0.000 C 
BRANCH   7   8
ATOM      8  N   UNL     1      47.402   3.544  15.127  0.00  0.00    +0.000 NA
ATOM      9  H   UNL     1      48.106   3.765  15.829  0.00  0.00    +0.000 HD
ATOM     10  H   UNL     1      47.900   3.128  14.342  0.00  0.00    +0.000 HD
ENDBRANCH   7   8
ENDBRANCH   1   7
BRANCH   4  11
ATOM     11  C   UNL     1      44.540   4.206   9.309  0.00  0.00    +0.000 C 
BRANCH  11  12
ATOM     12  N   UNL     1      45.542   3.803   8.329  0.00  0.00    +0.000 N 
ATOM     13  C   UNL     1      46.337   4.686   7.630  0.00  0.00    +0.000 A 
ATOM     14  C   UNL     1      47.256   3.955   6.908  0.00  0.00    +0.000 A 
ATOM     15  C   UNL     1      47.021   2.589   7.184  0.00  0.00    +0.000 A 
ATOM     16  N   UNL     1      47.694   1.507   6.721  0.00  0.00    +0.000 NA
ATOM     17  C   UNL     1      47.238   0.322   7.174  0.00  0.00    +0.000 A 
ATOM     18  C   UNL     1      46.169   0.146   8.040  0.00  0.00    +0.000 A 
ATOM     19  C   UNL     1      45.484   1.263   8.511  0.00  0.00    +0.000 A 
ATOM     20  C   UNL     1      45.941   2.508   8.064  0.00  0.00    +0.000 A 
ENDBRANCH  11  12
ENDBRANCH   4  11
TORSDOF 4
ENDMDL
MODEL 6
REMARK VINA RESULT:    -5.360      2.696      4.315
REMARK INTER + INTRA:          -6.998
REMARK INTER:                  -6.659
REMARK INTRA:                  -0.339
REMARK UNBOUND:                -0.541
REMARK  Name = 
REMARK  4 active torsions:
REMARK  status: ('A' for Active; 'I' for Inactive)
REMARK    1  A    between atoms: N_1  and  C_2
REMARK    2  A    between atoms: C_2  and  C_3
REMARK    3  A    between atoms: C_6  and  C_7
REMARK    4  A    between atoms: C_7  and  N_8
REMARK                            x       y       z     vdW  Elec       q    Type
REMARK                         _______ _______ _______ _____ _____    ______ ____
ROOT
ATOM      1  C   UNL     1      44.903   3.599   9.961  0.00  0.00    +0.000 A 
ATOM      2  C   UNL     1      44.890   3.188  11.301  0.00  0.00    +0.000 A 
ATOM      3  C   UNL     1      45.254   4.068  12.324  0.00  0.00    +0.000 A 
ATOM      4  C   UNL     1      45.640   5.382  12.031  0.00  0.00    +0.000 A 
ATOM      5  C   UNL     1      45.653   5.794  10.690  0.00  0.00    +0.000 A 
ATOM      6  C   UNL     1      45.286   4.913   9.668  0.00  0.00    +0.000 A 
ENDROOT
BRANCH   1   7
ATOM      7  C   UNL     1      44.564   2.627   8.859  0.00  0.00    +0.000 C 
BRANCH   7   8
ATOM      8  N   UNL     1      45.360   1.408   8.938  0.00  0.00    +0.000 NA
ATOM      9  H   UNL     1      46.105   1.542   9.619  0.00  0.00    +0.000 HD
ATOM     10  H   UNL     1      45.815   1.256   8.040  0.00  0.00    +0.000 HD
ENDBRANCH   7   8
ENDBRANCH   1   7
BRANCH   4  11
ATOM     11  C   UNL     1      46.027   6.337  13.131  0.00  0.00    +0.000 C 
BRANCH  11  12
ATOM     12  N   UNL     1      46.311   7.681  12.640  0.00  0.00    +0.000 N 
ATOM     13  C   UNL     1      45.408   8.721  12.672  0.00  0.00    +0.000 A 
ATOM     14  C   UNL     1      46.059   9.866  12.263  0.00  0.00    +0.000 A 
ATOM     15  C   UNL     1      47.399   9.514  11.985  0.00  0.00    +0.000 A 
ATOM     16  N   UNL     1      48.414  10.314  11.579  0.00  0.00    +0.000 NA
ATOM     17  C   UNL     1      49.595   9.685  11.404  0.00  0.00    +0.000 A 
ATOM     18  C   UNL     1      49.824   8.331  11.597  0.00  0.00    +0.000 A 
ATOM     19  C   UNL     1      48.775   7.516  12.016  0.00  0.00    +0.000 A 
ATOM     20  C   UNL     1      47.540   8.144  12.214  0.00  0.00    +0.000 A 
ENDBRANCH  11  12
ENDBRANCH   4  11
TORSDOF 4
ENDMDL
MODEL 7
REMARK VINA RESULT:    -5.215      3.711      7.333
REMARK INTER + INTRA:          -6.823
REMARK INTER:                  -6.370
REMARK INTRA:                  -0.453
REMARK UNBOUND:                -0.541
REMARK  Name = 
REMARK  4 active torsions:
REMARK  status: ('A' for Active; 'I' for Inactive)
REMARK    1  A    between atoms: N_1  and  C_2
REMARK    2  A    between atoms: C_2  and  C_3
REMARK    3  A    between atoms: C_6  and  C_7
REMARK    4  A    between atoms: C_7  and  N_8
REMARK                            x       y       z     vdW  Elec       q    Type
REMARK                         _______ _______ _______ _____ _____    ______ ____
ROOT
ATOM      1  C   UNL     1      48.064   5.001  17.523  0.00  0.00    +0.000 A 
ATOM      2  C   UNL     1      48.689   6.081  16.885  0.00  0.00    +0.000 A 
ATOM      3  C   UNL     1      48.560   6.270  15.506  0.00  0.00    +0.000 A 
ATOM      4  C   UNL     1      47.801   5.383  14.732  0.00  0.00    +0.000 A 
ATOM      5  C   UNL     1      47.175   4.302  15.370  0.00  0.00    +0.000 A 
ATOM      6  C   UNL     1      47.303   4.115  16.750  0.00  0.00    +0.000 A 
ENDROOT
BRANCH   1   7
ATOM      7  C   UNL     1      48.255   4.770  19.001  0.00  0.00    +0.000 C 
BRANCH   7   8
ATOM      8  N   UNL     1      48.366   3.352  19.325  0.00  0.00    +0.000 NA
ATOM      9  H   UNL     1      49.213   2.980  18.900  0.00  0.00    +0.000 HD
ATOM     10  H   UNL     1      47.586   2.857  18.896  0.00  0.00    +0.000 HD
ENDBRANCH   7   8
ENDBRANCH   1   7
BRANCH   4  11
ATOM     11  C   UNL     1      47.653   5.588  13.246  0.00  0.00    +0.000 C 
BRANCH  11  12
ATOM     12  N   UNL     1      46.294   5.950  12.858  0.00  0.00    +0.000 N 
ATOM     13  C   UNL     1      45.848   7.247  12.729  0.00  0.00    +0.000 A 
ATOM     14  C   UNL     1      44.569   7.212  12.214  0.00  0.00    +0.000 A 
ATOM     15  C   UNL     1      44.231   5.853  12.014  0.00  0.00    +0.000 A 
ATOM     16  N   UNL     1      43.088   5.335  11.504  0.00  0.00    +0.000 NA
ATOM     17  C   UNL     1      43.064   3.989  11.426  0.00  0.00    +0.000 A 
ATOM     18  C   UNL     1      44.085   3.139  11.824  0.00  0.00    +0.000 A 
ATOM     19  C   UNL     1      45.256   3.680  12.347  0.00  0.00    +0.000 A 
ATOM     20  C   UNL     1      45.313   5.076  12.431  0.00  0.00    +0.000 A 
ENDBRANCH  11  12
ENDBRANCH   4  11
TORSDOF 4
ENDMDL
MODEL 8
REMARK VINA RESULT:    -5.208      3.264      5.572
REMARK INTER + INTRA:          -6.814
REMARK INTER:                  -6.394
REMARK INTRA:                  -0.420
REMARK UNBOUND:                -0.541
REMARK  Name = 
REMARK  4 active torsions:
REMARK  status: ('A' for Active; 'I' for Inactive)
REMARK    1  A    between atoms: N_1  and  C_2
REMARK    2  A    between atoms: C_2  and  C_3
REMARK    3  A    between atoms: C_6  and  C_7
REMARK    4  A    between atoms: C_7  and  N_8
REMARK                            x       y       z     vdW  Elec       q    Type
REMARK                         _______ _______ _______ _____ _____    ______ ____
ROOT
ATOM      1  C   UNL     1      44.499   4.114  11.268  0.00  0.00    +0.000 A 
ATOM      2  C   UNL     1      45.035   5.113  10.444  0.00  0.00    +0.000 A 
ATOM      3  C   UNL     1      45.542   6.296  10.990  0.00  0.00    +0.000 A 
ATOM      4  C   UNL     1      45.526   6.507  12.375  0.00  0.00    +0.000 A 
ATOM      5  C   UNL     1      44.990   5.507  13.199  0.00  0.00    +0.000 A 
ATOM      6  C   UNL     1      44.485   4.324  12.652  0.00  0.00    +0.000 A 
ENDROOT
BRANCH   1   7
ATOM      7  C   UNL     1      43.902   2.866  10.668  0.00  0.00    +0.000 C 
BRANCH   7   8
ATOM      8  N   UNL     1      43.042   2.161  11.611  0.00  0.00    +0.000 NA
ATOM      9  H   UNL     1      42.593   1.382  11.133  0.00  0.00    +0.000 HD
ATOM     10  H   UNL     1      42.295   2.789  11.905  0.00  0.00    +0.000 HD
ENDBRANCH   7   8
ENDBRANCH   1   7
BRANCH   4  11
ATOM     11  C   UNL     1      46.078   7.778  12.968  0.00  0.00    +0.000 C 
BRANCH  11  12
ATOM     12  N   UNL     1      47.504   7.948  12.711  0.00  0.00    +0.000 N 
ATOM     13  C   UNL     1      48.446   6.960  12.896  0.00  0.00    +0.000 A 
ATOM     14  C   UNL     1      49.654   7.424  12.421  0.00  0.00    +0.000 A 
ATOM     15  C   UNL     1      49.439   8.729  11.923  0.00  0.00    +0.000 A 
ATOM     16  N   UNL     1      50.330   9.566  11.338  0.00  0.00    +0.000 NA
ATOM     17  C   UNL     1      49.821  10.754  10.953  0.00  0.00    +0.000 A 
ATOM     18  C   UNL     1      48.504  11.159  11.117  0.00  0.00    +0.000 A 
ATOM     19  C   UNL     1      47.595  10.293  11.719  0.00  0.00    +0.000 A 
ATOM     20  C   UNL     1      48.094   9.049  12.120  0.00  0.00    +0.000 A 
ENDBRANCH  11  12
ENDBRANCH   4  11
TORSDOF 4
ENDMDL
MODEL 9
REMARK VINA RESULT:    -5.009      3.348      5.576
REMARK INTER + INTRA:          -6.575
REMARK INTER:                  -6.092
REMARK INTRA:                  -0.482
REMARK UNBOUND:                -0.541
REMARK  Name = 
REMARK  4 active torsions:
REMARK  status: ('A' for Active; 'I' for Inactive)
REMARK    1  A    between atoms: N_1  and  C_2
REMARK    2  A    between atoms: C_2  and  C_3
REMARK    3  A    between atoms: C_6  and  C_7
REMARK    4  A    between atoms: C_7  and  N_8
REMARK                            x       y       z     vdW  Elec       q    Type
REMARK                         _______ _______ _______ _____ _____    ______ ____
ROOT
ATOM      1  C   UNL     1      44.635   4.060  11.329  0.00  0.00    +0.000 A 
ATOM      2  C   UNL     1      44.430   5.330  10.774  0.00  0.00    +0.000 A 
ATOM      3  C   UNL     1      44.994   6.467  11.360  0.00  0.00    +0.000 A 
ATOM      4  C   UNL     1      45.779   6.359  12.516  0.00  0.00    +0.000 A 
ATOM      5  C   UNL     1      45.984   5.088  13.070  0.00  0.00    +0.000 A 
ATOM      6  C   UNL     1      45.421   3.951  12.482  0.00  0.00    +0.000 A 
ENDROOT
BRANCH   1   7
ATOM      7  C   UNL     1      43.975   2.845  10.724  0.00  0.00    +0.000 C 
BRANCH   7   8
ATOM      8  N   UNL     1      43.039   2.213  11.647  0.00  0.00    +0.000 NA
ATOM      9  H   UNL     1      42.409   2.921  12.017  0.00  0.00    +0.000 HD
ATOM     10  H   UNL     1      43.561   1.847  12.442  0.00  0.00    +0.000 HD
ENDBRANCH   7   8
ENDBRANCH   1   7
BRANCH   4  11
ATOM     11  C   UNL     1      46.396   7.581  13.146  0.00  0.00    +0.000 C 
BRANCH  11  12
ATOM     12  N   UNL     1      47.836   7.662  12.930  0.00  0.00    +0.000 N 
ATOM     13  C   UNL     1      48.420   7.981  11.724  0.00  0.00    +0.000 A 
ATOM     14  C   UNL     1      49.778   8.104  11.923  0.00  0.00    +0.000 A 
ATOM     15  C   UNL     1      50.028   7.863  13.294  0.00  0.00    +0.000 A 
ATOM     16  N   UNL     1      51.210   7.899  13.955  0.00  0.00    +0.000 NA
ATOM     17  C   UNL     1      51.128   7.632  15.274  0.00  0.00    +0.000 A 
ATOM     18  C   UNL     1      49.965   7.329  15.965  0.00  0.00    +0.000 A 
ATOM     19  C   UNL     1      48.754   7.294  15.278  0.00  0.00    +0.000 A 
ATOM     20  C   UNL     1      48.808   7.577  13.909  0.00  0.00    +0.000 A 
ENDBRANCH  11  12
ENDBRANCH   4  11
TORSDOF 4
ENDMDL
