MODEL 1
REMARK VINA RESULT:    -7.240      0.000      0.000
REMARK INTER + INTRA:         -10.019
REMARK INTER:                  -9.357
REMARK INTRA:                  -0.663
REMARK UNBOUND:                -0.663
REMARK  Name = 
REMARK  7 active torsions:
REMARK  status: ('A' for Active; 'I' for Inactive)
REMARK    1  A    between atoms: C_1  and  O_2
REMARK    2  A    between atoms: O_2  and  C_3
REMARK    3  A    between atoms: C_10  and  C_11
REMARK    4  A    between atoms: N_13  and  C_14
REMARK    5  A    between atoms: C_14  and  C_15
REMARK    6  A    between atoms: C_18  and  S_19
REMARK    7  A    between atoms: S_19  and  C_20
REMARK                            x       y       z     vdW  Elec       q    Type
REMARK                         _______ _______ _______ _____ _____    ______ ____
ROOT
ATOM      1  C   UNL     1      44.944   6.629  11.796  0.00  0.00    +0.000 C 
ATOM      2  O   UNL     1      45.235   5.882  12.727  0.00  0.00    +0.000 OA
ATOM      3  N   UNL     1      44.256   6.169  10.704  0.00  0.00    +0.000 N 
ATOM      4  H   UNL     1      43.996   6.810   9.965  0.00  0.00    +0.000 HD
ENDROOT
BRANCH   1  12
ATOM      5  C   UNL     1      47.831   8.317  12.653  0.00  0.00    +0.000 A 
ATOM      6  N   UNL     1      48.809   9.211  12.897  0.00  0.00    +0.000 NA
ATOM      7  C   UNL     1      48.542  10.506  12.711  0.00  0.00    +0.000 A 
ATOM      8  N   UNL     1      47.391  11.032  12.299  0.00  0.00    +0.000 NA
ATOM      9  C   UNL     1      46.450  10.104  12.054  0.00  0.00    +0.000 A 
ATOM     10  S   UNL     1      44.911  10.599  11.528  0.00  0.00    +0.000 S 
ATOM     11  C   UNL     1      44.368   8.995  11.456  0.00  0.00    +0.000 A 
ATOM     12  C   UNL     1      45.325   8.053  11.821  0.00  0.00    +0.000 A 
ATOM     13  C   UNL     1      46.569   8.724  12.189  0.00  0.00    +0.000 A 
BRANCH   5  15
ATOM     14  C   UNL     1      48.293   6.653  14.215  0.00  0.00    +0.000 C 
ATOM     15  O   UNL     1      48.126   6.978  12.835  0.00  0.00    +0.000 OA
ENDBRANCH   5  15
ENDBRANCH   1  12
BRANCH   3  16
ATOM     16  C   UNL     1      43.840   4.790  10.563  0.00  0.00    +0.000 C 
BRANCH  16  17
ATOM     17  C   UNL     1      44.750   4.025   9.630  0.00  0.00    +0.000 A 
ATOM     18  C   UNL     1      45.591   4.708   8.736  0.00  0.00    +0.000 A 
ATOM     19  C   UNL     1      46.419   4.006   7.853  0.00  0.00    +0.000 A 
ATOM     20  C   UNL     1      46.427   2.610   7.878  0.00  0.00    +0.000 A 
ATOM     21  C   UNL     1      45.614   1.913   8.776  0.00  0.00    +0.000 A 
ATOM     22  C   UNL     1      44.783   2.621   9.650  0.00  0.00    +0.000 A 
BRANCH  20  23
ATOM     23  S   UNL     1      47.370   1.712   6.664  0.00  0.00    +0.000 S 
ATOM     24  C   UNL     1      46.896   2.421   5.112  0.00  0.00    +0.000 C 
ATOM     25  O   UNL     1      48.770   2.022   6.888  0.00  0.00    +0.000 OA
ATOM     26  O   UNL     1      46.906   0.337   6.690  0.00  0.00    +0.000 OA
ENDBRANCH  20  23
ENDBRANCH  16  17
ENDBRANCH   3  16
TORSDOF 5
ENDMDL
MODEL 2
REMARK VINA RESULT:    -7.235      5.315      8.477
REMARK INTER + INTRA:         -10.012
REMARK INTER:                  -9.360
REMARK INTRA:                  -0.651
REMARK UNBOUND:                -0.663
REMARK  Name = 
REMARK  7 active torsions:
REMARK  status: ('A' for Active; 'I' for Inactive)
REMARK    1  A    between atoms: C_1  and  O_2
REMARK    2  A    between atoms: O_2  and  C_3
REMARK    3  A    between atoms: C_10  and  C_11
REMARK    4  A    between atoms: N_13  and  C_14
REMARK    5  A    between atoms: C_14  and  C_15
REMARK    6  A    between atoms: C_18  and  S_19
REMARK    7  A    between atoms: S_19  and  C_20
REMARK                            x       y       z     vdW  Elec       q    Type
REMARK                         _______ _______ _______ _____ _____    ______ ____
ROOT
ATOM      1  C   UNL     1      47.097   4.162  14.658  0.00  0.00    +0.000 C 
ATOM      2  O   UNL     1      47.390   3.068  14.180  0.00  0.00    +0.000 OA
ATOM      3  N   UNL     1      47.055   4.356  16.013  0.00  0.00    +0.000 N 
ATOM      4  H   UNL     1      46.846   5.275  16.384  0.00  0.00    +0.000 HD
ENDROOT
BRANCH   1  12
ATOM      5  C   UNL     1      44.385   4.994  12.691  0.00  0.00    +0.000 A 
ATOM      6  N   UNL     1      43.475   5.567  11.879  0.00  0.00    +0.000 NA
ATOM      7  C   UNL     1      43.777   6.743  11.322  0.00  0.00    +0.000 A 
ATOM      8  N   UNL     1      44.902   7.435  11.481  0.00  0.00    +0.000 NA
ATOM      9  C   UNL     1      45.774   6.835  12.309  0.00  0.00    +0.000 A 
ATOM     10  S   UNL     1      47.271   7.575  12.620  0.00  0.00    +0.000 S 
ATOM     11  C   UNL     1      47.736   6.311  13.650  0.00  0.00    +0.000 A 
ATOM     12  C   UNL     1      46.781   5.308  13.786  0.00  0.00    +0.000 A 
ATOM     13  C   UNL     1      45.610   5.622  12.972  0.00  0.00    +0.000 A 
BRANCH   5  15
ATOM     14  C   UNL     1      43.550   2.854  12.315  0.00  0.00    +0.000 C 
ATOM     15  O   UNL     1      44.053   3.785  13.273  0.00  0.00    +0.000 OA
ENDBRANCH   5  15
ENDBRANCH   1  12
BRANCH   3  16
ATOM     16  C   UNL     1      47.333   3.304  16.966  0.00  0.00    +0.000 C 
BRANCH  16  17
ATOM     17  C   UNL     1      48.807   3.221  17.293  0.00  0.00    +0.000 A 
ATOM     18  C   UNL     1      49.546   2.073  16.962  0.00  0.00    +0.000 A 
ATOM     19  C   UNL     1      50.905   1.979  17.283  0.00  0.00    +0.000 A 
ATOM     20  C   UNL     1      51.538   3.050  17.918  0.00  0.00    +0.000 A 
ATOM     21  C   UNL     1      50.825   4.208  18.234  0.00  0.00    +0.000 A 
ATOM     22  C   UNL     1      49.465   4.291  17.918  0.00  0.00    +0.000 A 
BRANCH  20  23
ATOM     23  S   UNL     1      53.228   2.881  18.454  0.00  0.00    +0.000 S 
ATOM     24  C   UNL     1      53.297   3.743  19.999  0.00  0.00    +0.000 C 
ATOM     25  O   UNL     1      53.459   1.473  18.718  0.00  0.00    +0.000 OA
ATOM     26  O   UNL     1      54.056   3.598  17.502  0.00  0.00    +0.000 OA
ENDBRANCH  20  23
ENDBRANCH  16  17
ENDBRANCH   3  16
TORSDOF 5
ENDMDL
MODEL 3
REMARK VINA RESULT:    -6.977      1.922      2.784
REMARK INTER + INTRA:          -9.680
REMARK INTER:                  -9.418
REMARK INTRA:                  -0.262
REMARK UNBOUND:                -0.663
REMARK  Name = 
REMARK  7 active torsions:
REMARK  status: ('A' for Active; 'I' for Inactive)
REMARK    1  A    between atoms: C_1  and  O_2
REMARK    2  A    between atoms: O_2  and  C_3
REMARK    3  A    between atoms: C_10  and  C_11
REMARK    4  A    between atoms: N_13  and  C_14
REMARK    5  A    between atoms: C_14  and  C_15
REMARK    6  A    between atoms: C_18  and  S_19
REMARK    7  A    between atoms: S_19  and  C_20
REMARK                            x       y       z     vdW  Elec       q    Type
REMARK                         _______ _______ _______ _____ _____    ______ ____
ROOT
ATOM      1  C   UNL     1      45.899   5.462  12.483  0.00  0.00    +0.000 C 
ATOM      2  O   UNL     1      45.943   4.301  12.884  0.00  0.00    +0.000 OA
ATOM      3  N   UNL     1      45.055   5.832  11.470  0.00  0.00    +0.000 N 
ATOM      4  H   UNL     1      45.010   6.801  11.179  0.00  0.00    +0.000 HD
ENDROOT
BRANCH   1  12
ATOM      5  C   UNL     1      48.087   5.512  15.153  0.00  0.00    +0.000 A 
ATOM      6  N   UNL     1      48.995   5.805  16.104  0.00  0.00    +0.000 NA
ATOM      7  C   UNL     1      49.480   7.048  16.153  0.00  0.00    +0.000 A 
ATOM      8  N   UNL     1      49.164   8.060  15.348  0.00  0.00    +0.000 NA
ATOM      9  C   UNL     1      48.269   7.719  14.406  0.00  0.00    +0.000 A 
ATOM     10  S   UNL     1      47.743   8.893  13.295  0.00  0.00    +0.000 S 
ATOM     11  C   UNL     1      46.725   7.777  12.526  0.00  0.00    +0.000 A 
ATOM     12  C   UNL     1      46.757   6.501  13.081  0.00  0.00    +0.000 A 
ATOM     13  C   UNL     1      47.676   6.474  14.215  0.00  0.00    +0.000 A 
BRANCH   5  15
ATOM     14  C   UNL     1      47.840   3.516  16.324  0.00  0.00    +0.000 C 
ATOM     15  O   UNL     1      47.605   4.217  15.103  0.00  0.00    +0.000 OA
ENDBRANCH   5  15
ENDBRANCH   1  12
BRANCH   3  16
ATOM     16  C   UNL     1      44.177   4.897  10.799  0.00  0.00    +0.000 C 
BRANCH  16  17
ATOM     17  C   UNL     1      44.907   4.109   9.736  0.00  0.00    +0.000 A 
ATOM     18  C   UNL     1      44.856   2.705   9.729  0.00  0.00    +0.000 A 
ATOM     19  C   UNL     1      45.549   1.968   8.762  0.00  0.00    +0.000 A 
ATOM     20  C   UNL     1      46.280   2.638   7.779  0.00  0.00    +0.000 A 
ATOM     21  C   UNL     1      46.324   4.034   7.756  0.00  0.00    +0.000 A 
ATOM     22  C   UNL     1      45.636   4.764   8.730  0.00  0.00    +0.000 A 
BRANCH  20  23
ATOM     23  S   UNL     1      47.276   1.706   6.634  0.00  0.00    +0.000 S 
ATOM     24  C   UNL     1      46.787   2.288   5.035  0.00  0.00    +0.000 C 
ATOM     25  O   UNL     1      48.658   2.095   6.848  0.00  0.00    +0.000 OA
ATOM     26  O   UNL     1      46.876   0.315   6.748  0.00  0.00    +0.000 OA
ENDBRANCH  20  23
ENDBRANCH  16  17
ENDBRANCH   3  16
TORSDOF 5
ENDMDL
MODEL 4
REMARK VINA RESULT:    -6.891      2.336      3.418
REMARK INTER + INTRA:          -9.568
REMARK INTER:                  -8.922
REMARK INTRA:                  -0.646
REMARK UNBOUND:                -0.663
REMARK  Name = 
REMARK  7 active torsions:
REMARK  status: ('A' for Active; 'I' for Inactive)
REMARK    1  A    between atoms: C_1  and  O_2
REMARK    2  A    between atoms: O_2  and  C_3
REMARK    3  A    between atoms: C_10  and  C_11
REMARK    4  A    between atoms: N_13  and  C_14
REMARK    5  A    between atoms: C_14  and  C_15
REMARK    6  A    between atoms: C_18  and  S_19
REMARK    7  A    between atoms: S_19  and  C_20
REMARK                            x       y       z     vdW  Elec       q    Type
REMARK                         _______ _______ _______ _____ _____    ______ ____
ROOT
ATOM      1  C   UNL     1      45.862   4.346  13.125  0.00  0.00    +0.000 C 
ATOM      2  O   UNL     1      45.726   3.130  13.008  0.00  0.00    +0.000 OA
ATOM      3  N   UNL     1      45.135   5.219  12.360  0.00  0.00    +0.000 N 
ATOM      4  H   UNL     1      45.238   6.217  12.498  0.00  0.00    +0.000 HD
ENDROOT
BRANCH   1  12
ATOM      5  C   UNL     1      47.895   7.137  13.140  0.00  0.00    +0.000 A 
ATOM      6  N   UNL     1      48.750   8.140  13.420  0.00  0.00    +0.000 NA
ATOM      7  C   UNL     1      49.389   8.117  14.592  0.00  0.00    +0.000 A 
ATOM      8  N   UNL     1      49.276   7.195  15.545  0.00  0.00    +0.000 NA
ATOM      9  C   UNL     1      48.403   6.222  15.231  0.00  0.00    +0.000 A 
ATOM     10  S   UNL     1      48.140   4.953  16.330  0.00  0.00    +0.000 S 
ATOM     11  C   UNL     1      47.021   4.221  15.289  0.00  0.00    +0.000 A 
ATOM     12  C   UNL     1      46.816   4.910  14.098  0.00  0.00    +0.000 A 
ATOM     13  C   UNL     1      47.655   6.104  14.063  0.00  0.00    +0.000 A 
BRANCH   5  15
ATOM     14  C   UNL     1      46.338   8.294  11.854  0.00  0.00    +0.000 C 
ATOM     15  O   UNL     1      47.228   7.181  11.930  0.00  0.00    +0.000 OA
ENDBRANCH   5  15
ENDBRANCH   1  12
BRANCH   3  16
ATOM     16  C   UNL     1      44.179   4.783  11.365  0.00  0.00    +0.000 C 
BRANCH  16  17
ATOM     17  C   UNL     1      44.862   4.164  10.167  0.00  0.00    +0.000 A 
ATOM     18  C   UNL     1      44.751   2.787   9.915  0.00  0.00    +0.000 A 
ATOM     19  C   UNL     1      45.401   2.203   8.822  0.00  0.00    +0.000 A 
ATOM     20  C   UNL     1      46.149   3.005   7.957  0.00  0.00    +0.000 A 
ATOM     21  C   UNL     1      46.253   4.380   8.178  0.00  0.00    +0.000 A 
ATOM     22  C   UNL     1      45.607   4.955   9.278  0.00  0.00    +0.000 A 
BRANCH  20  23
ATOM     23  S   UNL     1      47.091   2.249   6.649  0.00  0.00    +0.000 S 
ATOM     24  C   UNL     1      46.969   0.509   6.955  0.00  0.00    +0.000 C 
ATOM     25  O   UNL     1      46.404   2.532   5.402  0.00  0.00    +0.000 OA
ATOM     26  O   UNL     1      48.476   2.641   6.834  0.00  0.00    +0.000 OA
ENDBRANCH  20  23
ENDBRANCH  16  17
ENDBRANCH   3  16
TORSDOF 5
ENDMDL
MODEL 5
REMARK VINA RESULT:    -6.717      5.311      7.935
REMARK INTER + INTRA:          -9.343
REMARK INTER:                  -8.334
REMARK INTRA:                  -1.009
REMARK UNBOUND:                -0.663
REMARK  Name = 
REMARK  7 active torsions:
REMARK  status: ('A' for Active; 'I' for Inactive)
REMARK    1  A    between atoms: C_1  and  O_2
REMARK    2  A    between atoms: O_2  and  C_3
REMARK    3  A    between atoms: C_10  and  C_11
REMARK    4  A    between atoms: N_13  and  C_14
REMARK    5  A    between atoms: C_14  and  C_15
REMARK    6  A    between atoms: C_18  and  S_19
REMARK    7  A    between atoms: S_19  and  C_20
REMARK                            x       y       z     vdW  Elec       q    Type
REMARK                         _______ _______ _______ _____ _____    ______ ____
ROOT
ATOM      1  C   UNL     1      47.148   4.174  14.716  0.00  0.00    +0.000 C 
ATOM      2  O   UNL     1      47.308   3.015  14.340  0.00  0.00    +0.000 OA
ATOM      3  N   UNL     1      47.231   4.508  16.042  0.00  0.00    +0.000 N 
ATOM      4  H   UNL     1      47.130   5.475  16.325  0.00  0.00    +0.000 HD
ENDROOT
BRANCH   1  12
ATOM      5  C   UNL     1      48.662   7.185  13.968  0.00  0.00    +0.000 A 
ATOM      6  N   UNL     1      49.051   8.372  13.464  0.00  0.00    +0.000 NA
ATOM      7  C   UNL     1      48.322   8.912  12.484  0.00  0.00    +0.000 A 
ATOM      8  N   UNL     1      47.227   8.398  11.929  0.00  0.00    +0.000 NA
ATOM      9  C   UNL     1      46.885   7.208  12.450  0.00  0.00    +0.000 A 
ATOM     10  S   UNL     1      45.503   6.410  11.866  0.00  0.00    +0.000 S 
ATOM     11  C   UNL     1      45.742   5.115  12.933  0.00  0.00    +0.000 A 
ATOM     12  C   UNL     1      46.861   5.249  13.749  0.00  0.00    +0.000 A 
ATOM     13  C   UNL     1      47.538   6.511  13.463  0.00  0.00    +0.000 A 
BRANCH   5  15
ATOM     14  C   UNL     1      50.589   7.421  15.253  0.00  0.00    +0.000 C 
ATOM     15  O   UNL     1      49.435   6.631  14.972  0.00  0.00    +0.000 OA
ENDBRANCH   5  15
ENDBRANCH   1  12
BRANCH   3  16
ATOM     16  C   UNL     1      47.495   3.536  17.082  0.00  0.00    +0.000 C 
BRANCH  16  17
ATOM     17  C   UNL     1      48.978   3.332  17.292  0.00  0.00    +0.000 A 
ATOM     18  C   UNL     1      49.565   2.079  17.051  0.00  0.00    +0.000 A 
ATOM     19  C   UNL     1      50.933   1.875  17.267  0.00  0.00    +0.000 A 
ATOM     20  C   UNL     1      51.727   2.938  17.704  0.00  0.00    +0.000 A 
ATOM     21  C   UNL     1      51.164   4.197  17.927  0.00  0.00    +0.000 A 
ATOM     22  C   UNL     1      49.795   4.391  17.717  0.00  0.00    +0.000 A 
BRANCH  20  23
ATOM     23  S   UNL     1      53.435   2.650  18.114  0.00  0.00    +0.000 S 
ATOM     24  C   UNL     1      53.816   1.084  17.381  0.00  0.00    +0.000 C 
ATOM     25  O   UNL     1      54.220   3.664  17.434  0.00  0.00    +0.000 OA
ATOM     26  O   UNL     1      53.512   2.502  19.556  0.00  0.00    +0.000 OA
ENDBRANCH  20  23
ENDBRANCH  16  17
ENDBRANCH   3  16
TORSDOF 5
ENDMDL
MODEL 6
REMARK VINA RESULT:    -6.411      4.708      6.739
REMARK INTER + INTRA:          -8.948
REMARK INTER:                  -8.280
REMARK INTRA:                  -0.668
REMARK UNBOUND:                -0.663
REMARK  Name = 
REMARK  7 active torsions:
REMARK  status: ('A' for Active; 'I' for Inactive)
REMARK    1  A    between atoms: C_1  and  O_2
REMARK    2  A    between atoms: O_2  and  C_3
REMARK    3  A    between atoms: C_10  and  C_11
REMARK    4  A    between atoms: N_13  and  C_14
REMARK    5  A    between atoms: C_14  and  C_15
REMARK    6  A    between atoms: C_18  and  S_19
REMARK    7  A    between atoms: S_19  and  C_20
REMARK                            x       y       z     vdW  Elec       q    Type
REMARK                         _______ _______ _______ _____ _____    ______ ____
ROOT
ATOM      1  C   UNL     1      49.068   6.787  16.085  0.00  0.00    +0.000 C 
ATOM      2  O   UNL     1      50.149   6.251  15.848  0.00  0.00    +0.000 OA
ATOM      3  N   UNL     1      48.214   7.141  15.075  0.00  0.00    +0.000 N 
ATOM      4  H   UNL     1      47.314   7.549  15.296  0.00  0.00    +0.000 HD
ENDROOT
BRANCH   1  12
ATOM      5  C   UNL     1      48.819   4.864  18.942  0.00  0.00    +0.000 A 
ATOM      6  N   UNL     1      48.650   4.369  20.184  0.00  0.00    +0.000 NA
ATOM      7  C   UNL     1      48.212   5.193  21.139  0.00  0.00    +0.000 A 
ATOM      8  N   UNL     1      47.915   6.483  21.005  0.00  0.00    +0.000 NA
ATOM      9  C   UNL     1      48.111   6.938  19.756  0.00  0.00    +0.000 A 
ATOM     10  S   UNL     1      47.772   8.565  19.400  0.00  0.00    +0.000 S 
ATOM     11  C   UNL     1      48.233   8.357  17.783  0.00  0.00    +0.000 A 
ATOM     12  C   UNL     1      48.653   7.067  17.472  0.00  0.00    +0.000 A 
ATOM     13  C   UNL     1      48.568   6.217  18.656  0.00  0.00    +0.000 A 
BRANCH   5  15
ATOM     14  C   UNL     1      48.249   3.182  17.438  0.00  0.00    +0.000 C 
ATOM     15  O   UNL     1      49.288   4.005  17.967  0.00  0.00    +0.000 OA
ENDBRANCH   5  15
ENDBRANCH   1  12
BRANCH   3  16
ATOM     16  C   UNL     1      48.520   6.928  13.677  0.00  0.00    +0.000 C 
BRANCH  16  17
ATOM     17  C   UNL     1      47.367   6.279  12.945  0.00  0.00    +0.000 A 
ATOM     18  C   UNL     1      46.988   6.731  11.670  0.00  0.00    +0.000 A 
ATOM     19  C   UNL     1      45.907   6.152  10.997  0.00  0.00    +0.000 A 
ATOM     20  C   UNL     1      45.212   5.096  11.591  0.00  0.00    +0.000 A 
ATOM     21  C   UNL     1      45.588   4.618  12.848  0.00  0.00    +0.000 A 
ATOM     22  C   UNL     1      46.665   5.208  13.519  0.00  0.00    +0.000 A 
BRANCH  20  23
ATOM     23  S   UNL     1      43.751   4.450  10.803  0.00  0.00    +0.000 S 
ATOM     24  C   UNL     1      43.328   3.014  11.749  0.00  0.00    +0.000 C 
ATOM     25  O   UNL     1      42.695   5.430  10.983  0.00  0.00    +0.000 OA
ATOM     26  O   UNL     1      44.135   4.015   9.473  0.00  0.00    +0.000 OA
ENDBRANCH  20  23
ENDBRANCH  16  17
ENDBRANCH   3  16
TORSDOF 5
ENDMDL
MODEL 7
REMARK VINA RESULT:    -6.203      4.649      6.580
REMARK INTER + INTRA:          -8.678
REMARK INTER:                  -7.838
REMARK INTRA:                  -0.840
REMARK UNBOUND:                -0.663
REMARK  Name = 
REMARK  7 active torsions:
REMARK  status: ('A' for Active; 'I' for Inactive)
REMARK    1  A    between atoms: C_1  and  O_2
REMARK    2  A    between atoms: O_2  and  C_3
REMARK    3  A    between atoms: C_10  and  C_11
REMARK    4  A    between atoms: N_13  and  C_14
REMARK    5  A    between atoms: C_14  and  C_15
REMARK    6  A    between atoms: C_18  and  S_19
REMARK    7  A    between atoms: S_19  and  C_20
REMARK                            x       y       z     vdW  Elec       q    Type
REMARK                         _______ _______ _______ _____ _____    ______ ____
ROOT
ATOM      1  C   UNL     1      49.228   6.524  16.084  0.00  0.00    +0.000 C 
ATOM      2  O   UNL     1      50.367   6.444  15.631  0.00  0.00    +0.000 OA
ATOM      3  N   UNL     1      48.154   6.759  15.267  0.00  0.00    +0.000 N 
ATOM      4  H   UNL     1      47.220   6.786  15.657  0.00  0.00    +0.000 HD
ENDROOT
BRANCH   1  12
ATOM      5  C   UNL     1      47.847   8.560  18.506  0.00  0.00    +0.000 A 
ATOM      6  N   UNL     1      47.345   9.120  19.624  0.00  0.00    +0.000 NA
ATOM      7  C   UNL     1      47.387   8.416  20.758  0.00  0.00    +0.000 A 
ATOM      8  N   UNL     1      47.881   7.191  20.918  0.00  0.00    +0.000 NA
ATOM      9  C   UNL     1      48.357   6.665  19.777  0.00  0.00    +0.000 A 
ATOM     10  S   UNL     1      49.036   5.107  19.797  0.00  0.00    +0.000 S 
ATOM     11  C   UNL     1      49.367   5.178  18.137  0.00  0.00    +0.000 A 
ATOM     12  C   UNL     1      48.976   6.367  17.528  0.00  0.00    +0.000 A 
ATOM     13  C   UNL     1      48.380   7.260  18.518  0.00  0.00    +0.000 A 
BRANCH   5  15
ATOM     14  C   UNL     1      48.922  10.136  17.173  0.00  0.00    +0.000 C 
ATOM     15  O   UNL     1      47.782   9.294  17.336  0.00  0.00    +0.000 OA
ENDBRANCH   5  15
ENDBRANCH   1  12
BRANCH   3  16
ATOM     16  C   UNL     1      48.280   6.942  13.837  0.00  0.00    +0.000 C 
BRANCH  16  17
ATOM     17  C   UNL     1      47.237   6.154  13.078  0.00  0.00    +0.000 A 
ATOM     18  C   UNL     1      46.827   6.563  11.799  0.00  0.00    +0.000 A 
ATOM     19  C   UNL     1      45.844   5.852  11.101  0.00  0.00    +0.000 A 
ATOM     20  C   UNL     1      45.284   4.708  11.673  0.00  0.00    +0.000 A 
ATOM     21  C   UNL     1      45.696   4.273  12.935  0.00  0.00    +0.000 A 
ATOM     22  C   UNL     1      46.672   4.994  13.631  0.00  0.00    +0.000 A 
BRANCH  20  23
ATOM     23  S   UNL     1      43.936   3.882  10.853  0.00  0.00    +0.000 S 
ATOM     24  C   UNL     1      44.716   2.739   9.747  0.00  0.00    +0.000 C 
ATOM     25  O   UNL     1      43.223   3.116  11.858  0.00  0.00    +0.000 OA
ATOM     26  O   UNL     1      43.243   4.877  10.056  0.00  0.00    +0.000 OA
ENDBRANCH  20  23
ENDBRANCH  16  17
ENDBRANCH   3  16
TORSDOF 5
ENDMDL
MODEL 8
REMARK VINA RESULT:    -6.180      3.376      4.542
REMARK INTER + INTRA:          -8.649
REMARK INTER:                  -8.060
REMARK INTRA:                  -0.589
REMARK UNBOUND:                -0.663
REMARK  Name = 
REMARK  7 active torsions:
REMARK  status: ('A' for Active; 'I' for Inactive)
REMARK    1  A    between atoms: C_1  and  O_2
REMARK    2  A    between atoms: O_2  and  C_3
REMARK    3  A    between atoms: C_10  and  C_11
REMARK    4  A    between atoms: N_13  and  C_14
REMARK    5  A    between atoms: C_14  and  C_15
REMARK    6  A    between atoms: C_18  and  S_19
REMARK    7  A    between atoms: S_19  and  C_20
REMARK                            x       y       z     vdW  Elec       q    Type
REMARK                         _______ _______ _______ _____ _____    ______ ____
ROOT
ATOM      1  C   UNL     1      46.799   5.234  14.177  0.00  0.00    +0.000 C 
ATOM      2  O   UNL     1      46.738   4.009  14.103  0.00  0.00    +0.000 OA
ATOM      3  N   UNL     1      45.800   6.026  13.675  0.00  0.00    +0.000 N 
ATOM      4  H   UNL     1      45.854   7.032  13.778  0.00  0.00    +0.000 HD
ENDROOT
BRANCH   1  12
ATOM      5  C   UNL     1      48.157   5.154  17.350  0.00  0.00    +0.000 A 
ATOM      6  N   UNL     1      48.893   5.295  18.469  0.00  0.00    +0.000 NA
ATOM      7  C   UNL     1      49.946   6.115  18.434  0.00  0.00    +0.000 A 
ATOM      8  N   UNL     1      50.367   6.830  17.394  0.00  0.00    +0.000 NA
ATOM      9  C   UNL     1      49.613   6.648  16.296  0.00  0.00    +0.000 A 
ATOM     10  S   UNL     1      50.000   7.492  14.872  0.00  0.00    +0.000 S 
ATOM     11  C   UNL     1      48.704   6.783  14.043  0.00  0.00    +0.000 A 
ATOM     12  C   UNL     1      47.953   5.898  14.811  0.00  0.00    +0.000 A 
ATOM     13  C   UNL     1      48.497   5.828  16.164  0.00  0.00    +0.000 A 
BRANCH   5  15
ATOM     14  C   UNL     1      47.483   2.953  17.694  0.00  0.00    +0.000 C 
ATOM     15  O   UNL     1      47.080   4.289  17.395  0.00  0.00    +0.000 OA
ENDBRANCH   5  15
ENDBRANCH   1  12
BRANCH   3  16
ATOM     16  C   UNL     1      44.626   5.489  13.020  0.00  0.00    +0.000 C 
BRANCH  16  17
ATOM     17  C   UNL     1      44.955   4.927  11.656  0.00  0.00    +0.000 A 
ATOM     18  C   UNL     1      45.576   5.731  10.685  0.00  0.00    +0.000 A 
ATOM     19  C   UNL     1      45.861   5.225   9.412  0.00  0.00    +0.000 A 
ATOM     20  C   UNL     1      45.547   3.898   9.112  0.00  0.00    +0.000 A 
ATOM     21  C   UNL     1      44.950   3.077  10.072  0.00  0.00    +0.000 A 
ATOM     22  C   UNL     1      44.660   3.592  11.339  0.00  0.00    +0.000 A 
BRANCH  20  23
ATOM     23  S   UNL     1      45.777   3.292   7.454  0.00  0.00    +0.000 S 
ATOM     24  C   UNL     1      46.672   1.776   7.650  0.00  0.00    +0.000 C 
ATOM     25  O   UNL     1      44.464   2.970   6.925  0.00  0.00    +0.000 OA
ATOM     26  O   UNL     1      46.638   4.236   6.766  0.00  0.00    +0.000 OA
ENDBRANCH  20  23
ENDBRANCH  16  17
ENDBRANCH   3  16
TORSDOF 5
ENDMDL
MODEL 9
REMARK VINA RESULT:    -5.901      4.458      6.676
REMARK INTER + INTRA:          -8.289
REMARK INTER:                  -7.384
REMARK INTRA:                  -0.905
REMARK UNBOUND:                -0.663
REMARK  Name = 
REMARK  7 active torsions:
REMARK  status: ('A' for Active; 'I' for Inactive)
REMARK    1  A    between atoms: C_1  and  O_2
REMARK    2  A    between atoms: O_2  and  C_3
REMARK    3  A    between atoms: C_10  and  C_11
REMARK    4  A    between atoms: N_13  and  C_14
REMARK    5  A    between atoms: C_14  and  C_15
REMARK    6  A    between atoms: C_18  and  S_19
REMARK    7  A    between atoms: S_19  and  C_20
REMARK                            x       y       z     vdW  Elec       q    Type
REMARK                         _______ _______ _______ _____ _____    ______ ____
ROOT
ATOM      1  C   UNL     1      49.241   7.946  14.718  0.00  0.00    +0.000 C 
ATOM      2  O   UNL     1      48.556   8.933  14.460  0.00  0.00    +0.000 OA
ATOM      3  N   UNL     1      49.454   6.966  13.786  0.00  0.00    +0.000 N 
ATOM      4  H   UNL     1      50.050   6.179  14.009  0.00  0.00    +0.000 HD
ENDROOT
BRANCH   1  12
ATOM      5  C   UNL     1      49.242   5.411  17.062  0.00  0.00    +0.000 A 
ATOM      6  N   UNL     1      49.429   4.598  18.119  0.00  0.00    +0.000 NA
ATOM      7  C   UNL     1      50.179   5.039  19.132  0.00  0.00    +0.000 A 
ATOM      8  N   UNL     1      50.782   6.223  19.222  0.00  0.00    +0.000 NA
ATOM      9  C   UNL     1      50.580   6.995  18.141  0.00  0.00    +0.000 A 
ATOM     10  S   UNL     1      51.270   8.548  18.088  0.00  0.00    +0.000 S 
ATOM     11  C   UNL     1      50.610   8.840  16.554  0.00  0.00    +0.000 A 
ATOM     12  C   UNL     1      49.861   7.783  16.046  0.00  0.00    +0.000 A 
ATOM     13  C   UNL     1      49.838   6.683  17.006  0.00  0.00    +0.000 A 
BRANCH   5  15
ATOM     14  C   UNL     1      47.571   3.917  16.437  0.00  0.00    +0.000 C 
ATOM     15  O   UNL     1      48.477   4.935  16.014  0.00  0.00    +0.000 OA
ENDBRANCH   5  15
ENDBRANCH   1  12
BRANCH   3  16
ATOM     16  C   UNL     1      48.887   7.011  12.455  0.00  0.00    +0.000 C 
BRANCH  16  17
ATOM     17  C   UNL     1      47.461   6.511  12.437  0.00  0.00    +0.000 A 
ATOM     18  C   UNL     1      47.113   5.328  13.112  0.00  0.00    +0.000 A 
ATOM     19  C   UNL     1      45.800   4.846  13.080  0.00  0.00    +0.000 A 
ATOM     20  C   UNL     1      44.819   5.562  12.389  0.00  0.00    +0.000 A 
ATOM     21  C   UNL     1      45.142   6.751  11.731  0.00  0.00    +0.000 A 
ATOM     22  C   UNL     1      46.458   7.223  11.760  0.00  0.00    +0.000 A 
BRANCH  20  23
ATOM     23  S   UNL     1      43.182   4.881  12.226  0.00  0.00    +0.000 S 
ATOM     24  C   UNL     1      43.439   3.223  11.660  0.00  0.00    +0.000 C 
ATOM     25  O   UNL     1      42.608   4.814  13.558  0.00  0.00    +0.000 OA
ATOM     26  O   UNL     1      42.512   5.618  11.171  0.00  0.00    +0.000 OA
ENDBRANCH  20  23
ENDBRANCH  16  17
ENDBRANCH   3  16
TORSDOF 5
ENDMDL
