MODEL 1
REMARK VINA RESULT:    -8.227      0.000      0.000
REMARK INTER + INTRA:         -10.749
REMARK INTER:                 -10.151
REMARK INTRA:                  -0.598
REMARK UNBOUND:                -0.598
REMARK  Name = 
REMARK  4 active torsions:
REMARK  status: ('A' for Active; 'I' for Inactive)
REMARK    1  A    between atoms: C_2  and  C_4
REMARK    2  A    between atoms: C_7  and  N_8
REMARK    3  A    between atoms: N_8  and  C_9
REMARK    4  A    between atoms: C_9  and  C_10
REMARK                            x       y       z     vdW  Elec       q    Type
REMARK                         _______ _______ _______ _____ _____    ______ ____
ROOT
ATOM      1  C   UNL     1      46.591   2.710   7.457  0.00  0.00    +0.000 A 
ATOM      2  C   UNL     1      46.212   4.040   7.656  0.00  0.00    +0.000 A 
ATOM      3  C   UNL     1      45.267   4.362   8.640  0.00  0.00    +0.000 A 
ATOM      4  C   UNL     1      44.696   3.370   9.438  0.00  0.00    +0.000 A 
ATOM      5  C   UNL     1      45.107   2.044   9.251  0.00  0.00    +0.000 A 
ATOM      6  C   UNL     1      46.031   1.709   8.256  0.00  0.00    +0.000 A 
ENDROOT
BRANCH   1   8
ATOM      7  N   UNL     1      47.543   3.071   5.245  0.00  0.00    +0.000 N 
ATOM      8  C   UNL     1      47.536   2.316   6.385  0.00  0.00    +0.000 C 
ATOM      9  O   UNL     1      48.306   1.371   6.517  0.00  0.00    +0.000 OA
ATOM     10  H   UNL     1      48.247   2.837   4.554  0.00  0.00    +0.000 HD
ATOM     11  H   UNL     1      47.115   3.981   5.190  0.00  0.00    +0.000 HD
ENDBRANCH   1   8
BRANCH   4  12
ATOM     12  N   UNL     1      43.766   3.629  10.468  0.00  0.00    +0.000 N 
ATOM     13  H   UNL     1      43.447   2.746  10.858  0.00  0.00    +0.000 HD
BRANCH  12  14
ATOM     14  C   UNL     1      43.938   4.715  11.463  0.00  0.00    +0.000 C 
ATOM     15  C   UNL     1      42.650   5.157  12.148  0.00  0.00    +0.000 C 
ATOM     16  C   UNL     1      43.339   6.084  11.199  0.00  0.00    +0.000 C 
BRANCH  14  17
ATOM     17  C   UNL     1      45.178   4.586  12.336  0.00  0.00    +0.000 A 
ATOM     18  C   UNL     1      45.904   5.709  12.757  0.00  0.00    +0.000 A 
ATOM     19  C   UNL     1      46.986   5.576  13.626  0.00  0.00    +0.000 A 
ATOM     20  C   UNL     1      47.336   4.305  14.050  0.00  0.00    +0.000 A 
ATOM     21  N   UNL     1      46.694   3.188  13.657  0.00  0.00    +0.000 NA
ATOM     22  C   UNL     1      45.647   3.358  12.815  0.00  0.00    +0.000 A 
ENDBRANCH  14  17
ENDBRANCH  12  14
ENDBRANCH   4  12
TORSDOF 4
ENDMDL
MODEL 2
REMARK VINA RESULT:    -8.166      1.164      1.682
REMARK INTER + INTRA:         -10.673
REMARK INTER:                 -10.447
REMARK INTRA:                  -0.226
REMARK UNBOUND:                -0.598
REMARK  Name = 
REMARK  4 active torsions:
REMARK  status: ('A' for Active; 'I' for Inactive)
REMARK    1  A    between atoms: C_2  and  C_4
REMARK    2  A    between atoms: C_7  and  N_8
REMARK    3  A    between atoms: N_8  and  C_9
REMARK    4  A    between atoms: C_9  and  C_10
REMARK                            x       y       z     vdW  Elec       q    Type
REMARK                         _______ _______ _______ _____ _____    ______ ____
ROOT
ATOM      1  C   UNL     1      46.368   2.284   7.767  0.00  0.00    +0.000 A 
ATOM      2  C   UNL     1      45.486   1.704   8.682  0.00  0.00    +0.000 A 
ATOM      3  C   UNL     1      44.648   2.513   9.461  0.00  0.00    +0.000 A 
ATOM      4  C   UNL     1      44.672   3.902   9.333  0.00  0.00    +0.000 A 
ATOM      5  C   UNL     1      45.538   4.471   8.389  0.00  0.00    +0.000 A 
ATOM      6  C   UNL     1      46.395   3.674   7.625  0.00  0.00    +0.000 A 
ENDROOT
BRANCH   1   8
ATOM      7  N   UNL     1      48.449   2.090   6.517  0.00  0.00    +0.000 N 
ATOM      8  C   UNL     1      47.319   1.471   6.972  0.00  0.00    +0.000 C 
ATOM      9  O   UNL     1      47.124   0.281   6.750  0.00  0.00    +0.000 OA
ATOM     10  H   UNL     1      49.126   1.503   6.042  0.00  0.00    +0.000 HD
ATOM     11  H   UNL     1      48.766   2.978   6.872  0.00  0.00    +0.000 HD
ENDBRANCH   1   8
BRANCH   4  12
ATOM     12  N   UNL     1      43.832   4.773  10.059  0.00  0.00    +0.000 N 
ATOM     13  H   UNL     1      42.874   4.658   9.737  0.00  0.00    +0.000 HD
BRANCH  12  14
ATOM     14  C   UNL     1      43.966   5.004  11.518  0.00  0.00    +0.000 C 
ATOM     15  C   UNL     1      43.199   4.017  12.390  0.00  0.00    +0.000 C 
ATOM     16  C   UNL     1      42.762   5.445  12.328  0.00  0.00    +0.000 C 
BRANCH  14  17
ATOM     17  C   UNL     1      45.367   5.387  11.973  0.00  0.00    +0.000 A 
ATOM     18  C   UNL     1      46.012   6.535  11.489  0.00  0.00    +0.000 A 
ATOM     19  C   UNL     1      47.259   6.914  11.983  0.00  0.00    +0.000 A 
ATOM     20  C   UNL     1      47.853   6.122  12.951  0.00  0.00    +0.000 A 
ATOM     21  N   UNL     1      47.294   4.994  13.432  0.00  0.00    +0.000 NA
ATOM     22  C   UNL     1      46.082   4.659  12.931  0.00  0.00    +0.000 A 
ENDBRANCH  14  17
ENDBRANCH  12  14
ENDBRANCH   4  12
TORSDOF 4
ENDMDL
MODEL 3
REMARK VINA RESULT:    -6.016      3.274      6.165
REMARK INTER + INTRA:          -8.021
REMARK INTER:                  -7.669
REMARK INTRA:                  -0.352
REMARK UNBOUND:                -0.598
REMARK  Name = 
REMARK  4 active torsions:
REMARK  status: ('A' for Active; 'I' for Inactive)
REMARK    1  A    between atoms: C_2  and  C_4
REMARK    2  A    between atoms: C_7  and  N_8
REMARK    3  A    between atoms: N_8  and  C_9
REMARK    4  A    between atoms: C_9  and  C_10
REMARK                            x       y       z     vdW  Elec       q    Type
REMARK                         _______ _______ _______ _____ _____    ______ ____
ROOT
ATOM      1  C   UNL     1      48.444   6.908  13.443  0.00  0.00    +0.000 A 
ATOM      2  C   UNL     1      47.707   5.825  13.929  0.00  0.00    +0.000 A 
ATOM      3  C   UNL     1      46.500   5.464  13.317  0.00  0.00    +0.000 A 
ATOM      4  C   UNL     1      46.017   6.168  12.213  0.00  0.00    +0.000 A 
ATOM      5  C   UNL     1      46.780   7.232  11.714  0.00  0.00    +0.000 A 
ATOM      6  C   UNL     1      47.974   7.615  12.333  0.00  0.00    +0.000 A 
ENDROOT
BRANCH   1   8
ATOM      7  N   UNL     1      50.737   7.714  13.292  0.00  0.00    +0.000 N 
ATOM      8  C   UNL     1      49.691   7.366  14.100  0.00  0.00    +0.000 C 
ATOM      9  O   UNL     1      49.782   7.460  15.319  0.00  0.00    +0.000 OA
ATOM     10  H   UNL     1      51.555   8.097  13.752  0.00  0.00    +0.000 HD
ATOM     11  H   UNL     1      50.631   7.883  12.304  0.00  0.00    +0.000 HD
ENDBRANCH   1   8
BRANCH   4  12
ATOM     12  N   UNL     1      44.829   5.836  11.528  0.00  0.00    +0.000 N 
ATOM     13  H   UNL     1      44.680   6.504  10.776  0.00  0.00    +0.000 HD
BRANCH  12  14
ATOM     14  C   UNL     1      44.443   4.443  11.197  0.00  0.00    +0.000 C 
ATOM     15  C   UNL     1      42.973   4.117  11.437  0.00  0.00    +0.000 C 
ATOM     16  C   UNL     1      44.021   3.493  12.302  0.00  0.00    +0.000 C 
BRANCH  14  17
ATOM     17  C   UNL     1      45.076   3.893   9.927  0.00  0.00    +0.000 A 
ATOM     18  C   UNL     1      45.170   2.515   9.686  0.00  0.00    +0.000 A 
ATOM     19  C   UNL     1      45.675   2.034   8.479  0.00  0.00    +0.000 A 
ATOM     20  C   UNL     1      46.097   2.950   7.531  0.00  0.00    +0.000 A 
ATOM     21  N   UNL     1      46.057   4.284   7.718  0.00  0.00    +0.000 NA
ATOM     22  C   UNL     1      45.558   4.713   8.901  0.00  0.00    +0.000 A 
ENDBRANCH  14  17
ENDBRANCH  12  14
ENDBRANCH   4  12
TORSDOF 4
ENDMDL
MODEL 4
REMARK VINA RESULT:    -5.893      3.115      6.592
REMARK INTER + INTRA:          -7.869
REMARK INTER:                  -7.587
REMARK INTRA:                  -0.282
REMARK UNBOUND:                -0.598
REMARK  Name = 
REMARK  4 active torsions:
REMARK  status: ('A' for Active; 'I' for Inactive)
REMARK    1  A    between atoms: C_2  and  C_4
REMARK    2  A    between atoms: C_7  and  N_8
REMARK    3  A    between atoms: N_8  and  C_9
REMARK    4  A    between atoms: C_9  and  C_10
REMARK                            x       y       z     vdW  Elec       q    Type
REMARK                         _______ _______ _______ _____ _____    ______ ____
ROOT
ATOM      1  C   UNL     1      47.826   5.512  15.178  0.00  0.00    +0.000 A 
ATOM      2  C   UNL     1      46.903   4.526  14.817  0.00  0.00    +0.000 A 
ATOM      3  C   UNL     1      46.080   4.710  13.698  0.00  0.00    +0.000 A 
ATOM      4  C   UNL     1      46.169   5.867  12.925  0.00  0.00    +0.000 A 
ATOM      5  C   UNL     1      47.119   6.835  13.277  0.00  0.00    +0.000 A 
ATOM      6  C   UNL     1      47.929   6.671  14.406  0.00  0.00    +0.000 A 
ENDROOT
BRANCH   1   8
ATOM      7  N   UNL     1      48.741   6.473  17.220  0.00  0.00    +0.000 N 
ATOM      8  C   UNL     1      48.669   5.389  16.391  0.00  0.00    +0.000 C 
ATOM      9  O   UNL     1      49.260   4.350  16.665  0.00  0.00    +0.000 OA
ATOM     10  H   UNL     1      49.258   6.349  18.082  0.00  0.00    +0.000 HD
ATOM     11  H   UNL     1      48.094   7.244  17.167  0.00  0.00    +0.000 HD
ENDBRANCH   1   8
BRANCH   4  12
ATOM     12  N   UNL     1      45.396   6.101  11.767  0.00  0.00    +0.000 N 
ATOM     13  H   UNL     1      45.975   6.553  11.065  0.00  0.00    +0.000 HD
BRANCH  12  14
ATOM     14  C   UNL     1      44.428   5.116  11.225  0.00  0.00    +0.000 C 
ATOM     15  C   UNL     1      42.999   5.633  11.101  0.00  0.00    +0.000 C 
ATOM     16  C   UNL     1      43.320   4.578  12.111  0.00  0.00    +0.000 C 
BRANCH  14  17
ATOM     17  C   UNL     1      44.960   4.269  10.077  0.00  0.00    +0.000 A 
ATOM     18  C   UNL     1      44.807   2.875  10.057  0.00  0.00    +0.000 A 
ATOM     19  C   UNL     1      45.225   2.128   8.957  0.00  0.00    +0.000 A 
ATOM     20  C   UNL     1      45.809   2.793   7.893  0.00  0.00    +0.000 A 
ATOM     21  N   UNL     1      46.008   4.125   7.869  0.00  0.00    +0.000 NA
ATOM     22  C   UNL     1      45.587   4.818   8.953  0.00  0.00    +0.000 A 
ENDBRANCH  14  17
ENDBRANCH  12  14
ENDBRANCH   4  12
TORSDOF 4
ENDMDL
MODEL 5
REMARK VINA RESULT:    -5.786      3.551      6.199
REMARK INTER + INTRA:          -7.737
REMARK INTER:                  -7.788
REMARK INTRA:                   0.051
REMARK UNBOUND:                -0.598
REMARK  Name = 
REMARK  4 active torsions:
REMARK  status: ('A' for Active; 'I' for Inactive)
REMARK    1  A    between atoms: C_2  and  C_4
REMARK    2  A    between atoms: C_7  and  N_8
REMARK    3  A    between atoms: N_8  and  C_9
REMARK    4  A    between atoms: C_9  and  C_10
REMARK                            x       y       z     vdW  Elec       q    Type
REMARK                         _______ _______ _______ _____ _____    ______ ____
ROOT
ATOM      1  C   UNL     1      46.666   8.623  12.331  0.00  0.00    +0.000 A 
ATOM      2  C   UNL     1      45.311   8.341  12.526  0.00  0.00    +0.000 A 
ATOM      3  C   UNL     1      44.867   7.013  12.556  0.00  0.00    +0.000 A 
ATOM      4  C   UNL     1      45.762   5.953  12.402  0.00  0.00    +0.000 A 
ATOM      5  C   UNL     1      47.122   6.247  12.239  0.00  0.00    +0.000 A 
ATOM      6  C   UNL     1      47.572   7.569  12.183  0.00  0.00    +0.000 A 
ENDROOT
BRANCH   1   8
ATOM      7  N   UNL     1      47.907  10.496  13.270  0.00  0.00    +0.000 N 
ATOM      8  C   UNL     1      47.170  10.013  12.225  0.00  0.00    +0.000 C 
ATOM      9  O   UNL     1      46.964  10.701  11.232  0.00  0.00    +0.000 OA
ATOM     10  H   UNL     1      48.309  11.419  13.150  0.00  0.00    +0.000 HD
ATOM     11  H   UNL     1      48.301   9.901  13.981  0.00  0.00    +0.000 HD
ENDBRANCH   1   8
BRANCH   4  12
ATOM     12  N   UNL     1      45.387   4.594  12.458  0.00  0.00    +0.000 N 
ATOM     13  H   UNL     1      45.198   4.339  13.423  0.00  0.00    +0.000 HD
BRANCH  12  14
ATOM     14  C   UNL     1      44.485   3.958  11.466  0.00  0.00    +0.000 C 
ATOM     15  C   UNL     1      43.038   4.431  11.531  0.00  0.00    +0.000 C 
ATOM     16  C   UNL     1      43.379   3.032  11.935  0.00  0.00    +0.000 C 
BRANCH  14  17
ATOM     17  C   UNL     1      45.092   3.773  10.083  0.00  0.00    +0.000 A 
ATOM     18  C   UNL     1      45.223   2.505   9.498  0.00  0.00    +0.000 A 
ATOM     19  C   UNL     1      45.702   2.364   8.197  0.00  0.00    +0.000 A 
ATOM     20  C   UNL     1      46.061   3.506   7.501  0.00  0.00    +0.000 A 
ATOM     21  N   UNL     1      45.984   4.747   8.021  0.00  0.00    +0.000 NA
ATOM     22  C   UNL     1      45.512   4.844   9.287  0.00  0.00    +0.000 A 
ENDBRANCH  14  17
ENDBRANCH  12  14
ENDBRANCH   4  12
TORSDOF 4
ENDMDL
MODEL 6
REMARK VINA RESULT:    -5.599      2.511      4.436
REMARK INTER + INTRA:          -7.507
REMARK INTER:                  -7.400
REMARK INTRA:                  -0.107
REMARK UNBOUND:                -0.598
REMARK  Name = 
REMARK  4 active torsions:
REMARK  status: ('A' for Active; 'I' for Inactive)
REMARK    1  A    between atoms: C_2  and  C_4
REMARK    2  A    between atoms: C_7  and  N_8
REMARK    3  A    between atoms: N_8  and  C_9
REMARK    4  A    between atoms: C_9  and  C_10
REMARK                            x       y       z     vdW  Elec       q    Type
REMARK                         _______ _______ _______ _____ _____    ______ ____
ROOT
ATOM      1  C   UNL     1      44.956   3.778  10.272  0.00  0.00    +0.000 A 
ATOM      2  C   UNL     1      44.907   3.272  11.574  0.00  0.00    +0.000 A 
ATOM      3  C   UNL     1      45.319   4.066  12.652  0.00  0.00    +0.000 A 
ATOM      4  C   UNL     1      45.775   5.370  12.451  0.00  0.00    +0.000 A 
ATOM      5  C   UNL     1      45.789   5.877  11.145  0.00  0.00    +0.000 A 
ATOM      6  C   UNL     1      45.403   5.085  10.060  0.00  0.00    +0.000 A 
ENDROOT
BRANCH   1   8
ATOM      7  N   UNL     1      44.320   3.606   7.927  0.00  0.00    +0.000 N 
ATOM      8  C   UNL     1      44.593   2.952   9.096  0.00  0.00    +0.000 C 
ATOM      9  O   UNL     1      44.565   1.727   9.151  0.00  0.00    +0.000 OA
ATOM     10  H   UNL     1      44.150   3.025   7.114  0.00  0.00    +0.000 HD
ATOM     11  H   UNL     1      44.564   4.571   7.772  0.00  0.00    +0.000 HD
ENDBRANCH   1   8
BRANCH   4  12
ATOM     12  N   UNL     1      46.171   6.234  13.494  0.00  0.00    +0.000 N 
ATOM     13  H   UNL     1      45.479   6.197  14.238  0.00  0.00    +0.000 HD
BRANCH  12  14
ATOM     14  C   UNL     1      47.573   6.354  13.962  0.00  0.00    +0.000 C 
ATOM     15  C   UNL     1      48.181   7.742  13.798  0.00  0.00    +0.000 C 
ATOM     16  C   UNL     1      48.685   6.609  12.962  0.00  0.00    +0.000 C 
BRANCH  14  17
ATOM     17  C   UNL     1      47.875   5.614  15.258  0.00  0.00    +0.000 A 
ATOM     18  C   UNL     1      47.265   4.389  15.567  0.00  0.00    +0.000 A 
ATOM     19  C   UNL     1      47.619   3.687  16.718  0.00  0.00    +0.000 A 
ATOM     20  C   UNL     1      48.575   4.235  17.556  0.00  0.00    +0.000 A 
ATOM     21  N   UNL     1      49.173   5.420  17.324  0.00  0.00    +0.000 NA
ATOM     22  C   UNL     1      48.806   6.072  16.196  0.00  0.00    +0.000 A 
ENDBRANCH  14  17
ENDBRANCH  12  14
ENDBRANCH   4  12
TORSDOF 4
ENDMDL
MODEL 7
REMARK VINA RESULT:    -5.508      3.484      5.325
REMARK INTER + INTRA:          -7.394
REMARK INTER:                  -6.866
REMARK INTRA:                  -0.528
REMARK UNBOUND:                -0.598
REMARK  Name = 
REMARK  4 active torsions:
REMARK  status: ('A' for Active; 'I' for Inactive)
REMARK    1  A    between atoms: C_2  and  C_4
REMARK    2  A    between atoms: C_7  and  N_8
REMARK    3  A    between atoms: N_8  and  C_9
REMARK    4  A    between atoms: C_9  and  C_10
REMARK                            x       y       z     vdW  Elec       q    Type
REMARK                         _______ _______ _______ _____ _____    ______ ____
ROOT
ATOM      1  C   UNL     1      44.572   4.162  11.552  0.00  0.00    +0.000 A 
ATOM      2  C   UNL     1      44.371   5.382  10.903  0.00  0.00    +0.000 A 
ATOM      3  C   UNL     1      44.887   6.564  11.451  0.00  0.00    +0.000 A 
ATOM      4  C   UNL     1      45.612   6.544  12.644  0.00  0.00    +0.000 A 
ATOM      5  C   UNL     1      45.834   5.310  13.269  0.00  0.00    +0.000 A 
ATOM      6  C   UNL     1      45.303   4.129  12.742  0.00  0.00    +0.000 A 
ENDROOT
BRANCH   1   8
ATOM      7  N   UNL     1      44.641   2.270  10.020  0.00  0.00    +0.000 N 
ATOM      8  C   UNL     1      43.987   2.898  11.043  0.00  0.00    +0.000 C 
ATOM      9  O   UNL     1      42.974   2.411  11.532  0.00  0.00    +0.000 OA
ATOM     10  H   UNL     1      44.273   1.369   9.735  0.00  0.00    +0.000 HD
ATOM     11  H   UNL     1      45.587   2.496   9.757  0.00  0.00    +0.000 HD
ENDBRANCH   1   8
BRANCH   4  12
ATOM     12  N   UNL     1      46.189   7.690  13.232  0.00  0.00    +0.000 N 
ATOM     13  H   UNL     1      45.788   7.828  14.156  0.00  0.00    +0.000 HD
BRANCH  12  14
ATOM     14  C   UNL     1      47.633   8.014  13.133  0.00  0.00    +0.000 C 
ATOM     15  C   UNL     1      47.966   9.129  12.149  0.00  0.00    +0.000 C 
ATOM     16  C   UNL     1      48.387   7.726  11.848  0.00  0.00    +0.000 C 
BRANCH  14  17
ATOM     17  C   UNL     1      48.375   8.018  14.462  0.00  0.00    +0.000 A 
ATOM     18  C   UNL     1      48.081   8.950  15.468  0.00  0.00    +0.000 A 
ATOM     19  C   UNL     1      48.712   8.883  16.709  0.00  0.00    +0.000 A 
ATOM     20  C   UNL     1      49.646   7.884  16.919  0.00  0.00    +0.000 A 
ATOM     21  N   UNL     1      49.989   6.979  15.982  0.00  0.00    +0.000 NA
ATOM     22  C   UNL     1      49.354   7.074  14.790  0.00  0.00    +0.000 A 
ENDBRANCH  14  17
ENDBRANCH  12  14
ENDBRANCH   4  12
TORSDOF 4
ENDMDL
MODEL 8
REMARK VINA RESULT:    -5.297      4.479      7.554
REMARK INTER + INTRA:          -7.133
REMARK INTER:                  -6.509
REMARK INTRA:                  -0.624
REMARK UNBOUND:                -0.598
REMARK  Name = 
REMARK  4 active torsions:
REMARK  status: ('A' for Active; 'I' for Inactive)
REMARK    1  A    between atoms: C_2  and  C_4
REMARK    2  A    between atoms: C_7  and  N_8
REMARK    3  A    between atoms: N_8  and  C_9
REMARK    4  A    between atoms: C_9  and  C_10
REMARK                            x       y       z     vdW  Elec       q    Type
REMARK                         _______ _______ _______ _____ _____    ______ ____
ROOT
ATOM      1  C   UNL     1      48.173   4.864  17.225  0.00  0.00    +0.000 A 
ATOM      2  C   UNL     1      48.724   6.023  16.672  0.00  0.00    +0.000 A 
ATOM      3  C   UNL     1      48.531   6.316  15.316  0.00  0.00    +0.000 A 
ATOM      4  C   UNL     1      47.784   5.467  14.498  0.00  0.00    +0.000 A 
ATOM      5  C   UNL     1      47.209   4.325  15.070  0.00  0.00    +0.000 A 
ATOM      6  C   UNL     1      47.416   4.011  16.417  0.00  0.00    +0.000 A 
ENDROOT
BRANCH   1   8
ATOM      7  N   UNL     1      48.255   3.163  18.966  0.00  0.00    +0.000 N 
ATOM      8  C   UNL     1      48.408   4.481  18.637  0.00  0.00    +0.000 C 
ATOM      9  O   UNL     1      48.754   5.301  19.480  0.00  0.00    +0.000 OA
ATOM     10  H   UNL     1      48.494   2.904  19.916  0.00  0.00    +0.000 HD
ATOM     11  H   UNL     1      48.213   2.430  18.276  0.00  0.00    +0.000 HD
ENDBRANCH   1   8
BRANCH   4  12
ATOM     12  N   UNL     1      47.521   5.720  13.135  0.00  0.00    +0.000 N 
ATOM     13  H   UNL     1      47.746   4.890  12.593  0.00  0.00    +0.000 HD
BRANCH  12  14
ATOM     14  C   UNL     1      46.325   6.458  12.661  0.00  0.00    +0.000 C 
ATOM     15  C   UNL     1      46.630   7.649  11.761  0.00  0.00    +0.000 C 
ATOM     16  C   UNL     1      46.078   7.879  13.131  0.00  0.00    +0.000 C 
BRANCH  14  17
ATOM     17  C   UNL     1      45.149   5.575  12.268  0.00  0.00    +0.000 A 
ATOM     18  C   UNL     1      45.255   4.614  11.252  0.00  0.00    +0.000 A 
ATOM     19  C   UNL     1      44.193   3.758  10.965  0.00  0.00    +0.000 A 
ATOM     20  C   UNL     1      43.026   3.890  11.698  0.00  0.00    +0.000 A 
ATOM     21  N   UNL     1      42.856   4.812  12.665  0.00  0.00    +0.000 NA
ATOM     22  C   UNL     1      43.910   5.624  12.917  0.00  0.00    +0.000 A 
ENDBRANCH  14  17
ENDBRANCH  12  14
ENDBRANCH   4  12
TORSDOF 4
ENDMDL
