MODEL 1
REMARK VINA RESULT:    -8.016      0.000      0.000
REMARK INTER + INTRA:         -10.915
REMARK INTER:                  -9.890
REMARK INTRA:                  -1.025
REMARK UNBOUND:                -1.025
REMARK  Name = 
REMARK  4 active torsions:
REMARK  status: ('A' for Active; 'I' for Inactive)
REMARK    1  A    between atoms: C_2  and  C_4
REMARK    2  A    between atoms: C_7  and  C_8
REMARK    3  A    between atoms: C_8  and  C_9
REMARK    4  A    between atoms: C_9  and  C_10
REMARK                            x       y       z     vdW  Elec       q    Type
REMARK                         _______ _______ _______ _____ _____    ______ ____
ROOT
ATOM      1  C   UNL     1      46.457   2.531   7.680  0.00  0.00    +0.000 A 
ATOM      2  C   UNL     1      46.423   3.928   7.675  0.00  0.00    +0.000 A 
ATOM      3  C   UNL     1      45.551   4.612   8.526  0.00  0.00    +0.000 A 
ATOM      4  C   UNL     1      44.676   3.912   9.369  0.00  0.00    +0.000 A 
ATOM      5  C   UNL     1      44.673   2.509   9.323  0.00  0.00    +0.000 A 
ATOM      6  C   UNL     1      45.559   1.820   8.486  0.00  0.00    +0.000 A 
ENDROOT
BRANCH   1   8
ATOM      7  N   UNL     1      48.543   2.468   6.438  0.00  0.00    +0.000 N 
ATOM      8  C   UNL     1      47.446   1.774   6.873  0.00  0.00    +0.000 C 
ATOM      9  O   UNL     1      47.324   0.577   6.656  0.00  0.00    +0.000 OA
ATOM     10  H   UNL     1      49.277   1.916   6.008  0.00  0.00    +0.000 HD
ATOM     11  H   UNL     1      48.800   3.363   6.823  0.00  0.00    +0.000 HD
ENDBRANCH   1   8
BRANCH   4  12
ATOM     12  C   UNL     1      43.863   4.639  10.419  0.00  0.00    +0.000 C 
BRANCH  12  13
ATOM     13  C   UNL     1      44.312   4.595  11.883  0.00  0.00    +0.000 C 
ATOM     14  C   UNL     1      44.705   3.256  12.487  0.00  0.00    +0.000 C 
ATOM     15  C   UNL     1      43.469   3.949  12.974  0.00  0.00    +0.000 C 
BRANCH  13  16
ATOM     16  C   UNL     1      45.089   5.849  12.346  0.00  0.00    +0.000 C 
ATOM     17  C   UNL     1      44.798   7.074  11.460  0.00  0.00    +0.000 C 
ATOM     18  C   UNL     1      45.523   8.320  11.961  0.00  0.00    +0.000 C 
ATOM     19  C   UNL     1      47.024   8.076  12.089  0.00  0.00    +0.000 C 
ATOM     20  C   UNL     1      47.326   6.857  12.958  0.00  0.00    +0.000 C 
ATOM     21  C   UNL     1      46.601   5.608  12.453  0.00  0.00    +0.000 C 
ENDBRANCH  13  16
ENDBRANCH  12  13
ENDBRANCH   4  12
TORSDOF 4
ENDMDL
MODEL 2
REMARK VINA RESULT:    -7.937      0.555      1.301
REMARK INTER + INTRA:         -10.817
REMARK INTER:                  -9.667
REMARK INTRA:                  -1.150
REMARK UNBOUND:                -1.025
REMARK  Name = 
REMARK  4 active torsions:
REMARK  status: ('A' for Active; 'I' for Inactive)
REMARK    1  A    between atoms: C_2  and  C_4
REMARK    2  A    between atoms: C_7  and  C_8
REMARK    3  A    between atoms: C_8  and  C_9
REMARK    4  A    between atoms: C_9  and  C_10
REMARK                            x       y       z     vdW  Elec       q    Type
REMARK                         _______ _______ _______ _____ _____    ______ ____
ROOT
ATOM      1  C   UNL     1      46.510   2.518   7.733  0.00  0.00    +0.000 A 
ATOM      2  C   UNL     1      45.701   1.874   8.673  0.00  0.00    +0.000 A 
ATOM      3  C   UNL     1      44.870   2.620   9.512  0.00  0.00    +0.000 A 
ATOM      4  C   UNL     1      44.860   4.021   9.450  0.00  0.00    +0.000 A 
ATOM      5  C   UNL     1      45.721   4.662   8.546  0.00  0.00    +0.000 A 
ATOM      6  C   UNL     1      46.540   3.917   7.690  0.00  0.00    +0.000 A 
ENDROOT
BRANCH   1   8
ATOM      7  N   UNL     1      48.348   2.430   6.148  0.00  0.00    +0.000 N 
ATOM      8  C   UNL     1      47.320   1.755   6.751  0.00  0.00    +0.000 C 
ATOM      9  O   UNL     1      47.124   0.569   6.532  0.00  0.00    +0.000 OA
ATOM     10  H   UNL     1      48.979   1.869   5.586  0.00  0.00    +0.000 HD
ATOM     11  H   UNL     1      48.696   3.307   6.502  0.00  0.00    +0.000 HD
ENDBRANCH   1   8
BRANCH   4  12
ATOM     12  C   UNL     1      43.835   4.824  10.223  0.00  0.00    +0.000 C 
BRANCH  12  13
ATOM     13  C   UNL     1      43.925   4.888  11.751  0.00  0.00    +0.000 C 
ATOM     14  C   UNL     1      43.529   3.662  12.558  0.00  0.00    +0.000 C 
ATOM     15  C   UNL     1      42.689   4.901  12.640  0.00  0.00    +0.000 C 
BRANCH  13  16
ATOM     16  C   UNL     1      45.091   5.753  12.281  0.00  0.00    +0.000 C 
ATOM     17  C   UNL     1      45.392   6.952  11.363  0.00  0.00    +0.000 C 
ATOM     18  C   UNL     1      46.505   7.831  11.926  0.00  0.00    +0.000 C 
ATOM     19  C   UNL     1      47.767   7.020  12.205  0.00  0.00    +0.000 C 
ATOM     20  C   UNL     1      47.480   5.822  13.107  0.00  0.00    +0.000 C 
ATOM     21  C   UNL     1      46.367   4.939  12.540  0.00  0.00    +0.000 C 
ENDBRANCH  13  16
ENDBRANCH  12  13
ENDBRANCH   4  12
TORSDOF 4
ENDMDL
MODEL 3
REMARK VINA RESULT:    -7.528      1.154      2.090
REMARK INTER + INTRA:         -10.314
REMARK INTER:                 -10.110
REMARK INTRA:                  -0.203
REMARK UNBOUND:                -1.025
REMARK  Name = 
REMARK  4 active torsions:
REMARK  status: ('A' for Active; 'I' for Inactive)
REMARK    1  A    between atoms: C_2  and  C_4
REMARK    2  A    between atoms: C_7  and  C_8
REMARK    3  A    between atoms: C_8  and  C_9
REMARK    4  A    between atoms: C_9  and  C_10
REMARK                            x       y       z     vdW  Elec       q    Type
REMARK                         _______ _______ _______ _____ _____    ______ ____
ROOT
ATOM      1  C   UNL     1      46.619   2.681   7.415  0.00  0.00    +0.000 A 
ATOM      2  C   UNL     1      46.123   1.716   8.296  0.00  0.00    +0.000 A 
ATOM      3  C   UNL     1      45.203   2.074   9.284  0.00  0.00    +0.000 A 
ATOM      4  C   UNL     1      44.790   3.405   9.430  0.00  0.00    +0.000 A 
ATOM      5  C   UNL     1      45.340   4.379   8.582  0.00  0.00    +0.000 A 
ATOM      6  C   UNL     1      46.247   4.021   7.578  0.00  0.00    +0.000 A 
ENDROOT
BRANCH   1   8
ATOM      7  N   UNL     1      47.424   3.099   5.162  0.00  0.00    +0.000 N 
ATOM      8  C   UNL     1      47.510   2.320   6.285  0.00  0.00    +0.000 C 
ATOM      9  O   UNL     1      48.324   1.412   6.367  0.00  0.00    +0.000 OA
ATOM     10  H   UNL     1      48.128   2.934   4.451  0.00  0.00    +0.000 HD
ATOM     11  H   UNL     1      46.970   3.999   5.166  0.00  0.00    +0.000 HD
ENDBRANCH   1   8
BRANCH   4  12
ATOM     12  C   UNL     1      43.661   3.768  10.373  0.00  0.00    +0.000 C 
BRANCH  12  13
ATOM     13  C   UNL     1      43.850   4.921  11.364  0.00  0.00    +0.000 C 
ATOM     14  C   UNL     1      42.722   5.247  12.330  0.00  0.00    +0.000 C 
ATOM     15  C   UNL     1      43.073   6.227  11.251  0.00  0.00    +0.000 C 
BRANCH  13  16
ATOM     16  C   UNL     1      45.301   5.093  11.867  0.00  0.00    +0.000 C 
ATOM     17  C   UNL     1      45.444   4.752  13.362  0.00  0.00    +0.000 C 
ATOM     18  C   UNL     1      46.891   4.868  13.833  0.00  0.00    +0.000 C 
ATOM     19  C   UNL     1      47.467   6.247  13.525  0.00  0.00    +0.000 C 
ATOM     20  C   UNL     1      47.322   6.601  12.047  0.00  0.00    +0.000 C 
ATOM     21  C   UNL     1      45.872   6.488  11.575  0.00  0.00    +0.000 C 
ENDBRANCH  13  16
ENDBRANCH  12  13
ENDBRANCH   4  12
TORSDOF 4
ENDMDL
MODEL 4
REMARK VINA RESULT:    -6.031      3.516      6.079
REMARK INTER + INTRA:          -8.467
REMARK INTER:                  -7.920
REMARK INTRA:                  -0.546
REMARK UNBOUND:                -1.025
REMARK  Name = 
REMARK  4 active torsions:
REMARK  status: ('A' for Active; 'I' for Inactive)
REMARK    1  A    between atoms: C_2  and  C_4
REMARK    2  A    between atoms: C_7  and  C_8
REMARK    3  A    between atoms: C_8  and  C_9
REMARK    4  A    between atoms: C_9  and  C_10
REMARK                            x       y       z     vdW  Elec       q    Type
REMARK                         _______ _______ _______ _____ _____    ______ ____
ROOT
ATOM      1  C   UNL     1      48.479   7.212  13.005  0.00  0.00    +0.000 A 
ATOM      2  C   UNL     1      47.773   7.243  11.799  0.00  0.00    +0.000 A 
ATOM      3  C   UNL     1      46.673   6.403  11.609  0.00  0.00    +0.000 A 
ATOM      4  C   UNL     1      46.282   5.497  12.605  0.00  0.00    +0.000 A 
ATOM      5  C   UNL     1      47.035   5.428  13.788  0.00  0.00    +0.000 A 
ATOM      6  C   UNL     1      48.126   6.282  13.990  0.00  0.00    +0.000 A 
ENDROOT
BRANCH   1   8
ATOM      7  N   UNL     1      50.705   7.647  13.875  0.00  0.00    +0.000 N 
ATOM      8  C   UNL     1      49.583   8.165  13.286  0.00  0.00    +0.000 C 
ATOM      9  O   UNL     1      49.522   9.339  12.955  0.00  0.00    +0.000 OA
ATOM     10  H   UNL     1      51.502   8.271  13.938  0.00  0.00    +0.000 HD
ATOM     11  H   UNL     1      50.886   6.656  13.909  0.00  0.00    +0.000 HD
ENDBRANCH   1   8
BRANCH   4  12
ATOM     12  C   UNL     1      44.988   4.719  12.481  0.00  0.00    +0.000 C 
BRANCH  12  13
ATOM     13  C   UNL     1      44.020   5.045  11.340  0.00  0.00    +0.000 C 
ATOM     14  C   UNL     1      43.551   6.480  11.166  0.00  0.00    +0.000 C 
ATOM     15  C   UNL     1      42.568   5.431  11.589  0.00  0.00    +0.000 C 
BRANCH  13  16
ATOM     16  C   UNL     1      44.238   4.199  10.064  0.00  0.00    +0.000 C 
ATOM     17  C   UNL     1      44.506   2.717  10.385  0.00  0.00    +0.000 C 
ATOM     18  C   UNL     1      44.659   1.883   9.117  0.00  0.00    +0.000 C 
ATOM     19  C   UNL     1      45.741   2.453   8.203  0.00  0.00    +0.000 C 
ATOM     20  C   UNL     1      45.492   3.925   7.885  0.00  0.00    +0.000 C 
ATOM     21  C   UNL     1      45.340   4.763   9.156  0.00  0.00    +0.000 C 
ENDBRANCH  13  16
ENDBRANCH  12  13
ENDBRANCH   4  12
TORSDOF 4
ENDMDL
MODEL 5
REMARK VINA RESULT:    -5.512      3.470      5.636
REMARK INTER + INTRA:          -7.826
REMARK INTER:                  -6.574
REMARK INTRA:                  -1.252
REMARK UNBOUND:                -1.025
REMARK  Name = 
REMARK  4 active torsions:
REMARK  status: ('A' for Active; 'I' for Inactive)
REMARK    1  A    between atoms: C_2  and  C_4
REMARK    2  A    between atoms: C_7  and  C_8
REMARK    3  A    between atoms: C_8  and  C_9
REMARK    4  A    between atoms: C_9  and  C_10
REMARK                            x       y       z     vdW  Elec       q    Type
REMARK                         _______ _______ _______ _____ _____    ______ ____
ROOT
ATOM      1  C   UNL     1      44.838   4.709  11.818  0.00  0.00    +0.000 A 
ATOM      2  C   UNL     1      45.160   5.382  10.636  0.00  0.00    +0.000 A 
ATOM      3  C   UNL     1      46.227   6.283  10.610  0.00  0.00    +0.000 A 
ATOM      4  C   UNL     1      46.967   6.552  11.770  0.00  0.00    +0.000 A 
ATOM      5  C   UNL     1      46.598   5.919  12.967  0.00  0.00    +0.000 A 
ATOM      6  C   UNL     1      45.541   5.001  12.993  0.00  0.00    +0.000 A 
ENDROOT
BRANCH   1   8
ATOM      7  N   UNL     1      44.060   2.543  12.594  0.00  0.00    +0.000 N 
ATOM      8  C   UNL     1      43.784   3.664  11.858  0.00  0.00    +0.000 C 
ATOM      9  O   UNL     1      42.701   3.817  11.313  0.00  0.00    +0.000 OA
ATOM     10  H   UNL     1      43.288   1.899  12.729  0.00  0.00    +0.000 HD
ATOM     11  H   UNL     1      44.815   2.510  13.260  0.00  0.00    +0.000 HD
ENDBRANCH   1   8
BRANCH   4  12
ATOM     12  C   UNL     1      48.232   7.382  11.707  0.00  0.00    +0.000 C 
BRANCH  12  13
ATOM     13  C   UNL     1      48.274   8.744  12.407  0.00  0.00    +0.000 C 
ATOM     14  C   UNL     1      47.127   9.717  12.182  0.00  0.00    +0.000 C 
ATOM     15  C   UNL     1      48.487  10.045  11.645  0.00  0.00    +0.000 C 
BRANCH  13  16
ATOM     16  C   UNL     1      48.931   8.718  13.806  0.00  0.00    +0.000 C 
ATOM     17  C   UNL     1      49.832   7.484  14.003  0.00  0.00    +0.000 C 
ATOM     18  C   UNL     1      50.522   7.500  15.364  0.00  0.00    +0.000 C 
ATOM     19  C   UNL     1      49.510   7.632  16.499  0.00  0.00    +0.000 C 
ATOM     20  C   UNL     1      48.604   8.846  16.310  0.00  0.00    +0.000 C 
ATOM     21  C   UNL     1      47.910   8.829  14.946  0.00  0.00    +0.000 C 
ENDBRANCH  13  16
ENDBRANCH  12  13
ENDBRANCH   4  12
TORSDOF 4
ENDMDL
MODEL 6
REMARK VINA RESULT:    -5.427      2.907      4.877
REMARK INTER + INTRA:          -7.721
REMARK INTER:                  -6.775
REMARK INTRA:                  -0.946
REMARK UNBOUND:                -1.025
REMARK  Name = 
REMARK  4 active torsions:
REMARK  status: ('A' for Active; 'I' for Inactive)
REMARK    1  A    between atoms: C_2  and  C_4
REMARK    2  A    between atoms: C_7  and  C_8
REMARK    3  A    between atoms: C_8  and  C_9
REMARK    4  A    between atoms: C_9  and  C_10
REMARK                            x       y       z     vdW  Elec       q    Type
REMARK                         _______ _______ _______ _____ _____    ______ ____
ROOT
ATOM      1  C   UNL     1      44.578   4.147  11.328  0.00  0.00    +0.000 A 
ATOM      2  C   UNL     1      44.654   4.323  12.712  0.00  0.00    +0.000 A 
ATOM      3  C   UNL     1      45.249   5.470  13.242  0.00  0.00    +0.000 A 
ATOM      4  C   UNL     1      45.806   6.443  12.400  0.00  0.00    +0.000 A 
ATOM      5  C   UNL     1      45.780   6.229  11.013  0.00  0.00    +0.000 A 
ATOM      6  C   UNL     1      45.168   5.089  10.478  0.00  0.00    +0.000 A 
ENDROOT
BRANCH   1   8
ATOM      7  N   UNL     1      44.185   2.671   9.439  0.00  0.00    +0.000 N 
ATOM      8  C   UNL     1      43.856   2.997  10.728  0.00  0.00    +0.000 C 
ATOM      9  O   UNL     1      43.053   2.333  11.366  0.00  0.00    +0.000 OA
ATOM     10  H   UNL     1      43.792   1.806   9.085  0.00  0.00    +0.000 HD
ATOM     11  H   UNL     1      45.018   3.021   8.992  0.00  0.00    +0.000 HD
ENDBRANCH   1   8
BRANCH   4  12
ATOM     12  C   UNL     1      46.285   7.768  12.956  0.00  0.00    +0.000 C 
BRANCH  12  13
ATOM     13  C   UNL     1      47.780   7.980  13.211  0.00  0.00    +0.000 C 
ATOM     14  C   UNL     1      48.694   6.766  13.253  0.00  0.00    +0.000 C 
ATOM     15  C   UNL     1      48.454   7.550  14.508  0.00  0.00    +0.000 C 
BRANCH  13  16
ATOM     16  C   UNL     1      48.346   9.288  12.611  0.00  0.00    +0.000 C 
ATOM     17  C   UNL     1      47.237  10.204  12.060  0.00  0.00    +0.000 C 
ATOM     18  C   UNL     1      47.803  11.516  11.524  0.00  0.00    +0.000 C 
ATOM     19  C   UNL     1      48.885  11.269  10.476  0.00  0.00    +0.000 C 
ATOM     20  C   UNL     1      49.985  10.353  11.007  0.00  0.00    +0.000 C 
ATOM     21  C   UNL     1      49.419   9.036  11.542  0.00  0.00    +0.000 C 
ENDBRANCH  13  16
ENDBRANCH  12  13
ENDBRANCH   4  12
TORSDOF 4
ENDMDL
MODEL 7
REMARK VINA RESULT:    -5.112      4.934      7.546
REMARK INTER + INTRA:          -7.332
REMARK INTER:                  -6.687
REMARK INTRA:                  -0.645
REMARK UNBOUND:                -1.025
REMARK  Name = 
REMARK  4 active torsions:
REMARK  status: ('A' for Active; 'I' for Inactive)
REMARK    1  A    between atoms: C_2  and  C_4
REMARK    2  A    between atoms: C_7  and  C_8
REMARK    3  A    between atoms: C_8  and  C_9
REMARK    4  A    between atoms: C_9  and  C_10
REMARK                            x       y       z     vdW  Elec       q    Type
REMARK                         _______ _______ _______ _____ _____    ______ ____
ROOT
ATOM      1  C   UNL     1      48.259   5.222  17.041  0.00  0.00    +0.000 A 
ATOM      2  C   UNL     1      47.379   4.302  16.464  0.00  0.00    +0.000 A 
ATOM      3  C   UNL     1      47.033   4.414  15.115  0.00  0.00    +0.000 A 
ATOM      4  C   UNL     1      47.531   5.464  14.332  0.00  0.00    +0.000 A 
ATOM      5  C   UNL     1      48.364   6.419  14.936  0.00  0.00    +0.000 A 
ATOM      6  C   UNL     1      48.729   6.300  16.282  0.00  0.00    +0.000 A 
ENDROOT
BRANCH   1   8
ATOM      7  N   UNL     1      47.794   4.751  19.379  0.00  0.00    +0.000 N 
ATOM      8  C   UNL     1      48.737   5.071  18.439  0.00  0.00    +0.000 C 
ATOM      9  O   UNL     1      49.919   5.166  18.732  0.00  0.00    +0.000 OA
ATOM     10  H   UNL     1      48.146   4.516  20.300  0.00  0.00    +0.000 HD
ATOM     11  H   UNL     1      46.880   4.406  19.128  0.00  0.00    +0.000 HD
ENDBRANCH   1   8
BRANCH   4  12
ATOM     12  C   UNL     1      47.308   5.488  12.834  0.00  0.00    +0.000 C 
BRANCH  12  13
ATOM     13  C   UNL     1      46.090   6.223  12.266  0.00  0.00    +0.000 C 
ATOM     14  C   UNL     1      46.278   7.622  11.703  0.00  0.00    +0.000 C 
ATOM     15  C   UNL     1      45.476   7.435  12.955  0.00  0.00    +0.000 C 
BRANCH  13  16
ATOM     16  C   UNL     1      45.059   5.301  11.576  0.00  0.00    +0.000 C 
ATOM     17  C   UNL     1      44.944   3.932  12.270  0.00  0.00    +0.000 C 
ATOM     18  C   UNL     1      43.882   3.053  11.616  0.00  0.00    +0.000 C 
ATOM     19  C   UNL     1      44.137   2.893  10.120  0.00  0.00    +0.000 C 
ATOM     20  C   UNL     1      44.263   4.244   9.421  0.00  0.00    +0.000 C 
ATOM     21  C   UNL     1      45.330   5.124  10.075  0.00  0.00    +0.000 C 
ENDBRANCH  13  16
ENDBRANCH  12  13
ENDBRANCH   4  12
TORSDOF 4
ENDMDL
MODEL 8
REMARK VINA RESULT:    -5.103      3.066      5.259
REMARK INTER + INTRA:          -7.322
REMARK INTER:                  -6.762
REMARK INTRA:                  -0.560
REMARK UNBOUND:                -1.025
REMARK  Name = 
REMARK  4 active torsions:
REMARK  status: ('A' for Active; 'I' for Inactive)
REMARK    1  A    between atoms: C_2  and  C_4
REMARK    2  A    between atoms: C_7  and  C_8
REMARK    3  A    between atoms: C_8  and  C_9
REMARK    4  A    between atoms: C_9  and  C_10
REMARK                            x       y       z     vdW  Elec       q    Type
REMARK                         _______ _______ _______ _____ _____    ______ ____
ROOT
ATOM      1  C   UNL     1      44.896   4.042  11.328  0.00  0.00    +0.000 A 
ATOM      2  C   UNL     1      45.315   4.068  12.661  0.00  0.00    +0.000 A 
ATOM      3  C   UNL     1      45.903   5.221  13.189  0.00  0.00    +0.000 A 
ATOM      4  C   UNL     1      46.111   6.352  12.387  0.00  0.00    +0.000 A 
ATOM      5  C   UNL     1      45.743   6.295  11.033  0.00  0.00    +0.000 A 
ATOM      6  C   UNL     1      45.136   5.149  10.505  0.00  0.00    +0.000 A 
ENDROOT
BRANCH   1   8
ATOM      7  N   UNL     1      43.399   2.154  11.635  0.00  0.00    +0.000 N 
ATOM      8  C   UNL     1      44.168   2.878  10.764  0.00  0.00    +0.000 C 
ATOM      9  O   UNL     1      44.202   2.610   9.572  0.00  0.00    +0.000 OA
ATOM     10  H   UNL     1      42.800   1.449  11.220  0.00  0.00    +0.000 HD
ATOM     11  H   UNL     1      43.142   2.505  12.544  0.00  0.00    +0.000 HD
ENDBRANCH   1   8
BRANCH   4  12
ATOM     12  C   UNL     1      46.575   7.659  12.994  0.00  0.00    +0.000 C 
BRANCH  12  13
ATOM     13  C   UNL     1      48.067   8.004  12.986  0.00  0.00    +0.000 C 
ATOM     14  C   UNL     1      48.578   9.014  11.971  0.00  0.00    +0.000 C 
ATOM     15  C   UNL     1      48.995   7.579  11.855  0.00  0.00    +0.000 C 
BRANCH  13  16
ATOM     16  C   UNL     1      48.729   7.990  14.383  0.00  0.00    +0.000 C 
ATOM     17  C   UNL     1      48.591   6.623  15.079  0.00  0.00    +0.000 C 
ATOM     18  C   UNL     1      49.298   6.603  16.431  0.00  0.00    +0.000 C 
ATOM     19  C   UNL     1      48.807   7.732  17.333  0.00  0.00    +0.000 C 
ATOM     20  C   UNL     1      48.929   9.092  16.650  0.00  0.00    +0.000 C 
ATOM     21  C   UNL     1      48.218   9.113  15.296  0.00  0.00    +0.000 C 
ENDBRANCH  13  16
ENDBRANCH  12  13
ENDBRANCH   4  12
TORSDOF 4
ENDMDL
