MODEL 1
REMARK VINA RESULT:    -8.672      0.000      0.000
REMARK INTER + INTRA:         -13.744
REMARK INTER:                 -12.474
REMARK INTRA:                  -1.271
REMARK UNBOUND:                -1.271
REMARK  Name = 
REMARK  8 active torsions:
REMARK  status: ('A' for Active; 'I' for Inactive)
REMARK    1  A    between atoms: N_1  and  C_2
REMARK    2  A    between atoms: C_2  and  C_3
REMARK    3  A    between atoms: C_2  and  C_17
REMARK    4  A    between atoms: C_3  and  N_4
REMARK    5  A    between atoms: C_5  and  C_7
REMARK    6  A    between atoms: C_20  and  C_21
REMARK    7  A    between atoms: C_21  and  N_22
REMARK    8  A    between atoms: C_23  and  C_25
REMARK                            x       y       z     vdW  Elec       q    Type
REMARK                         _______ _______ _______ _____ _____    ______ ____
ROOT
ATOM      1  C   UNL     1      47.142   4.149  15.655  0.00  0.00    +0.000 C 
ENDROOT
BRANCH   1   2
ATOM      2  C   UNL     1      46.699   4.737  14.316  0.00  0.00    +0.000 A 
ATOM      3  C   UNL     1      45.482   4.346  13.730  0.00  0.00    +0.000 A 
ATOM      4  C   UNL     1      45.075   4.848  12.490  0.00  0.00    +0.000 A 
ATOM      5  C   UNL     1      45.872   5.770  11.804  0.00  0.00    +0.000 A 
ATOM      6  C   UNL     1      47.045   6.225  12.409  0.00  0.00    +0.000 A 
ATOM      7  C   UNL     1      47.450   5.717  13.648  0.00  0.00    +0.000 A 
BRANCH   5   8
ATOM      8  C   UNL     1      45.493   6.252  10.434  0.00  0.00    +0.000 C 
BRANCH   8   9
ATOM      9  N   UNL     1      45.901   5.351   9.393  0.00  0.00    +0.000 N 
ATOM     10  C   UNL     1      45.014   4.434   8.879  0.00  0.00    +0.000 C 
ATOM     11  O   UNL     1      43.882   4.270   9.328  0.00  0.00    +0.000 OA
ATOM     12  H   UNL     1      46.748   5.514   8.853  0.00  0.00    +0.000 HD
BRANCH  10  13
ATOM     13  C   UNL     1      45.570   3.560   7.754  0.00  0.00    +0.000 C 
ATOM     14  C   UNL     1      46.003   2.202   8.266  0.00  0.00    +0.000 C 
ATOM     15  C   UNL     1      46.923   1.710   7.167  0.00  0.00    +0.000 C 
ATOM     16  C   UNL     1      47.526   2.977   6.573  0.00  0.00    +0.000 C 
ATOM     17  N   UNL     1      46.829   4.111   7.190  0.00  0.00    +0.000 NA
ATOM     18  H   UNL     1      46.606   4.815   6.487  0.00  0.00    +0.000 HD
ENDBRANCH  10  13
ENDBRANCH   8   9
ENDBRANCH   5   8
ENDBRANCH   1   2
BRANCH   1  19
ATOM     19  N   UNL     1      47.908   2.898  15.466  0.00  0.00    +0.000 NA
ATOM     20  H   UNL     1      47.644   2.500  14.566  0.00  0.00    +0.000 HD
ATOM     21  H   UNL     1      47.562   2.214  16.144  0.00  0.00    +0.000 HD
ENDBRANCH   1  19
BRANCH   1  22
ATOM     22  C   UNL     1      47.953   5.147  16.532  0.00  0.00    +0.000 C 
BRANCH  22  23
ATOM     23  N   UNL     1      49.101   4.542  17.186  0.00  0.00    +0.000 N 
ATOM     24  C   UNL     1      50.376   5.011  17.025  0.00  0.00    +0.000 C 
ATOM     25  O   UNL     1      50.633   5.959  16.288  0.00  0.00    +0.000 OA
ATOM     26  H   UNL     1      48.936   3.683  17.703  0.00  0.00    +0.000 HD
BRANCH  24  27
ATOM     27  C   UNL     1      51.424   4.332  17.790  0.00  0.00    +0.000 A 
ATOM     28  C   UNL     1      52.228   5.075  18.644  0.00  0.00    +0.000 A 
ATOM     29  S   UNL     1      53.415   4.148  19.441  0.00  0.00    +0.000 S 
ATOM     30  C   UNL     1      52.920   2.728  18.642  0.00  0.00    +0.000 A 
ATOM     31  N   UNL     1      53.574   1.553  18.842  0.00  0.00    +0.000 NA
ATOM     32  C   UNL     1      53.117   0.564  18.149  0.00  0.00    +0.000 A 
ATOM     33  N   UNL     1      52.050   0.640  17.288  0.00  0.00    +0.000 N 
ATOM     34  C   UNL     1      51.312   1.788  17.105  0.00  0.00    +0.000 A 
ATOM     35  O   UNL     1      50.292   1.797  16.425  0.00  0.00    +0.000 OA
ATOM     36  C   UNL     1      51.831   2.947  17.816  0.00  0.00    +0.000 A 
ATOM     37  H   UNL     1      51.722  -0.185  16.809  0.00  0.00    +0.000 HD
ENDBRANCH  24  27
ENDBRANCH  22  23
ENDBRANCH   1  22
TORSDOF 8
ENDMDL
MODEL 2
REMARK VINA RESULT:    -7.660      3.444     10.036
REMARK INTER + INTRA:         -12.288
REMARK INTER:                 -11.334
REMARK INTRA:                  -0.954
REMARK UNBOUND:                -1.271
REMARK  Name = 
REMARK  8 active torsions:
REMARK  status: ('A' for Active; 'I' for Inactive)
REMARK    1  A    between atoms: N_1  and  C_2
REMARK    2  A    between atoms: C_2  and  C_3
REMARK    3  A    between atoms: C_2  and  C_17
REMARK    4  A    between atoms: C_3  and  N_4
REMARK    5  A    between atoms: C_5  and  C_7
REMARK    6  A    between atoms: C_20  and  C_21
REMARK    7  A    between atoms: C_21  and  N_22
REMARK    8  A    between atoms: C_23  and  C_25
REMARK                            x       y       z     vdW  Elec       q    Type
REMARK                         _______ _______ _______ _____ _____    ______ ____
ROOT
ATOM      1  C   UNL     1      48.114   3.429  16.736  0.00  0.00    +0.000 C 
ENDROOT
BRANCH   1   2
ATOM      2  C   UNL     1      49.551   3.082  17.123  0.00  0.00    +0.000 A 
ATOM      3  C   UNL     1      50.028   1.766  16.989  0.00  0.00    +0.000 A 
ATOM      4  C   UNL     1      51.330   1.422  17.369  0.00  0.00    +0.000 A 
ATOM      5  C   UNL     1      52.197   2.390  17.883  0.00  0.00    +0.000 A 
ATOM      6  C   UNL     1      51.761   3.715  17.949  0.00  0.00    +0.000 A 
ATOM      7  C   UNL     1      50.458   4.054  17.572  0.00  0.00    +0.000 A 
BRANCH   5   8
ATOM      8  C   UNL     1      53.566   2.021  18.376  0.00  0.00    +0.000 C 
BRANCH   8   9
ATOM      9  N   UNL     1      53.639   0.670  18.857  0.00  0.00    +0.000 N 
ATOM     10  C   UNL     1      54.370  -0.274  18.175  0.00  0.00    +0.000 C 
ATOM     11  O   UNL     1      54.913  -0.051  17.095  0.00  0.00    +0.000 OA
ATOM     12  H   UNL     1      53.367   0.431  19.808  0.00  0.00    +0.000 HD
BRANCH  10  13
ATOM     13  C   UNL     1      54.390  -1.662  18.816  0.00  0.00    +0.000 C 
ATOM     14  C   UNL     1      54.752  -2.735  17.809  0.00  0.00    +0.000 C 
ATOM     15  C   UNL     1      54.258  -4.001  18.480  0.00  0.00    +0.000 C 
ATOM     16  C   UNL     1      53.074  -3.552  19.328  0.00  0.00    +0.000 C 
ATOM     17  N   UNL     1      53.041  -2.086  19.269  0.00  0.00    +0.000 NA
ATOM     18  H   UNL     1      52.858  -1.699  20.195  0.00  0.00    +0.000 HD
ENDBRANCH  10  13
ENDBRANCH   8   9
ENDBRANCH   5   8
ENDBRANCH   1   2
BRANCH   1  19
ATOM     19  N   UNL     1      47.156   3.000  17.778  0.00  0.00    +0.000 NA
ATOM     20  H   UNL     1      47.665   2.438  18.460  0.00  0.00    +0.000 HD
ATOM     21  H   UNL     1      46.507   2.336  17.352  0.00  0.00    +0.000 HD
ENDBRANCH   1  19
BRANCH   1  22
ATOM     22  C   UNL     1      47.908   4.937  16.407  0.00  0.00    +0.000 C 
BRANCH  22  23
ATOM     23  N   UNL     1      47.010   5.169  15.289  0.00  0.00    +0.000 N 
ATOM     24  C   UNL     1      47.411   5.781  14.133  0.00  0.00    +0.000 C 
ATOM     25  O   UNL     1      48.556   6.200  13.981  0.00  0.00    +0.000 OA
ATOM     26  H   UNL     1      46.029   4.945  15.432  0.00  0.00    +0.000 HD
BRANCH  24  27
ATOM     27  C   UNL     1      46.408   5.898  13.073  0.00  0.00    +0.000 A 
ATOM     28  C   UNL     1      46.093   7.155  12.573  0.00  0.00    +0.000 A 
ATOM     29  S   UNL     1      44.891   7.128  11.366  0.00  0.00    +0.000 S 
ATOM     30  C   UNL     1      44.722   5.439  11.497  0.00  0.00    +0.000 A 
ATOM     31  N   UNL     1      43.798   4.772  10.755  0.00  0.00    +0.000 NA
ATOM     32  C   UNL     1      43.752   3.501  10.977  0.00  0.00    +0.000 A 
ATOM     33  N   UNL     1      44.563   2.832  11.861  0.00  0.00    +0.000 N 
ATOM     34  C   UNL     1      45.560   3.450  12.582  0.00  0.00    +0.000 A 
ATOM     35  O   UNL     1      46.348   2.812  13.270  0.00  0.00    +0.000 OA
ATOM     36  C   UNL     1      45.606   4.895  12.413  0.00  0.00    +0.000 A 
ATOM     37  H   UNL     1      44.498   1.830  11.954  0.00  0.00    +0.000 HD
ENDBRANCH  24  27
ENDBRANCH  22  23
ENDBRANCH   1  22
TORSDOF 8
ENDMDL
MODEL 3
REMARK VINA RESULT:    -7.578      2.653      3.584
REMARK INTER + INTRA:         -12.171
REMARK INTER:                 -10.978
REMARK INTRA:                  -1.193
REMARK UNBOUND:                -1.271
REMARK  Name = 
REMARK  8 active torsions:
REMARK  status: ('A' for Active; 'I' for Inactive)
REMARK    1  A    between atoms: N_1  and  C_2
REMARK    2  A    between atoms: C_2  and  C_3
REMARK    3  A    between atoms: C_2  and  C_17
REMARK    4  A    between atoms: C_3  and  N_4
REMARK    5  A    between atoms: C_5  and  C_7
REMARK    6  A    between atoms: C_20  and  C_21
REMARK    7  A    between atoms: C_21  and  N_22
REMARK    8  A    between atoms: C_23  and  C_25
REMARK                            x       y       z     vdW  Elec       q    Type
REMARK                         _______ _______ _______ _____ _____    ______ ____
ROOT
ATOM      1  C   UNL     1      48.744   9.303  13.536  0.00  0.00    +0.000 C 
ENDROOT
BRANCH   1   2
ATOM      2  C   UNL     1      47.654   8.437  12.905  0.00  0.00    +0.000 A 
ATOM      3  C   UNL     1      46.296   8.709  13.147  0.00  0.00    +0.000 A 
ATOM      4  C   UNL     1      45.285   7.909  12.605  0.00  0.00    +0.000 A 
ATOM      5  C   UNL     1      45.605   6.817  11.792  0.00  0.00    +0.000 A 
ATOM      6  C   UNL     1      46.946   6.583  11.480  0.00  0.00    +0.000 A 
ATOM      7  C   UNL     1      47.954   7.383  12.028  0.00  0.00    +0.000 A 
BRANCH   5   8
ATOM      8  C   UNL     1      44.538   5.898  11.274  0.00  0.00    +0.000 C 
BRANCH   8   9
ATOM      9  N   UNL     1      44.888   5.287  10.022  0.00  0.00    +0.000 N 
ATOM     10  C   UNL     1      44.716   3.936   9.835  0.00  0.00    +0.000 C 
ATOM     11  O   UNL     1      44.353   3.174  10.729  0.00  0.00    +0.000 OA
ATOM     12  H   UNL     1      45.037   5.845   9.184  0.00  0.00    +0.000 HD
BRANCH  10  13
ATOM     13  C   UNL     1      45.097   3.423   8.445  0.00  0.00    +0.000 C 
ATOM     14  C   UNL     1      45.844   2.107   8.522  0.00  0.00    +0.000 C 
ATOM     15  C   UNL     1      46.522   2.031   7.169  0.00  0.00    +0.000 C 
ATOM     16  C   UNL     1      46.760   3.483   6.774  0.00  0.00    +0.000 C 
ATOM     17  N   UNL     1      46.078   4.313   7.773  0.00  0.00    +0.000 NA
ATOM     18  H   UNL     1      45.583   5.080   7.317  0.00  0.00    +0.000 HD
ENDBRANCH  10  13
ENDBRANCH   8   9
ENDBRANCH   5   8
ENDBRANCH   1   2
BRANCH   1  19
ATOM     19  N   UNL     1      48.200  10.145  14.623  0.00  0.00    +0.000 NA
ATOM     20  H   UNL     1      47.272   9.794  14.858  0.00  0.00    +0.000 HD
ATOM     21  H   UNL     1      48.017  11.074  14.238  0.00  0.00    +0.000 HD
ENDBRANCH   1  19
BRANCH   1  22
ATOM     22  C   UNL     1      49.964   8.485  14.051  0.00  0.00    +0.000 C 
BRANCH  22  23
ATOM     23  N   UNL     1      49.629   7.549  15.110  0.00  0.00    +0.000 N 
ATOM     24  C   UNL     1      50.577   6.896  15.849  0.00  0.00    +0.000 C 
ATOM     25  O   UNL     1      51.779   7.040  15.639  0.00  0.00    +0.000 OA
ATOM     26  H   UNL     1      48.646   7.316  15.225  0.00  0.00    +0.000 HD
BRANCH  24  27
ATOM     27  C   UNL     1      50.088   6.023  16.918  0.00  0.00    +0.000 A 
ATOM     28  C   UNL     1      50.742   6.021  18.143  0.00  0.00    +0.000 A 
ATOM     29  S   UNL     1      50.070   4.936  19.272  0.00  0.00    +0.000 S 
ATOM     30  C   UNL     1      48.906   4.404  18.150  0.00  0.00    +0.000 A 
ATOM     31  N   UNL     1      48.027   3.419  18.473  0.00  0.00    +0.000 NA
ATOM     32  C   UNL     1      47.222   3.088  17.519  0.00  0.00    +0.000 A 
ATOM     33  N   UNL     1      47.204   3.670  16.275  0.00  0.00    +0.000 N 
ATOM     34  C   UNL     1      48.026   4.717  15.922  0.00  0.00    +0.000 A 
ATOM     35  O   UNL     1      47.906   5.297  14.850  0.00  0.00    +0.000 OA
ATOM     36  C   UNL     1      48.995   5.080  16.944  0.00  0.00    +0.000 A 
ATOM     37  H   UNL     1      46.519   3.387  15.590  0.00  0.00    +0.000 HD
ENDBRANCH  24  27
ENDBRANCH  22  23
ENDBRANCH   1  22
TORSDOF 8
ENDMDL
MODEL 4
REMARK VINA RESULT:    -7.567      1.740      2.146
REMARK INTER + INTRA:         -12.155
REMARK INTER:                 -11.095
REMARK INTRA:                  -1.060
REMARK UNBOUND:                -1.271
REMARK  Name = 
REMARK  8 active torsions:
REMARK  status: ('A' for Active; 'I' for Inactive)
REMARK    1  A    between atoms: N_1  and  C_2
REMARK    2  A    between atoms: C_2  and  C_3
REMARK    3  A    between atoms: C_2  and  C_17
REMARK    4  A    between atoms: C_3  and  N_4
REMARK    5  A    between atoms: C_5  and  C_7
REMARK    6  A    between atoms: C_20  and  C_21
REMARK    7  A    between atoms: C_21  and  N_22
REMARK    8  A    between atoms: C_23  and  C_25
REMARK                            x       y       z     vdW  Elec       q    Type
REMARK                         _______ _______ _______ _____ _____    ______ ____
ROOT
ATOM      1  C   UNL     1      48.643   7.650  14.254  0.00  0.00    +0.000 C 
ENDROOT
BRANCH   1   2
ATOM      2  C   UNL     1      47.555   6.699  13.758  0.00  0.00    +0.000 A 
ATOM      3  C   UNL     1      47.499   5.373  14.223  0.00  0.00    +0.000 A 
ATOM      4  C   UNL     1      46.531   4.478  13.757  0.00  0.00    +0.000 A 
ATOM      5  C   UNL     1      45.580   4.889  12.817  0.00  0.00    +0.000 A 
ATOM      6  C   UNL     1      45.577   6.223  12.405  0.00  0.00    +0.000 A 
ATOM      7  C   UNL     1      46.549   7.114  12.871  0.00  0.00    +0.000 A 
BRANCH   5   8
ATOM      8  C   UNL     1      44.590   3.919  12.242  0.00  0.00    +0.000 C 
BRANCH   8   9
ATOM      9  N   UNL     1      44.970   3.440  10.942  0.00  0.00    +0.000 N 
ATOM     10  C   UNL     1      44.378   3.951   9.811  0.00  0.00    +0.000 C 
ATOM     11  O   UNL     1      43.450   4.757   9.845  0.00  0.00    +0.000 OA
ATOM     12  H   UNL     1      45.825   2.906  10.804  0.00  0.00    +0.000 HD
BRANCH  10  13
ATOM     13  C   UNL     1      44.900   3.376   8.494  0.00  0.00    +0.000 C 
ATOM     14  C   UNL     1      45.695   2.106   8.716  0.00  0.00    +0.000 C 
ATOM     15  C   UNL     1      46.490   1.983   7.432  0.00  0.00    +0.000 C 
ATOM     16  C   UNL     1      46.696   3.419   6.966  0.00  0.00    +0.000 C 
ATOM     17  N   UNL     1      45.893   4.273   7.850  0.00  0.00    +0.000 NA
ATOM     18  H   UNL     1      45.406   4.985   7.306  0.00  0.00    +0.000 HD
ENDBRANCH  10  13
ENDBRANCH   8   9
ENDBRANCH   5   8
ENDBRANCH   1   2
BRANCH   1  19
ATOM     19  N   UNL     1      48.472   9.006  13.688  0.00  0.00    +0.000 NA
ATOM     20  H   UNL     1      49.216   9.158  13.008  0.00  0.00    +0.000 HD
ATOM     21  H   UNL     1      48.677   9.682  14.427  0.00  0.00    +0.000 HD
ENDBRANCH   1  19
BRANCH   1  22
ATOM     22  C   UNL     1      48.738   7.726  15.806  0.00  0.00    +0.000 C 
BRANCH  22  23
ATOM     23  N   UNL     1      49.753   6.851  16.368  0.00  0.00    +0.000 N 
ATOM     24  C   UNL     1      49.471   5.899  17.309  0.00  0.00    +0.000 C 
ATOM     25  O   UNL     1      48.339   5.745  17.760  0.00  0.00    +0.000 OA
ATOM     26  H   UNL     1      50.718   7.036  16.105  0.00  0.00    +0.000 HD
BRANCH  24  27
ATOM     27  C   UNL     1      50.588   5.056  17.742  0.00  0.00    +0.000 A 
ATOM     28  C   UNL     1      51.661   5.641  18.401  0.00  0.00    +0.000 A 
ATOM     29  S   UNL     1      52.890   4.536  18.815  0.00  0.00    +0.000 S 
ATOM     30  C   UNL     1      52.047   3.245  18.095  0.00  0.00    +0.000 A 
ATOM     31  N   UNL     1      52.585   1.997  18.057  0.00  0.00    +0.000 NA
ATOM     32  C   UNL     1      51.856   1.120  17.451  0.00  0.00    +0.000 A 
ATOM     33  N   UNL     1      50.625   1.374  16.898  0.00  0.00    +0.000 N 
ATOM     34  C   UNL     1      50.007   2.603  16.972  0.00  0.00    +0.000 A 
ATOM     35  O   UNL     1      48.859   2.771  16.578  0.00  0.00    +0.000 OA
ATOM     36  C   UNL     1      50.820   3.640  17.588  0.00  0.00    +0.000 A 
ATOM     37  H   UNL     1      50.093   0.629  16.474  0.00  0.00    +0.000 HD
ENDBRANCH  24  27
ENDBRANCH  22  23
ENDBRANCH   1  22
TORSDOF 8
ENDMDL
MODEL 5
REMARK VINA RESULT:    -7.505      3.211      4.451
REMARK INTER + INTRA:         -12.066
REMARK INTER:                 -10.812
REMARK INTRA:                  -1.255
REMARK UNBOUND:                -1.271
REMARK  Name = 
REMARK  8 active torsions:
REMARK  status: ('A' for Active; 'I' for Inactive)
REMARK    1  A    between atoms: N_1  and  C_2
REMARK    2  A    between atoms: C_2  and  C_3
REMARK    3  A    between atoms: C_2  and  C_17
REMARK    4  A    between atoms: C_3  and  N_4
REMARK    5  A    between atoms: C_5  and  C_7
REMARK    6  A    between atoms: C_20  and  C_21
REMARK    7  A    between atoms: C_21  and  N_22
REMARK    8  A    between atoms: C_23  and  C_25
REMARK                            x       y       z     vdW  Elec       q    Type
REMARK                         _______ _______ _______ _____ _____    ______ ____
ROOT
ATOM      1  C   UNL     1      48.052   8.391  13.713  0.00  0.00    +0.000 C 
ENDROOT
BRANCH   1   2
ATOM      2  C   UNL     1      46.957   7.622  12.976  0.00  0.00    +0.000 A 
ATOM      3  C   UNL     1      47.120   6.258  12.676  0.00  0.00    +0.000 A 
ATOM      4  C   UNL     1      46.143   5.544  11.975  0.00  0.00    +0.000 A 
ATOM      5  C   UNL     1      44.965   6.174  11.564  0.00  0.00    +0.000 A 
ATOM      6  C   UNL     1      44.755   7.507  11.923  0.00  0.00    +0.000 A 
ATOM      7  C   UNL     1      45.737   8.218  12.620  0.00  0.00    +0.000 A 
BRANCH   5   8
ATOM      8  C   UNL     1      43.946   5.446  10.735  0.00  0.00    +0.000 C 
BRANCH   8   9
ATOM      9  N   UNL     1      44.508   4.856   9.553  0.00  0.00    +0.000 N 
ATOM     10  C   UNL     1      44.547   3.488   9.409  0.00  0.00    +0.000 C 
ATOM     11  O   UNL     1      44.199   2.710  10.294  0.00  0.00    +0.000 OA
ATOM     12  H   UNL     1      44.667   5.404   8.711  0.00  0.00    +0.000 HD
BRANCH  10  13
ATOM     13  C   UNL     1      45.140   2.995   8.089  0.00  0.00    +0.000 C 
ATOM     14  C   UNL     1      46.079   1.826   8.303  0.00  0.00    +0.000 C 
ATOM     15  C   UNL     1      46.891   1.813   7.023  0.00  0.00    +0.000 C 
ATOM     16  C   UNL     1      46.928   3.268   6.575  0.00  0.00    +0.000 C 
ATOM     17  N   UNL     1      46.025   4.010   7.462  0.00  0.00    +0.000 NA
ATOM     18  H   UNL     1      45.460   4.667   6.923  0.00  0.00    +0.000 HD
ENDBRANCH  10  13
ENDBRANCH   8   9
ENDBRANCH   5   8
ENDBRANCH   1   2
BRANCH   1  19
ATOM     19  N   UNL     1      47.492   9.203  14.815  0.00  0.00    +0.000 NA
ATOM     20  H   UNL     1      48.197   9.265  15.549  0.00  0.00    +0.000 HD
ATOM     21  H   UNL     1      46.738   8.664  15.248  0.00  0.00    +0.000 HD
ENDBRANCH   1  19
BRANCH   1  22
ATOM     22  C   UNL     1      49.197   7.481  14.246  0.00  0.00    +0.000 C 
BRANCH  22  23
ATOM     23  N   UNL     1      49.111   7.216  15.672  0.00  0.00    +0.000 N 
ATOM     24  C   UNL     1      48.628   6.040  16.178  0.00  0.00    +0.000 C 
ATOM     25  O   UNL     1      48.209   5.142  15.452  0.00  0.00    +0.000 OA
ATOM     26  H   UNL     1      49.335   7.985  16.297  0.00  0.00    +0.000 HD
BRANCH  24  27
ATOM     27  C   UNL     1      48.651   5.897  17.635  0.00  0.00    +0.000 A 
ATOM     28  C   UNL     1      49.040   4.685  18.190  0.00  0.00    +0.000 A 
ATOM     29  S   UNL     1      48.988   4.668  19.893  0.00  0.00    +0.000 S 
ATOM     30  C   UNL     1      48.408   6.267  19.945  0.00  0.00    +0.000 A 
ATOM     31  N   UNL     1      48.101   6.858  21.131  0.00  0.00    +0.000 NA
ATOM     32  C   UNL     1      47.640   8.059  21.024  0.00  0.00    +0.000 A 
ATOM     33  N   UNL     1      47.476   8.731  19.838  0.00  0.00    +0.000 N 
ATOM     34  C   UNL     1      47.837   8.204  18.619  0.00  0.00    +0.000 A 
ATOM     35  O   UNL     1      47.795   8.869  17.591  0.00  0.00    +0.000 OA
ATOM     36  C   UNL     1      48.301   6.826  18.683  0.00  0.00    +0.000 A 
ATOM     37  H   UNL     1      47.146   9.685  19.834  0.00  0.00    +0.000 HD
ENDBRANCH  24  27
ENDBRANCH  22  23
ENDBRANCH   1  22
TORSDOF 8
ENDMDL
MODEL 6
REMARK VINA RESULT:    -7.407      1.945      3.142
REMARK INTER + INTRA:         -11.925
REMARK INTER:                 -10.792
REMARK INTRA:                  -1.134
REMARK UNBOUND:                -1.271
REMARK  Name = 
REMARK  8 active torsions:
REMARK  status: ('A' for Active; 'I' for Inactive)
REMARK    1  A    between atoms: N_1  and  C_2
REMARK    2  A    between atoms: C_2  and  C_3
REMARK    3  A    between atoms: C_2  and  C_17
REMARK    4  A    between atoms: C_3  and  N_4
REMARK    5  A    between atoms: C_5  and  C_7
REMARK    6  A    between atoms: C_20  and  C_21
REMARK    7  A    between atoms: C_21  and  N_22
REMARK    8  A    between atoms: C_23  and  C_25
REMARK                            x       y       z     vdW  Elec       q    Type
REMARK                         _______ _______ _______ _____ _____    ______ ____
ROOT
ATOM      1  C   UNL     1      47.932   4.687  17.714  0.00  0.00    +0.000 C 
ENDROOT
BRANCH   1   2
ATOM      2  C   UNL     1      47.808   5.173  16.271  0.00  0.00    +0.000 A 
ATOM      3  C   UNL     1      48.488   6.328  15.845  0.00  0.00    +0.000 A 
ATOM      4  C   UNL     1      48.361   6.807  14.538  0.00  0.00    +0.000 A 
ATOM      5  C   UNL     1      47.557   6.135  13.612  0.00  0.00    +0.000 A 
ATOM      6  C   UNL     1      46.938   4.945  13.999  0.00  0.00    +0.000 A 
ATOM      7  C   UNL     1      47.064   4.472  15.309  0.00  0.00    +0.000 A 
BRANCH   5   8
ATOM      8  C   UNL     1      47.341   6.683  12.232  0.00  0.00    +0.000 C 
BRANCH   8   9
ATOM      9  N   UNL     1      46.580   5.800  11.394  0.00  0.00    +0.000 N 
ATOM     10  C   UNL     1      45.262   6.073  11.110  0.00  0.00    +0.000 C 
ATOM     11  O   UNL     1      44.647   7.010  11.614  0.00  0.00    +0.000 OA
ATOM     12  H   UNL     1      47.034   5.103  10.808  0.00  0.00    +0.000 HD
BRANCH  10  13
ATOM     13  C   UNL     1      44.581   5.068  10.180  0.00  0.00    +0.000 C 
ATOM     14  C   UNL     1      44.759   3.646  10.670  0.00  0.00    +0.000 C 
ATOM     15  C   UNL     1      44.463   2.828   9.429  0.00  0.00    +0.000 C 
ATOM     16  C   UNL     1      44.884   3.720   8.269  0.00  0.00    +0.000 C 
ATOM     17  N   UNL     1      45.217   5.031   8.838  0.00  0.00    +0.000 NA
ATOM     18  H   UNL     1      44.831   5.777   8.259  0.00  0.00    +0.000 HD
ENDBRANCH  10  13
ENDBRANCH   8   9
ENDBRANCH   5   8
ENDBRANCH   1   2
BRANCH   1  19
ATOM     19  N   UNL     1      46.742   5.056  18.511  0.00  0.00    +0.000 NA
ATOM     20  H   UNL     1      46.387   5.942  18.154  0.00  0.00    +0.000 HD
ATOM     21  H   UNL     1      47.056   5.283  19.457  0.00  0.00    +0.000 HD
ENDBRANCH   1  19
BRANCH   1  22
ATOM     22  C   UNL     1      48.203   3.158  17.832  0.00  0.00    +0.000 C 
BRANCH  22  23
ATOM     23  N   UNL     1      49.593   2.836  18.105  0.00  0.00    +0.000 N 
ATOM     24  C   UNL     1      50.385   2.161  17.217  0.00  0.00    +0.000 C 
ATOM     25  O   UNL     1      49.957   1.758  16.138  0.00  0.00    +0.000 OA
ATOM     26  H   UNL     1      49.940   3.047  19.037  0.00  0.00    +0.000 HD
BRANCH  24  27
ATOM     27  C   UNL     1      51.780   1.955  17.610  0.00  0.00    +0.000 A 
ATOM     28  C   UNL     1      52.372   0.719  17.384  0.00  0.00    +0.000 A 
ATOM     29  S   UNL     1      53.987   0.628  17.920  0.00  0.00    +0.000 S 
ATOM     30  C   UNL     1      53.938   2.225  18.507  0.00  0.00    +0.000 A 
ATOM     31  N   UNL     1      55.010   2.765  19.146  0.00  0.00    +0.000 NA
ATOM     32  C   UNL     1      54.827   3.971  19.570  0.00  0.00    +0.000 A 
ATOM     33  N   UNL     1      53.673   4.694  19.394  0.00  0.00    +0.000 N 
ATOM     34  C   UNL     1      52.587   4.219  18.694  0.00  0.00    +0.000 A 
ATOM     35  O   UNL     1      51.618   4.928  18.447  0.00  0.00    +0.000 OA
ATOM     36  C   UNL     1      52.723   2.839  18.254  0.00  0.00    +0.000 A 
ATOM     37  H   UNL     1      53.615   5.648  19.718  0.00  0.00    +0.000 HD
ENDBRANCH  24  27
ENDBRANCH  22  23
ENDBRANCH   1  22
TORSDOF 8
ENDMDL
MODEL 7
REMARK VINA RESULT:    -7.064      4.207      8.397
REMARK INTER + INTRA:         -11.432
REMARK INTER:                 -10.284
REMARK INTRA:                  -1.148
REMARK UNBOUND:                -1.271
REMARK  Name = 
REMARK  8 active torsions:
REMARK  status: ('A' for Active; 'I' for Inactive)
REMARK    1  A    between atoms: N_1  and  C_2
REMARK    2  A    between atoms: C_2  and  C_3
REMARK    3  A    between atoms: C_2  and  C_17
REMARK    4  A    between atoms: C_3  and  N_4
REMARK    5  A    between atoms: C_5  and  C_7
REMARK    6  A    between atoms: C_20  and  C_21
REMARK    7  A    between atoms: C_21  and  N_22
REMARK    8  A    between atoms: C_23  and  C_25
REMARK                            x       y       z     vdW  Elec       q    Type
REMARK                         _______ _______ _______ _____ _____    ______ ____
ROOT
ATOM      1  C   UNL     1      47.704   4.257  17.879  0.00  0.00    +0.000 C 
ENDROOT
BRANCH   1   2
ATOM      2  C   UNL     1      49.000   4.986  17.527  0.00  0.00    +0.000 A 
ATOM      3  C   UNL     1      48.982   6.348  17.180  0.00  0.00    +0.000 A 
ATOM      4  C   UNL     1      50.152   7.025  16.824  0.00  0.00    +0.000 A 
ATOM      5  C   UNL     1      51.382   6.359  16.816  0.00  0.00    +0.000 A 
ATOM      6  C   UNL     1      51.425   5.027  17.233  0.00  0.00    +0.000 A 
ATOM      7  C   UNL     1      50.252   4.353  17.585  0.00  0.00    +0.000 A 
BRANCH   5   8
ATOM      8  C   UNL     1      52.633   7.046  16.353  0.00  0.00    +0.000 C 
BRANCH   8   9
ATOM      9  N   UNL     1      52.606   7.369  14.954  0.00  0.00    +0.000 N 
ATOM     10  C   UNL     1      52.335   8.652  14.541  0.00  0.00    +0.000 C 
ATOM     11  O   UNL     1      52.018   9.554  15.314  0.00  0.00    +0.000 OA
ATOM     12  H   UNL     1      53.008   6.745  14.258  0.00  0.00    +0.000 HD
BRANCH  10  13
ATOM     13  C   UNL     1      52.371   8.864  13.027  0.00  0.00    +0.000 C 
ATOM     14  C   UNL     1      50.983   8.797  12.422  0.00  0.00    +0.000 C 
ATOM     15  C   UNL     1      51.272   8.546  10.956  0.00  0.00    +0.000 C 
ATOM     16  C   UNL     1      52.584   7.772  10.947  0.00  0.00    +0.000 C 
ATOM     17  N   UNL     1      53.083   7.764  12.327  0.00  0.00    +0.000 NA
ATOM     18  H   UNL     1      54.086   7.947  12.342  0.00  0.00    +0.000 HD
ENDBRANCH  10  13
ENDBRANCH   8   9
ENDBRANCH   5   8
ENDBRANCH   1   2
BRANCH   1  19
ATOM     19  N   UNL     1      46.726   5.171  18.507  0.00  0.00    +0.000 NA
ATOM     20  H   UNL     1      47.236   5.974  18.873  0.00  0.00    +0.000 HD
ATOM     21  H   UNL     1      46.362   4.712  19.345  0.00  0.00    +0.000 HD
ENDBRANCH   1  19
BRANCH   1  22
ATOM     22  C   UNL     1      47.055   3.528  16.666  0.00  0.00    +0.000 C 
BRANCH  22  23
ATOM     23  N   UNL     1      46.570   4.433  15.638  0.00  0.00    +0.000 N 
ATOM     24  C   UNL     1      46.708   4.176  14.301  0.00  0.00    +0.000 C 
ATOM     25  O   UNL     1      47.279   3.171  13.887  0.00  0.00    +0.000 OA
ATOM     26  H   UNL     1      46.204   5.329  15.949  0.00  0.00    +0.000 HD
BRANCH  24  27
ATOM     27  C   UNL     1      46.122   5.156  13.383  0.00  0.00    +0.000 A 
ATOM     28  C   UNL     1      46.839   6.303  13.069  0.00  0.00    +0.000 A 
ATOM     29  S   UNL     1      46.015   7.354  12.013  0.00  0.00    +0.000 S 
ATOM     30  C   UNL     1      44.655   6.331  11.969  0.00  0.00    +0.000 A 
ATOM     31  N   UNL     1      43.544   6.680  11.268  0.00  0.00    +0.000 NA
ATOM     32  C   UNL     1      42.575   5.831  11.348  0.00  0.00    +0.000 A 
ATOM     33  N   UNL     1      42.624   4.652  12.050  0.00  0.00    +0.000 N 
ATOM     34  C   UNL     1      43.749   4.221  12.718  0.00  0.00    +0.000 A 
ATOM     35  O   UNL     1      43.806   3.111  13.234  0.00  0.00    +0.000 OA
ATOM     36  C   UNL     1      44.845   5.177  12.711  0.00  0.00    +0.000 A 
ATOM     37  H   UNL     1      41.840   4.017  12.036  0.00  0.00    +0.000 HD
ENDBRANCH  24  27
ENDBRANCH  22  23
ENDBRANCH   1  22
TORSDOF 8
ENDMDL
MODEL 8
REMARK VINA RESULT:    -6.803      2.535      3.366
REMARK INTER + INTRA:         -11.057
REMARK INTER:                  -9.888
REMARK INTRA:                  -1.169
REMARK UNBOUND:                -1.271
REMARK  Name = 
REMARK  8 active torsions:
REMARK  status: ('A' for Active; 'I' for Inactive)
REMARK    1  A    between atoms: N_1  and  C_2
REMARK    2  A    between atoms: C_2  and  C_3
REMARK    3  A    between atoms: C_2  and  C_17
REMARK    4  A    between atoms: C_3  and  N_4
REMARK    5  A    between atoms: C_5  and  C_7
REMARK    6  A    between atoms: C_20  and  C_21
REMARK    7  A    between atoms: C_21  and  N_22
REMARK    8  A    between atoms: C_23  and  C_25
REMARK                            x       y       z     vdW  Elec       q    Type
REMARK                         _______ _______ _______ _____ _____    ______ ____
ROOT
ATOM      1  C   UNL     1      49.629   8.969  13.725  0.00  0.00    +0.000 C 
ENDROOT
BRANCH   1   2
ATOM      2  C   UNL     1      48.350   8.335  13.179  0.00  0.00    +0.000 A 
ATOM      3  C   UNL     1      48.405   7.141  12.438  0.00  0.00    +0.000 A 
ATOM      4  C   UNL     1      47.250   6.562  11.903  0.00  0.00    +0.000 A 
ATOM      5  C   UNL     1      46.001   7.157  12.105  0.00  0.00    +0.000 A 
ATOM      6  C   UNL     1      45.923   8.300  12.903  0.00  0.00    +0.000 A 
ATOM      7  C   UNL     1      47.081   8.878  13.433  0.00  0.00    +0.000 A 
BRANCH   5   8
ATOM      8  C   UNL     1      44.764   6.598  11.465  0.00  0.00    +0.000 C 
BRANCH   8   9
ATOM      9  N   UNL     1      45.048   5.808  10.300  0.00  0.00    +0.000 N 
ATOM     10  C   UNL     1      44.463   4.574  10.137  0.00  0.00    +0.000 C 
ATOM     11  O   UNL     1      43.758   4.046  10.994  0.00  0.00    +0.000 OA
ATOM     12  H   UNL     1      45.479   6.217   9.474  0.00  0.00    +0.000 HD
BRANCH  10  13
ATOM     13  C   UNL     1      44.826   3.855   8.837  0.00  0.00    +0.000 C 
ATOM     14  C   UNL     1      45.422   2.488   9.104  0.00  0.00    +0.000 C 
ATOM     15  C   UNL     1      46.127   2.172   7.800  0.00  0.00    +0.000 C 
ATOM     16  C   UNL     1      46.534   3.531   7.243  0.00  0.00    +0.000 C 
ATOM     17  N   UNL     1      45.917   4.546   8.104  0.00  0.00    +0.000 NA
ATOM     18  H   UNL     1      45.522   5.298   7.538  0.00  0.00    +0.000 HD
ENDBRANCH  10  13
ENDBRANCH   8   9
ENDBRANCH   5   8
ENDBRANCH   1   2
BRANCH   1  19
ATOM     19  N   UNL     1      49.675  10.420  13.439  0.00  0.00    +0.000 NA
ATOM     20  H   UNL     1      48.722  10.779  13.481  0.00  0.00    +0.000 HD
ATOM     21  H   UNL     1      49.935  10.537  12.457  0.00  0.00    +0.000 HD
ENDBRANCH   1  19
BRANCH   1  22
ATOM     22  C   UNL     1      49.845   8.716  15.246  0.00  0.00    +0.000 C 
BRANCH  22  23
ATOM     23  N   UNL     1      49.834   7.308  15.606  0.00  0.00    +0.000 N 
ATOM     24  C   UNL     1      49.086   6.815  16.640  0.00  0.00    +0.000 C 
ATOM     25  O   UNL     1      48.396   7.543  17.350  0.00  0.00    +0.000 OA
ATOM     26  H   UNL     1      50.487   6.703  15.117  0.00  0.00    +0.000 HD
BRANCH  24  27
ATOM     27  C   UNL     1      49.135   5.367  16.850  0.00  0.00    +0.000 A 
ATOM     28  C   UNL     1      47.958   4.633  16.785  0.00  0.00    +0.000 A 
ATOM     29  S   UNL     1      48.176   2.969  17.077  0.00  0.00    +0.000 S 
ATOM     30  C   UNL     1      49.845   3.178  17.340  0.00  0.00    +0.000 A 
ATOM     31  N   UNL     1      50.631   2.126  17.691  0.00  0.00    +0.000 NA
ATOM     32  C   UNL     1      51.870   2.431  17.892  0.00  0.00    +0.000 A 
ATOM     33  N   UNL     1      52.397   3.691  17.754  0.00  0.00    +0.000 N 
ATOM     34  C   UNL     1      51.658   4.774  17.334  0.00  0.00    +0.000 A 
ATOM     35  O   UNL     1      52.178   5.859  17.102  0.00  0.00    +0.000 OA
ATOM     36  C   UNL     1      50.241   4.492  17.158  0.00  0.00    +0.000 A 
ATOM     37  H   UNL     1      53.385   3.848  17.890  0.00  0.00    +0.000 HD
ENDBRANCH  24  27
ENDBRANCH  22  23
ENDBRANCH   1  22
TORSDOF 8
ENDMDL
MODEL 9
REMARK VINA RESULT:    -6.661      3.064      3.865
REMARK INTER + INTRA:         -10.852
REMARK INTER:                 -10.001
REMARK INTRA:                  -0.851
REMARK UNBOUND:                -1.271
REMARK  Name = 
REMARK  8 active torsions:
REMARK  status: ('A' for Active; 'I' for Inactive)
REMARK    1  A    between atoms: N_1  and  C_2
REMARK    2  A    between atoms: C_2  and  C_3
REMARK    3  A    between atoms: C_2  and  C_17
REMARK    4  A    between atoms: C_3  and  N_4
REMARK    5  A    between atoms: C_5  and  C_7
REMARK    6  A    between atoms: C_20  and  C_21
REMARK    7  A    between atoms: C_21  and  N_22
REMARK    8  A    between atoms: C_23  and  C_25
REMARK                            x       y       z     vdW  Elec       q    Type
REMARK                         _______ _______ _______ _____ _____    ______ ____
ROOT
ATOM      1  C   UNL     1      48.632   9.008  13.510  0.00  0.00    +0.000 C 
ENDROOT
BRANCH   1   2
ATOM      2  C   UNL     1      47.550   8.179  12.820  0.00  0.00    +0.000 A 
ATOM      3  C   UNL     1      46.194   8.359  13.148  0.00  0.00    +0.000 A 
ATOM      4  C   UNL     1      45.192   7.588  12.551  0.00  0.00    +0.000 A 
ATOM      5  C   UNL     1      45.517   6.619  11.597  0.00  0.00    +0.000 A 
ATOM      6  C   UNL     1      46.851   6.483  11.206  0.00  0.00    +0.000 A 
ATOM      7  C   UNL     1      47.850   7.254  11.808  0.00  0.00    +0.000 A 
BRANCH   5   8
ATOM      8  C   UNL     1      44.464   5.724  11.012  0.00  0.00    +0.000 C 
BRANCH   8   9
ATOM      9  N   UNL     1      44.921   5.010   9.852  0.00  0.00    +0.000 N 
ATOM     10  C   UNL     1      44.435   3.754   9.572  0.00  0.00    +0.000 C 
ATOM     11  O   UNL     1      43.675   3.146  10.321  0.00  0.00    +0.000 OA
ATOM     12  H   UNL     1      45.413   5.484   9.098  0.00  0.00    +0.000 HD
BRANCH  10  13
ATOM     13  C   UNL     1      44.981   3.123   8.290  0.00  0.00    +0.000 C 
ATOM     14  C   UNL     1      45.827   1.902   8.587  0.00  0.00    +0.000 C 
ATOM     15  C   UNL     1      46.627   1.734   7.311  0.00  0.00    +0.000 C 
ATOM     16  C   UNL     1      46.776   3.146   6.760  0.00  0.00    +0.000 C 
ATOM     17  N   UNL     1      45.938   4.018   7.592  0.00  0.00    +0.000 NA
ATOM     18  H   UNL     1      45.423   4.676   7.007  0.00  0.00    +0.000 HD
ENDBRANCH  10  13
ENDBRANCH   8   9
ENDBRANCH   5   8
ENDBRANCH   1   2
BRANCH   1  19
ATOM     19  N   UNL     1      48.043  10.101  14.313  0.00  0.00    +0.000 NA
ATOM     20  H   UNL     1      47.052  10.161  14.083  0.00  0.00    +0.000 HD
ATOM     21  H   UNL     1      48.426  10.984  13.967  0.00  0.00    +0.000 HD
ENDBRANCH   1  19
BRANCH   1  22
ATOM     22  C   UNL     1      49.597   8.158  14.388  0.00  0.00    +0.000 C 
BRANCH  22  23
ATOM     23  N   UNL     1      49.092   7.907  15.727  0.00  0.00    +0.000 N 
ATOM     24  C   UNL     1      49.908   7.588  16.778  0.00  0.00    +0.000 C 
ATOM     25  O   UNL     1      51.123   7.466  16.646  0.00  0.00    +0.000 OA
ATOM     26  H   UNL     1      48.082   7.880  15.840  0.00  0.00    +0.000 HD
BRANCH  24  27
ATOM     27  C   UNL     1      49.260   7.415  18.080  0.00  0.00    +0.000 A 
ATOM     28  C   UNL     1      48.696   8.517  18.708  0.00  0.00    +0.000 A 
ATOM     29  S   UNL     1      48.006   8.159  20.224  0.00  0.00    +0.000 S 
ATOM     30  C   UNL     1      48.471   6.526  20.110  0.00  0.00    +0.000 A 
ATOM     31  N   UNL     1      48.222   5.659  21.127  0.00  0.00    +0.000 NA
ATOM     32  C   UNL     1      48.658   4.460  20.925  0.00  0.00    +0.000 A 
ATOM     33  N   UNL     1      49.303   4.045  19.786  0.00  0.00    +0.000 N 
ATOM     34  C   UNL     1      49.517   4.865  18.701  0.00  0.00    +0.000 A 
ATOM     35  O   UNL     1      49.985   4.438  17.653  0.00  0.00    +0.000 OA
ATOM     36  C   UNL     1      49.101   6.244  18.910  0.00  0.00    +0.000 A 
ATOM     37  H   UNL     1      49.581   3.081  19.681  0.00  0.00    +0.000 HD
ENDBRANCH  24  27
ENDBRANCH  22  23
ENDBRANCH   1  22
TORSDOF 8
ENDMDL
