MODEL 1
REMARK VINA RESULT:    -8.158      0.000      0.000
REMARK INTER + INTRA:         -13.477
REMARK INTER:                 -11.973
REMARK INTRA:                  -1.505
REMARK UNBOUND:                -1.505
REMARK  Name = 
REMARK  9 active torsions:
REMARK  status: ('A' for Active; 'I' for Inactive)
REMARK    1  A    between atoms: C_1  and  O_2
REMARK    2  A    between atoms: O_2  and  C_3
REMARK    3  A    between atoms: C_10  and  C_11
REMARK    4  A    between atoms: N_13  and  C_14
REMARK    5  A    between atoms: C_14  and  C_15
REMARK    6  A    between atoms: C_18  and  C_19
REMARK    7  A    between atoms: C_19  and  O_20
REMARK    8  A    between atoms: O_20  and  C_21
REMARK    9  A    between atoms: C_21  and  C_22
REMARK                            x       y       z     vdW  Elec       q    Type
REMARK                         _______ _______ _______ _____ _____    ______ ____
ROOT
ATOM      1  C   UNL     1      48.463   6.719  13.395  0.00  0.00    +0.000 C 
ENDROOT
BRANCH   1   2
ATOM      2  C   UNL     1      47.176   6.220  12.797  0.00  0.00    +0.000 A 
ATOM      3  C   UNL     1      46.755   6.669  11.540  0.00  0.00    +0.000 A 
ATOM      4  C   UNL     1      45.530   6.258  11.015  0.00  0.00    +0.000 A 
ATOM      5  C   UNL     1      44.700   5.392  11.740  0.00  0.00    +0.000 A 
ATOM      6  C   UNL     1      45.123   4.937  12.995  0.00  0.00    +0.000 A 
ATOM      7  C   UNL     1      46.350   5.349  13.520  0.00  0.00    +0.000 A 
BRANCH   5   8
ATOM      8  C   UNL     1      43.383   4.938  11.162  0.00  0.00    +0.000 C 
BRANCH   8   9
ATOM      9  O   UNL     1      43.544   4.312   9.889  0.00  0.00    +0.000 OA
BRANCH   9  10
ATOM     10  C   UNL     1      44.122   3.012   9.992  0.00  0.00    +0.000 C 
BRANCH  10  11
ATOM     11  C   UNL     1      45.162   2.849   8.918  0.00  0.00    +0.000 A 
ATOM     12  C   UNL     1      45.607   3.960   8.183  0.00  0.00    +0.000 A 
ATOM     13  C   UNL     1      46.596   3.817   7.205  0.00  0.00    +0.000 A 
ATOM     14  C   UNL     1      47.147   2.562   6.954  0.00  0.00    +0.000 A 
ATOM     15  C   UNL     1      46.699   1.461   7.673  0.00  0.00    +0.000 A 
ATOM     16  F   UNL     1      47.227   0.255   7.426  0.00  0.00    +0.000 F 
ATOM     17  C   UNL     1      45.714   1.592   8.647  0.00  0.00    +0.000 A 
ENDBRANCH  10  11
ENDBRANCH   9  10
ENDBRANCH   8   9
ENDBRANCH   5   8
ENDBRANCH   1   2
BRANCH   1  20
ATOM     18  C   UNL     1      49.445   7.123  15.602  0.00  0.00    +0.000 C 
ATOM     19  O   UNL     1      50.481   7.536  15.080  0.00  0.00    +0.000 OA
ATOM     20  N   UNL     1      48.400   6.691  14.837  0.00  0.00    +0.000 N 
ATOM     21  H   UNL     1      47.558   6.333  15.271  0.00  0.00    +0.000 HD
BRANCH  18  29
ATOM     22  C   UNL     1      48.911   4.584  17.888  0.00  0.00    +0.000 A 
ATOM     23  N   UNL     1      48.671   3.826  18.978  0.00  0.00    +0.000 NA
ATOM     24  C   UNL     1      48.590   4.430  20.167  0.00  0.00    +0.000 A 
ATOM     25  N   UNL     1      48.726   5.729  20.411  0.00  0.00    +0.000 NA
ATOM     26  C   UNL     1      48.955   6.452  19.302  0.00  0.00    +0.000 A 
ATOM     27  S   UNL     1      49.156   8.132  19.435  0.00  0.00    +0.000 S 
ATOM     28  C   UNL     1      49.369   8.286  17.759  0.00  0.00    +0.000 A 
ATOM     29  C   UNL     1      49.294   7.083  17.066  0.00  0.00    +0.000 A 
ATOM     30  C   UNL     1      49.059   5.980  17.996  0.00  0.00    +0.000 A 
BRANCH  22  32
ATOM     31  C   UNL     1      47.850   3.247  16.275  0.00  0.00    +0.000 C 
ATOM     32  O   UNL     1      49.025   3.955  16.664  0.00  0.00    +0.000 OA
ENDBRANCH  22  32
ENDBRANCH  18  29
ENDBRANCH   1  20
TORSDOF 8
ENDMDL
MODEL 2
REMARK VINA RESULT:    -7.735      1.678      2.723
REMARK INTER + INTRA:         -12.857
REMARK INTER:                 -11.552
REMARK INTRA:                  -1.305
REMARK UNBOUND:                -1.505
REMARK  Name = 
REMARK  9 active torsions:
REMARK  status: ('A' for Active; 'I' for Inactive)
REMARK    1  A    between atoms: C_1  and  O_2
REMARK    2  A    between atoms: O_2  and  C_3
REMARK    3  A    between atoms: C_10  and  C_11
REMARK    4  A    between atoms: N_13  and  C_14
REMARK    5  A    between atoms: C_14  and  C_15
REMARK    6  A    between atoms: C_18  and  C_19
REMARK    7  A    between atoms: C_19  and  O_20
REMARK    8  A    between atoms: O_20  and  C_21
REMARK    9  A    between atoms: C_21  and  C_22
REMARK                            x       y       z     vdW  Elec       q    Type
REMARK                         _______ _______ _______ _____ _____    ______ ____
ROOT
ATOM      1  C   UNL     1      48.358   7.016  14.038  0.00  0.00    +0.000 C 
ENDROOT
BRANCH   1   2
ATOM      2  C   UNL     1      47.158   6.555  13.256  0.00  0.00    +0.000 A 
ATOM      3  C   UNL     1      46.590   5.299  13.500  0.00  0.00    +0.000 A 
ATOM      4  C   UNL     1      45.519   4.844  12.729  0.00  0.00    +0.000 A 
ATOM      5  C   UNL     1      45.000   5.637  11.697  0.00  0.00    +0.000 A 
ATOM      6  C   UNL     1      45.563   6.896  11.455  0.00  0.00    +0.000 A 
ATOM      7  C   UNL     1      46.634   7.350  12.228  0.00  0.00    +0.000 A 
BRANCH   5   8
ATOM      8  C   UNL     1      43.832   5.147  10.876  0.00  0.00    +0.000 C 
BRANCH   8   9
ATOM      9  O   UNL     1      44.247   4.612   9.619  0.00  0.00    +0.000 OA
BRANCH   9  10
ATOM     10  C   UNL     1      44.279   3.186   9.620  0.00  0.00    +0.000 C 
BRANCH  10  11
ATOM     11  C   UNL     1      45.321   2.717   8.641  0.00  0.00    +0.000 A 
ATOM     12  C   UNL     1      45.982   3.636   7.810  0.00  0.00    +0.000 A 
ATOM     13  C   UNL     1      46.972   3.207   6.921  0.00  0.00    +0.000 A 
ATOM     14  C   UNL     1      47.308   1.856   6.855  0.00  0.00    +0.000 A 
ATOM     15  C   UNL     1      46.645   0.945   7.669  0.00  0.00    +0.000 A 
ATOM     16  F   UNL     1      46.966  -0.354   7.599  0.00  0.00    +0.000 F 
ATOM     17  C   UNL     1      45.657   1.361   8.556  0.00  0.00    +0.000 A 
ENDBRANCH  10  11
ENDBRANCH   9  10
ENDBRANCH   8   9
ENDBRANCH   5   8
ENDBRANCH   1   2
BRANCH   1  20
ATOM     18  C   UNL     1      48.948   6.481  16.353  0.00  0.00    +0.000 C 
ATOM     19  O   UNL     1      50.001   5.963  15.979  0.00  0.00    +0.000 OA
ATOM     20  N   UNL     1      48.074   7.019  15.453  0.00  0.00    +0.000 N 
ATOM     21  H   UNL     1      47.201   7.425  15.764  0.00  0.00    +0.000 HD
BRANCH  18  29
ATOM     22  C   UNL     1      47.701   8.966  18.408  0.00  0.00    +0.000 A 
ATOM     23  N   UNL     1      47.268   9.731  19.432  0.00  0.00    +0.000 NA
ATOM     24  C   UNL     1      47.192   9.183  20.647  0.00  0.00    +0.000 A 
ATOM     25  N   UNL     1      47.498   7.933  20.977  0.00  0.00    +0.000 NA
ATOM     26  C   UNL     1      47.933   7.204  19.935  0.00  0.00    +0.000 A 
ATOM     27  S   UNL     1      48.365   5.582  20.180  0.00  0.00    +0.000 S 
ATOM     28  C   UNL     1      48.775   5.394  18.544  0.00  0.00    +0.000 A 
ATOM     29  C   UNL     1      48.596   6.543  17.781  0.00  0.00    +0.000 A 
ATOM     30  C   UNL     1      48.078   7.626  18.615  0.00  0.00    +0.000 A 
BRANCH  22  32
ATOM     31  C   UNL     1      48.959  10.234  16.883  0.00  0.00    +0.000 C 
ATOM     32  O   UNL     1      47.749   9.526  17.146  0.00  0.00    +0.000 OA
ENDBRANCH  22  32
ENDBRANCH  18  29
ENDBRANCH   1  20
TORSDOF 8
ENDMDL
MODEL 3
REMARK VINA RESULT:    -7.707      1.939      3.509
REMARK INTER + INTRA:         -12.817
REMARK INTER:                 -11.371
REMARK INTRA:                  -1.445
REMARK UNBOUND:                -1.505
REMARK  Name = 
REMARK  9 active torsions:
REMARK  status: ('A' for Active; 'I' for Inactive)
REMARK    1  A    between atoms: C_1  and  O_2
REMARK    2  A    between atoms: O_2  and  C_3
REMARK    3  A    between atoms: C_10  and  C_11
REMARK    4  A    between atoms: N_13  and  C_14
REMARK    5  A    between atoms: C_14  and  C_15
REMARK    6  A    between atoms: C_18  and  C_19
REMARK    7  A    between atoms: C_19  and  O_20
REMARK    8  A    between atoms: O_20  and  C_21
REMARK    9  A    between atoms: C_21  and  C_22
REMARK                            x       y       z     vdW  Elec       q    Type
REMARK                         _______ _______ _______ _____ _____    ______ ____
ROOT
ATOM      1  C   UNL     1      47.212   4.419  14.926  0.00  0.00    +0.000 C 
ENDROOT
BRANCH   1   2
ATOM      2  C   UNL     1      46.333   4.456  13.706  0.00  0.00    +0.000 A 
ATOM      3  C   UNL     1      45.789   5.666  13.259  0.00  0.00    +0.000 A 
ATOM      4  C   UNL     1      44.920   5.691  12.167  0.00  0.00    +0.000 A 
ATOM      5  C   UNL     1      44.575   4.505  11.506  0.00  0.00    +0.000 A 
ATOM      6  C   UNL     1      45.123   3.295  11.948  0.00  0.00    +0.000 A 
ATOM      7  C   UNL     1      45.993   3.271  13.041  0.00  0.00    +0.000 A 
BRANCH   5   8
ATOM      8  C   UNL     1      43.647   4.539  10.316  0.00  0.00    +0.000 C 
BRANCH   8   9
ATOM      9  O   UNL     1      44.123   3.728   9.242  0.00  0.00    +0.000 OA
BRANCH   9  10
ATOM     10  C   UNL     1      45.209   4.335   8.544  0.00  0.00    +0.000 C 
BRANCH  10  11
ATOM     11  C   UNL     1      45.978   3.270   7.811  0.00  0.00    +0.000 A 
ATOM     12  C   UNL     1      46.739   3.594   6.676  0.00  0.00    +0.000 A 
ATOM     13  C   UNL     1      47.479   2.612   6.010  0.00  0.00    +0.000 A 
ATOM     14  C   UNL     1      47.462   1.297   6.474  0.00  0.00    +0.000 A 
ATOM     15  C   UNL     1      46.700   0.974   7.590  0.00  0.00    +0.000 A 
ATOM     16  F   UNL     1      46.683  -0.291   8.031  0.00  0.00    +0.000 F 
ATOM     17  C   UNL     1      45.959   1.944   8.259  0.00  0.00    +0.000 A 
ENDBRANCH  10  11
ENDBRANCH   9  10
ENDBRANCH   8   9
ENDBRANCH   5   8
ENDBRANCH   1   2
BRANCH   1  20
ATOM     18  C   UNL     1      48.664   5.978  16.133  0.00  0.00    +0.000 C 
ATOM     19  O   UNL     1      49.345   5.041  16.551  0.00  0.00    +0.000 OA
ATOM     20  N   UNL     1      47.583   5.754  15.328  0.00  0.00    +0.000 N 
ATOM     21  H   UNL     1      47.015   6.526  15.005  0.00  0.00    +0.000 HD
BRANCH  18  29
ATOM     22  C   UNL     1      48.804   8.928  14.334  0.00  0.00    +0.000 A 
ATOM     23  N   UNL     1      48.977  10.191  13.892  0.00  0.00    +0.000 NA
ATOM     24  C   UNL     1      49.371  11.121  14.766  0.00  0.00    +0.000 A 
ATOM     25  N   UNL     1      49.617  10.945  16.059  0.00  0.00    +0.000 NA
ATOM     26  C   UNL     1      49.443   9.675  16.461  0.00  0.00    +0.000 A 
ATOM     27  S   UNL     1      49.712   9.276  18.088  0.00  0.00    +0.000 S 
ATOM     28  C   UNL     1      49.328   7.648  17.801  0.00  0.00    +0.000 A 
ATOM     29  C   UNL     1      48.990   7.371  16.481  0.00  0.00    +0.000 A 
ATOM     30  C   UNL     1      49.047   8.592  15.680  0.00  0.00    +0.000 A 
BRANCH  22  32
ATOM     31  C   UNL     1      49.332   7.644  12.438  0.00  0.00    +0.000 C 
ATOM     32  O   UNL     1      48.367   7.973  13.437  0.00  0.00    +0.000 OA
ENDBRANCH  22  32
ENDBRANCH  18  29
ENDBRANCH   1  20
TORSDOF 8
ENDMDL
MODEL 4
REMARK VINA RESULT:    -7.504      1.624      1.986
REMARK INTER + INTRA:         -12.518
REMARK INTER:                 -11.062
REMARK INTRA:                  -1.456
REMARK UNBOUND:                -1.505
REMARK  Name = 
REMARK  9 active torsions:
REMARK  status: ('A' for Active; 'I' for Inactive)
REMARK    1  A    between atoms: C_1  and  O_2
REMARK    2  A    between atoms: O_2  and  C_3
REMARK    3  A    between atoms: C_10  and  C_11
REMARK    4  A    between atoms: N_13  and  C_14
REMARK    5  A    between atoms: C_14  and  C_15
REMARK    6  A    between atoms: C_18  and  C_19
REMARK    7  A    between atoms: C_19  and  O_20
REMARK    8  A    between atoms: O_20  and  C_21
REMARK    9  A    between atoms: C_21  and  C_22
REMARK                            x       y       z     vdW  Elec       q    Type
REMARK                         _______ _______ _______ _____ _____    ______ ____
ROOT
ATOM      1  C   UNL     1      48.684   7.890  12.571  0.00  0.00    +0.000 C 
ENDROOT
BRANCH   1   2
ATOM      2  C   UNL     1      47.439   7.059  12.431  0.00  0.00    +0.000 A 
ATOM      3  C   UNL     1      47.374   5.776  12.988  0.00  0.00    +0.000 A 
ATOM      4  C   UNL     1      46.243   4.979  12.800  0.00  0.00    +0.000 A 
ATOM      5  C   UNL     1      45.159   5.449  12.047  0.00  0.00    +0.000 A 
ATOM      6  C   UNL     1      45.220   6.735  11.495  0.00  0.00    +0.000 A 
ATOM      7  C   UNL     1      46.351   7.532  11.684  0.00  0.00    +0.000 A 
BRANCH   5   8
ATOM      8  C   UNL     1      43.933   4.590  11.860  0.00  0.00    +0.000 C 
BRANCH   8   9
ATOM      9  O   UNL     1      43.739   4.224  10.494  0.00  0.00    +0.000 OA
BRANCH   9  10
ATOM     10  C   UNL     1      44.127   2.877  10.232  0.00  0.00    +0.000 C 
BRANCH  10  11
ATOM     11  C   UNL     1      45.124   2.863   9.105  0.00  0.00    +0.000 A 
ATOM     12  C   UNL     1      45.506   4.059   8.477  0.00  0.00    +0.000 A 
ATOM     13  C   UNL     1      46.455   4.053   7.451  0.00  0.00    +0.000 A 
ATOM     14  C   UNL     1      47.028   2.850   7.043  0.00  0.00    +0.000 A 
ATOM     15  C   UNL     1      46.642   1.664   7.657  0.00  0.00    +0.000 A 
ATOM     16  F   UNL     1      47.192   0.509   7.260  0.00  0.00    +0.000 F 
ATOM     17  C   UNL     1      45.697   1.659   8.679  0.00  0.00    +0.000 A 
ENDBRANCH  10  11
ENDBRANCH   9  10
ENDBRANCH   8   9
ENDBRANCH   5   8
ENDBRANCH   1   2
BRANCH   1  20
ATOM     18  C   UNL     1      49.723   7.720  14.782  0.00  0.00    +0.000 C 
ATOM     19  O   UNL     1      49.054   8.672  15.185  0.00  0.00    +0.000 OA
ATOM     20  N   UNL     1      49.606   7.276  13.496  0.00  0.00    +0.000 N 
ATOM     21  H   UNL     1      50.174   6.507  13.164  0.00  0.00    +0.000 HD
BRANCH  18  29
ATOM     22  C   UNL     1      49.405   5.188  17.115  0.00  0.00    +0.000 A 
ATOM     23  N   UNL     1      49.574   4.268  18.087  0.00  0.00    +0.000 NA
ATOM     24  C   UNL     1      50.797   4.096  18.594  0.00  0.00    +0.000 A 
ATOM     25  N   UNL     1      51.903   4.741  18.240  0.00  0.00    +0.000 NA
ATOM     26  C   UNL     1      51.696   5.655  17.277  0.00  0.00    +0.000 A 
ATOM     27  S   UNL     1      53.005   6.569  16.705  0.00  0.00    +0.000 S 
ATOM     28  C   UNL     1      52.006   7.413  15.625  0.00  0.00    +0.000 A 
ATOM     29  C   UNL     1      50.670   7.026  15.670  0.00  0.00    +0.000 A 
ATOM     30  C   UNL     1      50.488   5.961  16.654  0.00  0.00    +0.000 A 
BRANCH  22  32
ATOM     31  C   UNL     1      47.461   4.110  16.354  0.00  0.00    +0.000 C 
ATOM     32  O   UNL     1      48.145   5.344  16.570  0.00  0.00    +0.000 OA
ENDBRANCH  22  32
ENDBRANCH  18  29
ENDBRANCH   1  20
TORSDOF 8
ENDMDL
MODEL 5
REMARK VINA RESULT:    -7.405      2.106      2.879
REMARK INTER + INTRA:         -12.373
REMARK INTER:                 -11.237
REMARK INTRA:                  -1.136
REMARK UNBOUND:                -1.505
REMARK  Name = 
REMARK  9 active torsions:
REMARK  status: ('A' for Active; 'I' for Inactive)
REMARK    1  A    between atoms: C_1  and  O_2
REMARK    2  A    between atoms: O_2  and  C_3
REMARK    3  A    between atoms: C_10  and  C_11
REMARK    4  A    between atoms: N_13  and  C_14
REMARK    5  A    between atoms: C_14  and  C_15
REMARK    6  A    between atoms: C_18  and  C_19
REMARK    7  A    between atoms: C_19  and  O_20
REMARK    8  A    between atoms: O_20  and  C_21
REMARK    9  A    between atoms: C_21  and  C_22
REMARK                            x       y       z     vdW  Elec       q    Type
REMARK                         _______ _______ _______ _____ _____    ______ ____
ROOT
ATOM      1  C   UNL     1      47.870   5.004  14.699  0.00  0.00    +0.000 C 
ENDROOT
BRANCH   1   2
ATOM      2  C   UNL     1      46.838   4.815  13.621  0.00  0.00    +0.000 A 
ATOM      3  C   UNL     1      46.282   5.920  12.967  0.00  0.00    +0.000 A 
ATOM      4  C   UNL     1      45.276   5.747  12.015  0.00  0.00    +0.000 A 
ATOM      5  C   UNL     1      44.805   4.465  11.704  0.00  0.00    +0.000 A 
ATOM      6  C   UNL     1      45.364   3.358  12.353  0.00  0.00    +0.000 A 
ATOM      7  C   UNL     1      46.371   3.532  13.305  0.00  0.00    +0.000 A 
BRANCH   5   8
ATOM      8  C   UNL     1      43.728   4.282  10.663  0.00  0.00    +0.000 C 
BRANCH   8   9
ATOM      9  O   UNL     1      44.118   3.360   9.645  0.00  0.00    +0.000 OA
BRANCH   9  10
ATOM     10  C   UNL     1      44.681   4.012   8.508  0.00  0.00    +0.000 C 
BRANCH  10  11
ATOM     11  C   UNL     1      45.708   3.109   7.882  0.00  0.00    +0.000 A 
ATOM     12  C   UNL     1      46.628   3.615   6.948  0.00  0.00    +0.000 A 
ATOM     13  C   UNL     1      47.602   2.785   6.388  0.00  0.00    +0.000 A 
ATOM     14  C   UNL     1      47.666   1.442   6.756  0.00  0.00    +0.000 A 
ATOM     15  C   UNL     1      46.749   0.939   7.671  0.00  0.00    +0.000 A 
ATOM     16  F   UNL     1      46.809  -0.354   8.019  0.00  0.00    +0.000 F 
ATOM     17  C   UNL     1      45.773   1.756   8.234  0.00  0.00    +0.000 A 
ENDBRANCH  10  11
ENDBRANCH   9  10
ENDBRANCH   8   9
ENDBRANCH   5   8
ENDBRANCH   1   2
BRANCH   1  20
ATOM     18  C   UNL     1      48.948   6.916  15.785  0.00  0.00    +0.000 C 
ATOM     19  O   UNL     1      49.983   6.265  15.934  0.00  0.00    +0.000 OA
ATOM     20  N   UNL     1      47.851   6.361  15.190  0.00  0.00    +0.000 N 
ATOM     21  H   UNL     1      46.997   6.894  15.089  0.00  0.00    +0.000 HD
BRANCH  18  29
ATOM     22  C   UNL     1      47.645   8.439  18.603  0.00  0.00    +0.000 A 
ATOM     23  N   UNL     1      47.199   9.292  19.548  0.00  0.00    +0.000 NA
ATOM     24  C   UNL     1      47.389  10.601  19.364  0.00  0.00    +0.000 A 
ATOM     25  N   UNL     1      47.988  11.181  18.330  0.00  0.00    +0.000 NA
ATOM     26  C   UNL     1      48.412  10.303  17.406  0.00  0.00    +0.000 A 
ATOM     27  S   UNL     1      49.202  10.875  16.018  0.00  0.00    +0.000 S 
ATOM     28  C   UNL     1      49.384   9.300  15.414  0.00  0.00    +0.000 A 
ATOM     29  C   UNL     1      48.856   8.313  16.240  0.00  0.00    +0.000 A 
ATOM     30  C   UNL     1      48.284   8.916  17.442  0.00  0.00    +0.000 A 
BRANCH  22  32
ATOM     31  C   UNL     1      48.526   6.487  19.567  0.00  0.00    +0.000 C 
ATOM     32  O   UNL     1      47.476   7.084  18.808  0.00  0.00    +0.000 OA
ENDBRANCH  22  32
ENDBRANCH  18  29
ENDBRANCH   1  20
TORSDOF 8
ENDMDL
MODEL 6
REMARK VINA RESULT:    -7.168      1.645      2.624
REMARK INTER + INTRA:         -12.026
REMARK INTER:                 -11.118
REMARK INTRA:                  -0.908
REMARK UNBOUND:                -1.505
REMARK  Name = 
REMARK  9 active torsions:
REMARK  status: ('A' for Active; 'I' for Inactive)
REMARK    1  A    between atoms: C_1  and  O_2
REMARK    2  A    between atoms: O_2  and  C_3
REMARK    3  A    between atoms: C_10  and  C_11
REMARK    4  A    between atoms: N_13  and  C_14
REMARK    5  A    between atoms: C_14  and  C_15
REMARK    6  A    between atoms: C_18  and  C_19
REMARK    7  A    between atoms: C_19  and  O_20
REMARK    8  A    between atoms: O_20  and  C_21
REMARK    9  A    between atoms: C_21  and  C_22
REMARK                            x       y       z     vdW  Elec       q    Type
REMARK                         _______ _______ _______ _____ _____    ______ ____
ROOT
ATOM      1  C   UNL     1      47.250   4.380  15.455  0.00  0.00    +0.000 C 
ENDROOT
BRANCH   1   2
ATOM      2  C   UNL     1      46.705   4.817  14.123  0.00  0.00    +0.000 A 
ATOM      3  C   UNL     1      45.605   4.163  13.556  0.00  0.00    +0.000 A 
ATOM      4  C   UNL     1      45.141   4.524  12.290  0.00  0.00    +0.000 A 
ATOM      5  C   UNL     1      45.773   5.544  11.567  0.00  0.00    +0.000 A 
ATOM      6  C   UNL     1      46.870   6.204  12.135  0.00  0.00    +0.000 A 
ATOM      7  C   UNL     1      47.333   5.842  13.402  0.00  0.00    +0.000 A 
BRANCH   5   8
ATOM      8  C   UNL     1      45.259   5.942  10.205  0.00  0.00    +0.000 C 
BRANCH   8   9
ATOM      9  O   UNL     1      45.875   5.191   9.159  0.00  0.00    +0.000 OA
BRANCH   9  10
ATOM     10  C   UNL     1      45.046   4.130   8.690  0.00  0.00    +0.000 C 
BRANCH  10  11
ATOM     11  C   UNL     1      45.890   3.147   7.927  0.00  0.00    +0.000 A 
ATOM     12  C   UNL     1      46.694   3.576   6.858  0.00  0.00    +0.000 A 
ATOM     13  C   UNL     1      47.503   2.669   6.167  0.00  0.00    +0.000 A 
ATOM     14  C   UNL     1      47.514   1.326   6.538  0.00  0.00    +0.000 A 
ATOM     15  C   UNL     1      46.709   0.899   7.588  0.00  0.00    +0.000 A 
ATOM     16  F   UNL     1      46.718  -0.394   7.939  0.00  0.00    +0.000 F 
ATOM     17  C   UNL     1      45.899   1.793   8.281  0.00  0.00    +0.000 A 
ENDBRANCH  10  11
ENDBRANCH   9  10
ENDBRANCH   8   9
ENDBRANCH   5   8
ENDBRANCH   1   2
BRANCH   1  20
ATOM     18  C   UNL     1      49.127   5.228  16.780  0.00  0.00    +0.000 C 
ATOM     19  O   UNL     1      49.578   4.088  16.895  0.00  0.00    +0.000 OA
ATOM     20  N   UNL     1      47.972   5.458  16.089  0.00  0.00    +0.000 N 
ATOM     21  H   UNL     1      47.595   6.394  16.015  0.00  0.00    +0.000 HD
BRANCH  18  29
ATOM     22  C   UNL     1      49.050   6.710  19.903  0.00  0.00    +0.000 A 
ATOM     23  N   UNL     1      49.195   7.502  20.986  0.00  0.00    +0.000 NA
ATOM     24  C   UNL     1      50.024   8.545  20.905  0.00  0.00    +0.000 A 
ATOM     25  N   UNL     1      50.750   8.904  19.852  0.00  0.00    +0.000 NA
ATOM     26  C   UNL     1      50.574   8.100  18.791  0.00  0.00    +0.000 A 
ATOM     27  S   UNL     1      51.430   8.415  17.360  0.00  0.00    +0.000 S 
ATOM     28  C   UNL     1      50.711   7.089  16.582  0.00  0.00    +0.000 A 
ATOM     29  C   UNL     1      49.816   6.383  17.379  0.00  0.00    +0.000 A 
ATOM     30  C   UNL     1      49.745   6.983  18.710  0.00  0.00    +0.000 A 
BRANCH  22  32
ATOM     31  C   UNL     1      48.620   4.673  20.992  0.00  0.00    +0.000 C 
ATOM     32  O   UNL     1      48.215   5.614  19.998  0.00  0.00    +0.000 OA
ENDBRANCH  22  32
ENDBRANCH  18  29
ENDBRANCH   1  20
TORSDOF 8
ENDMDL
MODEL 7
REMARK VINA RESULT:    -7.152      2.351      2.894
REMARK INTER + INTRA:         -12.001
REMARK INTER:                 -11.043
REMARK INTRA:                  -0.958
REMARK UNBOUND:                -1.505
REMARK  Name = 
REMARK  9 active torsions:
REMARK  status: ('A' for Active; 'I' for Inactive)
REMARK    1  A    between atoms: C_1  and  O_2
REMARK    2  A    between atoms: O_2  and  C_3
REMARK    3  A    between atoms: C_10  and  C_11
REMARK    4  A    between atoms: N_13  and  C_14
REMARK    5  A    between atoms: C_14  and  C_15
REMARK    6  A    between atoms: C_18  and  C_19
REMARK    7  A    between atoms: C_19  and  O_20
REMARK    8  A    between atoms: O_20  and  C_21
REMARK    9  A    between atoms: C_21  and  C_22
REMARK                            x       y       z     vdW  Elec       q    Type
REMARK                         _______ _______ _______ _____ _____    ______ ____
ROOT
ATOM      1  C   UNL     1      49.069   7.312  15.277  0.00  0.00    +0.000 C 
ENDROOT
BRANCH   1   2
ATOM      2  C   UNL     1      47.975   6.621  14.510  0.00  0.00    +0.000 A 
ATOM      3  C   UNL     1      47.529   5.351  14.896  0.00  0.00    +0.000 A 
ATOM      4  C   UNL     1      46.561   4.682  14.146  0.00  0.00    +0.000 A 
ATOM      5  C   UNL     1      46.025   5.270  12.992  0.00  0.00    +0.000 A 
ATOM      6  C   UNL     1      46.466   6.542  12.608  0.00  0.00    +0.000 A 
ATOM      7  C   UNL     1      47.434   7.211  13.360  0.00  0.00    +0.000 A 
BRANCH   5   8
ATOM      8  C   UNL     1      44.968   4.549  12.192  0.00  0.00    +0.000 C 
BRANCH   8   9
ATOM      9  O   UNL     1      45.535   3.623  11.265  0.00  0.00    +0.000 OA
BRANCH   9  10
ATOM     10  C   UNL     1      44.640   3.300  10.203  0.00  0.00    +0.000 C 
BRANCH  10  11
ATOM     11  C   UNL     1      45.439   2.956   8.975  0.00  0.00    +0.000 A 
ATOM     12  C   UNL     1      45.833   3.960   8.077  0.00  0.00    +0.000 A 
ATOM     13  C   UNL     1      46.600   3.647   6.951  0.00  0.00    +0.000 A 
ATOM     14  C   UNL     1      46.979   2.327   6.714  0.00  0.00    +0.000 A 
ATOM     15  C   UNL     1      46.579   1.331   7.597  0.00  0.00    +0.000 A 
ATOM     16  F   UNL     1      46.941   0.062   7.365  0.00  0.00    +0.000 F 
ATOM     17  C   UNL     1      45.814   1.631   8.720  0.00  0.00    +0.000 A 
ENDBRANCH  10  11
ENDBRANCH   9  10
ENDBRANCH   8   9
ENDBRANCH   5   8
ENDBRANCH   1   2
BRANCH   1  20
ATOM     18  C   UNL     1      50.258   6.102  17.042  0.00  0.00    +0.000 C 
ATOM     19  O   UNL     1      49.599   6.685  17.904  0.00  0.00    +0.000 OA
ATOM     20  N   UNL     1      50.063   6.362  15.716  0.00  0.00    +0.000 N 
ATOM     21  H   UNL     1      50.621   5.895  15.013  0.00  0.00    +0.000 HD
BRANCH  18  29
ATOM     22  C   UNL     1      50.315   2.645  17.090  0.00  0.00    +0.000 A 
ATOM     23  N   UNL     1      50.608   1.337  17.245  0.00  0.00    +0.000 NA
ATOM     24  C   UNL     1      51.816   1.008  17.710  0.00  0.00    +0.000 A 
ATOM     25  N   UNL     1      52.794   1.842  18.045  0.00  0.00    +0.000 NA
ATOM     26  C   UNL     1      52.464   3.134  17.885  0.00  0.00    +0.000 A 
ATOM     27  S   UNL     1      53.602   4.334  18.263  0.00  0.00    +0.000 S 
ATOM     28  C   UNL     1      52.513   5.566  17.842  0.00  0.00    +0.000 A 
ATOM     29  C   UNL     1      51.275   5.103  17.408  0.00  0.00    +0.000 A 
ATOM     30  C   UNL     1      51.252   3.642  17.422  0.00  0.00    +0.000 A 
BRANCH  22  32
ATOM     31  C   UNL     1      48.028   2.931  17.546  0.00  0.00    +0.000 C 
ATOM     32  O   UNL     1      49.076   2.984  16.579  0.00  0.00    +0.000 OA
ENDBRANCH  22  32
ENDBRANCH  18  29
ENDBRANCH   1  20
TORSDOF 8
ENDMDL
MODEL 8
REMARK VINA RESULT:    -6.661      1.673      2.690
REMARK INTER + INTRA:         -11.280
REMARK INTER:                 -10.281
REMARK INTRA:                  -0.999
REMARK UNBOUND:                -1.505
REMARK  Name = 
REMARK  9 active torsions:
REMARK  status: ('A' for Active; 'I' for Inactive)
REMARK    1  A    between atoms: C_1  and  O_2
REMARK    2  A    between atoms: O_2  and  C_3
REMARK    3  A    between atoms: C_10  and  C_11
REMARK    4  A    between atoms: N_13  and  C_14
REMARK    5  A    between atoms: C_14  and  C_15
REMARK    6  A    between atoms: C_18  and  C_19
REMARK    7  A    between atoms: C_19  and  O_20
REMARK    8  A    between atoms: O_20  and  C_21
REMARK    9  A    between atoms: C_21  and  C_22
REMARK                            x       y       z     vdW  Elec       q    Type
REMARK                         _______ _______ _______ _____ _____    ______ ____
ROOT
ATOM      1  C   UNL     1      48.514   7.315  12.861  0.00  0.00    +0.000 C 
ENDROOT
BRANCH   1   2
ATOM      2  C   UNL     1      47.163   6.804  12.442  0.00  0.00    +0.000 A 
ATOM      3  C   UNL     1      46.803   5.471  12.674  0.00  0.00    +0.000 A 
ATOM      4  C   UNL     1      45.576   4.981  12.224  0.00  0.00    +0.000 A 
ATOM      5  C   UNL     1      44.689   5.814  11.530  0.00  0.00    +0.000 A 
ATOM      6  C   UNL     1      45.045   7.149  11.302  0.00  0.00    +0.000 A 
ATOM      7  C   UNL     1      46.273   7.639  11.753  0.00  0.00    +0.000 A 
BRANCH   5   8
ATOM      8  C   UNL     1      43.357   5.283  11.059  0.00  0.00    +0.000 C 
BRANCH   8   9
ATOM      9  O   UNL     1      43.475   4.542   9.844  0.00  0.00    +0.000 OA
BRANCH   9  10
ATOM     10  C   UNL     1      44.038   3.248  10.049  0.00  0.00    +0.000 C 
BRANCH  10  11
ATOM     11  C   UNL     1      45.090   2.999   9.002  0.00  0.00    +0.000 A 
ATOM     12  C   UNL     1      45.642   4.067   8.279  0.00  0.00    +0.000 A 
ATOM     13  C   UNL     1      46.641   3.842   7.327  0.00  0.00    +0.000 A 
ATOM     14  C   UNL     1      47.095   2.545   7.091  0.00  0.00    +0.000 A 
ATOM     15  C   UNL     1      46.540   1.486   7.799  0.00  0.00    +0.000 A 
ATOM     16  F   UNL     1      46.974   0.240   7.566  0.00  0.00    +0.000 F 
ATOM     17  C   UNL     1      45.544   1.699   8.747  0.00  0.00    +0.000 A 
ENDBRANCH  10  11
ENDBRANCH   9  10
ENDBRANCH   8   9
ENDBRANCH   5   8
ENDBRANCH   1   2
BRANCH   1  20
ATOM     18  C   UNL     1      48.676   7.373  15.304  0.00  0.00    +0.000 C 
ATOM     19  O   UNL     1      48.132   8.478  15.327  0.00  0.00    +0.000 OA
ATOM     20  N   UNL     1      48.910   6.733  14.121  0.00  0.00    +0.000 N 
ATOM     21  H   UNL     1      49.377   5.835  14.106  0.00  0.00    +0.000 HD
BRANCH  18  29
ATOM     22  C   UNL     1      50.946   8.139  17.797  0.00  0.00    +0.000 A 
ATOM     23  N   UNL     1      51.764   8.155  18.870  0.00  0.00    +0.000 NA
ATOM     24  C   UNL     1      51.713   7.130  19.725  0.00  0.00    +0.000 A 
ATOM     25  N   UNL     1      50.924   6.065  19.643  0.00  0.00    +0.000 NA
ATOM     26  C   UNL     1      50.130   6.078  18.559  0.00  0.00    +0.000 A 
ATOM     27  S   UNL     1      49.055   4.792  18.302  0.00  0.00    +0.000 S 
ATOM     28  C   UNL     1      48.487   5.491  16.864  0.00  0.00    +0.000 A 
ATOM     29  C   UNL     1      49.091   6.703  16.547  0.00  0.00    +0.000 A 
ATOM     30  C   UNL     1      50.068   7.061  17.574  0.00  0.00    +0.000 A 
BRANCH  22  32
ATOM     31  C   UNL     1      51.675  10.345  17.452  0.00  0.00    +0.000 C 
ATOM     32  O   UNL     1      50.978   9.214  16.931  0.00  0.00    +0.000 OA
ENDBRANCH  22  32
ENDBRANCH  18  29
ENDBRANCH   1  20
TORSDOF 8
ENDMDL
MODEL 9
REMARK VINA RESULT:    -6.610      5.327      9.592
REMARK INTER + INTRA:         -11.207
REMARK INTER:                 -10.142
REMARK INTRA:                  -1.064
REMARK UNBOUND:                -1.505
REMARK  Name = 
REMARK  9 active torsions:
REMARK  status: ('A' for Active; 'I' for Inactive)
REMARK    1  A    between atoms: C_1  and  O_2
REMARK    2  A    between atoms: O_2  and  C_3
REMARK    3  A    between atoms: C_10  and  C_11
REMARK    4  A    between atoms: N_13  and  C_14
REMARK    5  A    between atoms: C_14  and  C_15
REMARK    6  A    between atoms: C_18  and  C_19
REMARK    7  A    between atoms: C_19  and  O_20
REMARK    8  A    between atoms: O_20  and  C_21
REMARK    9  A    between atoms: C_21  and  C_22
REMARK                            x       y       z     vdW  Elec       q    Type
REMARK                         _______ _______ _______ _____ _____    ______ ____
ROOT
ATOM      1  C   UNL     1      47.343   3.186  16.946  0.00  0.00    +0.000 C 
ENDROOT
BRANCH   1   2
ATOM      2  C   UNL     1      48.797   3.196  17.330  0.00  0.00    +0.000 A 
ATOM      3  C   UNL     1      49.360   4.314  17.958  0.00  0.00    +0.000 A 
ATOM      4  C   UNL     1      50.723   4.348  18.253  0.00  0.00    +0.000 A 
ATOM      5  C   UNL     1      51.550   3.267  17.921  0.00  0.00    +0.000 A 
ATOM      6  C   UNL     1      50.988   2.145  17.299  0.00  0.00    +0.000 A 
ATOM      7  C   UNL     1      49.623   2.111  17.004  0.00  0.00    +0.000 A 
BRANCH   5   8
ATOM      8  C   UNL     1      53.021   3.303  18.256  0.00  0.00    +0.000 C 
BRANCH   8   9
ATOM      9  O   UNL     1      53.421   2.175  19.036  0.00  0.00    +0.000 OA
BRANCH   9  10
ATOM     10  C   UNL     1      54.786   1.824  18.822  0.00  0.00    +0.000 C 
BRANCH  10  11
ATOM     11  C   UNL     1      54.849   0.476  18.157  0.00  0.00    +0.000 A 
ATOM     12  C   UNL     1      54.822   0.370  16.757  0.00  0.00    +0.000 A 
ATOM     13  C   UNL     1      54.910  -0.879  16.136  0.00  0.00    +0.000 A 
ATOM     14  C   UNL     1      55.025  -2.033  16.910  0.00  0.00    +0.000 A 
ATOM     15  C   UNL     1      55.040  -1.929  18.295  0.00  0.00    +0.000 A 
ATOM     16  F   UNL     1      55.146  -3.040  19.037  0.00  0.00    +0.000 F 
ATOM     17  C   UNL     1      54.951  -0.691  18.924  0.00  0.00    +0.000 A 
ENDBRANCH  10  11
ENDBRANCH   9  10
ENDBRANCH   8   9
ENDBRANCH   5   8
ENDBRANCH   1   2
BRANCH   1  20
ATOM     18  C   UNL     1      47.048   4.164  14.721  0.00  0.00    +0.000 C 
ATOM     19  O   UNL     1      47.335   3.088  14.195  0.00  0.00    +0.000 OA
ATOM     20  N   UNL     1      47.037   4.299  16.080  0.00  0.00    +0.000 N 
ATOM     21  H   UNL     1      46.821   5.191  16.506  0.00  0.00    +0.000 HD
BRANCH  18  29
ATOM     22  C   UNL     1      44.370   4.969  12.687  0.00  0.00    +0.000 A 
ATOM     23  N   UNL     1      43.497   5.526  11.822  0.00  0.00    +0.000 NA
ATOM     24  C   UNL     1      43.779   6.733  11.325  0.00  0.00    +0.000 A 
ATOM     25  N   UNL     1      44.848   7.475  11.594  0.00  0.00    +0.000 NA
ATOM     26  C   UNL     1      45.697   6.885  12.451  0.00  0.00    +0.000 A 
ATOM     27  S   UNL     1      47.115   7.698  12.905  0.00  0.00    +0.000 S 
ATOM     28  C   UNL     1      47.596   6.407  13.895  0.00  0.00    +0.000 A 
ATOM     29  C   UNL     1      46.703   5.340  13.906  0.00  0.00    +0.000 A 
ATOM     30  C   UNL     1      45.556   5.635  13.049  0.00  0.00    +0.000 A 
BRANCH  22  32
ATOM     31  C   UNL     1      43.501   2.825  12.279  0.00  0.00    +0.000 C 
ATOM     32  O   UNL     1      44.063   3.733  13.224  0.00  0.00    +0.000 OA
ENDBRANCH  22  32
ENDBRANCH  18  29
ENDBRANCH   1  20
TORSDOF 8
ENDMDL
