MODEL 1
REMARK VINA RESULT:    -8.509      0.000      0.000
REMARK INTER + INTRA:         -13.746
REMARK INTER:                 -12.240
REMARK INTRA:                  -1.507
REMARK UNBOUND:                -1.507
REMARK  Name = 
REMARK  8 active torsions:
REMARK  status: ('A' for Active; 'I' for Inactive)
REMARK    1  A    between atoms: C_2  and  C_21
REMARK    2  A    between atoms: N_3  and  C_4
REMARK    3  A    between atoms: C_4  and  C_5
REMARK    4  A    between atoms: C_8  and  C_9
REMARK    5  A    between atoms: C_9  and  C_10
REMARK    6  A    between atoms: C_10  and  O_11
REMARK    7  A    between atoms: C_10  and  C_12
REMARK    8  A    between atoms: C_12  and  C_13
REMARK                            x       y       z     vdW  Elec       q    Type
REMARK                         _______ _______ _______ _____ _____    ______ ____
ROOT
ATOM      1  C   UNL     1      46.579   7.594  12.468  0.00  0.00    +0.000 A 
ATOM      2  N   UNL     1      47.057   6.821  11.470  0.00  0.00    +0.000 NA
ATOM      3  C   UNL     1      46.203   5.916  10.951  0.00  0.00    +0.000 A 
ATOM      4  C   UNL     1      44.896   5.763  11.368  0.00  0.00    +0.000 A 
ATOM      5  C   UNL     1      44.490   6.660  12.333  0.00  0.00    +0.000 A 
ATOM      6  N   UNL     1      45.304   7.571  12.897  0.00  0.00    +0.000 NA
ENDROOT
BRANCH   1   7
ATOM      7  C   UNL     1      47.514   8.629  13.066  0.00  0.00    +0.000 C 
BRANCH   7  10
ATOM      8  O   UNL     1      49.660   6.944  13.921  0.00  0.00    +0.000 OA
ATOM      9  C   UNL     1      48.815   7.339  14.708  0.00  0.00    +0.000 C 
ATOM     10  N   UNL     1      47.854   8.281  14.428  0.00  0.00    +0.000 N 
ATOM     11  H   UNL     1      47.075   8.356  15.066  0.00  0.00    +0.000 HD
BRANCH   9  12
ATOM     12  C   UNL     1      48.584   6.718  16.009  0.00  0.00    +0.000 A 
ATOM     13  C   UNL     1      48.939   7.324  17.201  0.00  0.00    +0.000 A 
ATOM     14  S   UNL     1      49.101   6.168  18.460  0.00  0.00    +0.000 S 
ATOM     15  C   UNL     1      48.546   4.907  17.454  0.00  0.00    +0.000 A 
ATOM     16  N   UNL     1      48.570   3.600  17.831  0.00  0.00    +0.000 NA
ATOM     17  C   UNL     1      48.051   2.791  16.964  0.00  0.00    +0.000 A 
ATOM     18  N   UNL     1      47.467   3.170  15.781  0.00  0.00    +0.000 N 
ATOM     19  C   UNL     1      47.422   4.477  15.352  0.00  0.00    +0.000 A 
ATOM     20  O   UNL     1      46.856   4.804  14.320  0.00  0.00    +0.000 OA
ATOM     21  C   UNL     1      48.110   5.394  16.243  0.00  0.00    +0.000 A 
ATOM     22  H   UNL     1      47.001   2.497  15.191  0.00  0.00    +0.000 HD
ENDBRANCH   9  12
ENDBRANCH   7  10
ENDBRANCH   1   7
BRANCH   4  23
ATOM     23  C   UNL     1      44.023   4.639  10.888  0.00  0.00    +0.000 C 
BRANCH  23  24
ATOM     24  C   UNL     1      44.766   3.285  10.799  0.00  0.00    +0.000 C 
BRANCH  24  25
ATOM     25  O   UNL     1      44.503   2.544  11.996  0.00  0.00    +0.000 OA
ATOM     26  H   UNL     1      44.032   3.130  12.615  0.00  0.00    +0.000 HD
ENDBRANCH  24  25
BRANCH  24  27
ATOM     27  C   UNL     1      44.408   2.477   9.535  0.00  0.00    +0.000 C 
BRANCH  27  28
ATOM     28  C   UNL     1      45.490   2.466   8.479  0.00  0.00    +0.000 A 
ATOM     29  C   UNL     1      46.223   1.294   8.233  0.00  0.00    +0.000 A 
ATOM     30  C   UNL     1      47.191   1.258   7.229  0.00  0.00    +0.000 A 
ATOM     31  C   UNL     1      47.439   2.392   6.460  0.00  0.00    +0.000 A 
ATOM     32  C   UNL     1      46.729   3.567   6.706  0.00  0.00    +0.000 A 
ATOM     33  C   UNL     1      45.762   3.605   7.713  0.00  0.00    +0.000 A 
ENDBRANCH  27  28
ENDBRANCH  24  27
ENDBRANCH  23  24
ENDBRANCH   4  23
TORSDOF 8
ENDMDL
MODEL 2
REMARK VINA RESULT:    -8.192      1.854      2.406
REMARK INTER + INTRA:         -13.290
REMARK INTER:                 -12.265
REMARK INTRA:                  -1.025
REMARK UNBOUND:                -1.507
REMARK  Name = 
REMARK  8 active torsions:
REMARK  status: ('A' for Active; 'I' for Inactive)
REMARK    1  A    between atoms: C_2  and  C_21
REMARK    2  A    between atoms: N_3  and  C_4
REMARK    3  A    between atoms: C_4  and  C_5
REMARK    4  A    between atoms: C_8  and  C_9
REMARK    5  A    between atoms: C_9  and  C_10
REMARK    6  A    between atoms: C_10  and  O_11
REMARK    7  A    between atoms: C_10  and  C_12
REMARK    8  A    between atoms: C_12  and  C_13
REMARK                            x       y       z     vdW  Elec       q    Type
REMARK                         _______ _______ _______ _____ _____    ______ ____
ROOT
ATOM      1  C   UNL     1      47.378   6.125  13.525  0.00  0.00    +0.000 A 
ATOM      2  N   UNL     1      47.439   4.789  13.706  0.00  0.00    +0.000 NA
ATOM      3  C   UNL     1      46.345   4.085  13.352  0.00  0.00    +0.000 A 
ATOM      4  C   UNL     1      45.208   4.651  12.811  0.00  0.00    +0.000 A 
ATOM      5  C   UNL     1      45.286   6.009  12.594  0.00  0.00    +0.000 A 
ATOM      6  N   UNL     1      46.345   6.762  12.943  0.00  0.00    +0.000 NA
ENDROOT
BRANCH   1   7
ATOM      7  C   UNL     1      48.598   6.944  13.905  0.00  0.00    +0.000 C 
BRANCH   7  10
ATOM      8  O   UNL     1      50.285   6.188  16.087  0.00  0.00    +0.000 OA
ATOM      9  C   UNL     1      49.273   6.847  16.270  0.00  0.00    +0.000 C 
ATOM     10  N   UNL     1      48.500   7.398  15.275  0.00  0.00    +0.000 N 
ATOM     11  H   UNL     1      47.575   7.714  15.526  0.00  0.00    +0.000 HD
BRANCH   9  12
ATOM     12  C   UNL     1      48.631   6.979  17.573  0.00  0.00    +0.000 A 
ATOM     13  C   UNL     1      48.268   8.202  18.109  0.00  0.00    +0.000 A 
ATOM     14  S   UNL     1      48.105   8.109  19.815  0.00  0.00    +0.000 S 
ATOM     15  C   UNL     1      48.360   6.422  19.806  0.00  0.00    +0.000 A 
ATOM     16  N   UNL     1      48.505   5.694  20.946  0.00  0.00    +0.000 NA
ATOM     17  C   UNL     1      48.627   4.421  20.748  0.00  0.00    +0.000 A 
ATOM     18  N   UNL     1      48.565   3.804  19.523  0.00  0.00    +0.000 N 
ATOM     19  C   UNL     1      48.425   4.495  18.341  0.00  0.00    +0.000 A 
ATOM     20  O   UNL     1      48.323   3.928  17.264  0.00  0.00    +0.000 OA
ATOM     21  C   UNL     1      48.414   5.935  18.521  0.00  0.00    +0.000 A 
ATOM     22  H   UNL     1      48.578   2.798  19.445  0.00  0.00    +0.000 HD
ENDBRANCH   9  12
ENDBRANCH   7  10
ENDBRANCH   1   7
BRANCH   4  23
ATOM     23  C   UNL     1      43.947   3.865  12.583  0.00  0.00    +0.000 C 
BRANCH  23  24
ATOM     24  C   UNL     1      44.029   2.921  11.361  0.00  0.00    +0.000 C 
BRANCH  24  25
ATOM     25  O   UNL     1      42.983   1.950  11.466  0.00  0.00    +0.000 OA
ATOM     26  H   UNL     1      42.593   2.023  12.355  0.00  0.00    +0.000 HD
ENDBRANCH  24  25
BRANCH  24  27
ATOM     27  C   UNL     1      43.984   3.669  10.012  0.00  0.00    +0.000 C 
BRANCH  27  28
ATOM     28  C   UNL     1      45.002   3.190   9.002  0.00  0.00    +0.000 A 
ATOM     29  C   UNL     1      45.620   4.105   8.135  0.00  0.00    +0.000 A 
ATOM     30  C   UNL     1      46.596   3.682   7.231  0.00  0.00    +0.000 A 
ATOM     31  C   UNL     1      46.964   2.340   7.183  0.00  0.00    +0.000 A 
ATOM     32  C   UNL     1      46.345   1.419   8.027  0.00  0.00    +0.000 A 
ATOM     33  C   UNL     1      45.366   1.840   8.930  0.00  0.00    +0.000 A 
ENDBRANCH  27  28
ENDBRANCH  24  27
ENDBRANCH  23  24
ENDBRANCH   4  23
TORSDOF 8
ENDMDL
MODEL 3
REMARK VINA RESULT:    -7.875      2.067      2.550
REMARK INTER + INTRA:         -12.835
REMARK INTER:                 -11.850
REMARK INTRA:                  -0.985
REMARK UNBOUND:                -1.507
REMARK  Name = 
REMARK  8 active torsions:
REMARK  status: ('A' for Active; 'I' for Inactive)
REMARK    1  A    between atoms: C_2  and  C_21
REMARK    2  A    between atoms: N_3  and  C_4
REMARK    3  A    between atoms: C_4  and  C_5
REMARK    4  A    between atoms: C_8  and  C_9
REMARK    5  A    between atoms: C_9  and  C_10
REMARK    6  A    between atoms: C_10  and  O_11
REMARK    7  A    between atoms: C_10  and  C_12
REMARK    8  A    between atoms: C_12  and  C_13
REMARK                            x       y       z     vdW  Elec       q    Type
REMARK                         _______ _______ _______ _____ _____    ______ ____
ROOT
ATOM      1  C   UNL     1      47.577   6.338  13.874  0.00  0.00    +0.000 A 
ATOM      2  N   UNL     1      46.974   5.179  14.215  0.00  0.00    +0.000 NA
ATOM      3  C   UNL     1      46.057   4.702  13.350  0.00  0.00    +0.000 A 
ATOM      4  C   UNL     1      45.731   5.317  12.158  0.00  0.00    +0.000 A 
ATOM      5  C   UNL     1      46.465   6.448  11.872  0.00  0.00    +0.000 A 
ATOM      6  N   UNL     1      47.379   6.976  12.706  0.00  0.00    +0.000 NA
ENDROOT
BRANCH   1   7
ATOM      7  C   UNL     1      48.621   6.894  14.824  0.00  0.00    +0.000 C 
BRANCH   7  10
ATOM      8  O   UNL     1      48.329   7.113  17.660  0.00  0.00    +0.000 OA
ATOM      9  C   UNL     1      48.942   6.184  17.158  0.00  0.00    +0.000 C 
ATOM     10  N   UNL     1      48.989   5.905  15.812  0.00  0.00    +0.000 N 
ATOM     11  H   UNL     1      49.705   5.268  15.494  0.00  0.00    +0.000 HD
BRANCH   9  12
ATOM     12  C   UNL     1      49.877   5.348  17.904  0.00  0.00    +0.000 A 
ATOM     13  C   UNL     1      50.815   5.869  18.777  0.00  0.00    +0.000 A 
ATOM     14  S   UNL     1      52.109   4.769  19.029  0.00  0.00    +0.000 S 
ATOM     15  C   UNL     1      51.335   3.559  18.109  0.00  0.00    +0.000 A 
ATOM     16  N   UNL     1      51.942   2.388  17.773  0.00  0.00    +0.000 NA
ATOM     17  C   UNL     1      51.182   1.565  17.127  0.00  0.00    +0.000 A 
ATOM     18  N   UNL     1      49.858   1.780  16.830  0.00  0.00    +0.000 N 
ATOM     19  C   UNL     1      49.201   2.947  17.142  0.00  0.00    +0.000 A 
ATOM     20  O   UNL     1      48.011   3.104  16.914  0.00  0.00    +0.000 OA
ATOM     21  C   UNL     1      50.063   3.942  17.754  0.00  0.00    +0.000 A 
ATOM     22  H   UNL     1      49.297   1.059  16.402  0.00  0.00    +0.000 HD
ENDBRANCH   9  12
ENDBRANCH   7  10
ENDBRANCH   1   7
BRANCH   4  23
ATOM     23  C   UNL     1      44.589   4.854  11.297  0.00  0.00    +0.000 C 
BRANCH  23  24
ATOM     24  C   UNL     1      44.848   3.483  10.629  0.00  0.00    +0.000 C 
BRANCH  24  25
ATOM     25  O   UNL     1      44.104   2.485  11.337  0.00  0.00    +0.000 OA
ATOM     26  H   UNL     1      44.512   1.621  11.155  0.00  0.00    +0.000 HD
ENDBRANCH  24  25
BRANCH  24  27
ATOM     27  C   UNL     1      44.528   3.473   9.119  0.00  0.00    +0.000 C 
BRANCH  27  28
ATOM     28  C   UNL     1      45.586   2.814   8.265  0.00  0.00    +0.000 A 
ATOM     29  C   UNL     1      46.319   3.573   7.338  0.00  0.00    +0.000 A 
ATOM     30  C   UNL     1      47.330   2.985   6.578  0.00  0.00    +0.000 A 
ATOM     31  C   UNL     1      47.621   1.632   6.734  0.00  0.00    +0.000 A 
ATOM     32  C   UNL     1      46.889   0.864   7.639  0.00  0.00    +0.000 A 
ATOM     33  C   UNL     1      45.874   1.451   8.398  0.00  0.00    +0.000 A 
ENDBRANCH  27  28
ENDBRANCH  24  27
ENDBRANCH  23  24
ENDBRANCH   4  23
TORSDOF 8
ENDMDL
MODEL 4
REMARK VINA RESULT:    -7.838      2.240      3.653
REMARK INTER + INTRA:         -12.781
REMARK INTER:                 -11.759
REMARK INTRA:                  -1.022
REMARK UNBOUND:                -1.507
REMARK  Name = 
REMARK  8 active torsions:
REMARK  status: ('A' for Active; 'I' for Inactive)
REMARK    1  A    between atoms: C_2  and  C_21
REMARK    2  A    between atoms: N_3  and  C_4
REMARK    3  A    between atoms: C_4  and  C_5
REMARK    4  A    between atoms: C_8  and  C_9
REMARK    5  A    between atoms: C_9  and  C_10
REMARK    6  A    between atoms: C_10  and  O_11
REMARK    7  A    between atoms: C_10  and  C_12
REMARK    8  A    between atoms: C_12  and  C_13
REMARK                            x       y       z     vdW  Elec       q    Type
REMARK                         _______ _______ _______ _____ _____    ______ ____
ROOT
ATOM      1  C   UNL     1      46.800   4.468  14.384  0.00  0.00    +0.000 A 
ATOM      2  N   UNL     1      46.088   3.589  13.647  0.00  0.00    +0.000 NA
ATOM      3  C   UNL     1      45.665   4.022  12.442  0.00  0.00    +0.000 A 
ATOM      4  C   UNL     1      45.937   5.277  11.937  0.00  0.00    +0.000 A 
ATOM      5  C   UNL     1      46.740   6.060  12.737  0.00  0.00    +0.000 A 
ATOM      6  N   UNL     1      47.176   5.686  13.953  0.00  0.00    +0.000 NA
ENDROOT
BRANCH   1   7
ATOM      7  C   UNL     1      47.299   4.007  15.742  0.00  0.00    +0.000 C 
BRANCH   7  10
ATOM      8  O   UNL     1      49.798   4.594  17.002  0.00  0.00    +0.000 OA
ATOM      9  C   UNL     1      48.794   5.238  17.260  0.00  0.00    +0.000 C 
ATOM     10  N   UNL     1      47.599   5.142  16.586  0.00  0.00    +0.000 N 
ATOM     11  H   UNL     1      46.783   5.540  17.027  0.00  0.00    +0.000 HD
BRANCH   9  12
ATOM     12  C   UNL     1      48.662   6.066  18.455  0.00  0.00    +0.000 A 
ATOM     13  C   UNL     1      48.552   5.533  19.727  0.00  0.00    +0.000 A 
ATOM     14  S   UNL     1      47.832   6.654  20.810  0.00  0.00    +0.000 S 
ATOM     15  C   UNL     1      47.822   7.881  19.625  0.00  0.00    +0.000 A 
ATOM     16  N   UNL     1      47.204   9.079  19.812  0.00  0.00    +0.000 NA
ATOM     17  C   UNL     1      47.353   9.909  18.830  0.00  0.00    +0.000 A 
ATOM     18  N   UNL     1      48.104   9.673  17.705  0.00  0.00    +0.000 N 
ATOM     19  C   UNL     1      48.743   8.478  17.467  0.00  0.00    +0.000 A 
ATOM     20  O   UNL     1      49.446   8.301  16.484  0.00  0.00    +0.000 OA
ATOM     21  C   UNL     1      48.488   7.481  18.490  0.00  0.00    +0.000 A 
ATOM     22  H   UNL     1      48.253  10.397  17.018  0.00  0.00    +0.000 HD
ENDBRANCH   9  12
ENDBRANCH   7  10
ENDBRANCH   1   7
BRANCH   4  23
ATOM     23  C   UNL     1      45.313   5.787  10.668  0.00  0.00    +0.000 C 
BRANCH  23  24
ATOM     24  C   UNL     1      44.906   4.658   9.692  0.00  0.00    +0.000 C 
BRANCH  24  25
ATOM     25  O   UNL     1      43.492   4.731   9.479  0.00  0.00    +0.000 OA
ATOM     26  H   UNL     1      43.081   5.064  10.297  0.00  0.00    +0.000 HD
ENDBRANCH  24  25
BRANCH  24  27
ATOM     27  C   UNL     1      45.688   4.692   8.363  0.00  0.00    +0.000 C 
BRANCH  27  28
ATOM     28  C   UNL     1      46.188   3.342   7.902  0.00  0.00    +0.000 A 
ATOM     29  C   UNL     1      47.158   3.256   6.891  0.00  0.00    +0.000 A 
ATOM     30  C   UNL     1      47.661   2.017   6.491  0.00  0.00    +0.000 A 
ATOM     31  C   UNL     1      47.199   0.851   7.095  0.00  0.00    +0.000 A 
ATOM     32  C   UNL     1      46.223   0.922   8.088  0.00  0.00    +0.000 A 
ATOM     33  C   UNL     1      45.716   2.161   8.488  0.00  0.00    +0.000 A 
ENDBRANCH  27  28
ENDBRANCH  24  27
ENDBRANCH  23  24
ENDBRANCH   4  23
TORSDOF 8
ENDMDL
MODEL 5
REMARK VINA RESULT:    -7.590      1.640      2.523
REMARK INTER + INTRA:         -12.424
REMARK INTER:                 -11.392
REMARK INTRA:                  -1.033
REMARK UNBOUND:                -1.507
REMARK  Name = 
REMARK  8 active torsions:
REMARK  status: ('A' for Active; 'I' for Inactive)
REMARK    1  A    between atoms: C_2  and  C_21
REMARK    2  A    between atoms: N_3  and  C_4
REMARK    3  A    between atoms: C_4  and  C_5
REMARK    4  A    between atoms: C_8  and  C_9
REMARK    5  A    between atoms: C_9  and  C_10
REMARK    6  A    between atoms: C_10  and  O_11
REMARK    7  A    between atoms: C_10  and  C_12
REMARK    8  A    between atoms: C_12  and  C_13
REMARK                            x       y       z     vdW  Elec       q    Type
REMARK                         _______ _______ _______ _____ _____    ______ ____
ROOT
ATOM      1  C   UNL     1      46.682   7.637  12.911  0.00  0.00    +0.000 A 
ATOM      2  N   UNL     1      47.285   6.663  12.197  0.00  0.00    +0.000 NA
ATOM      3  C   UNL     1      46.477   5.849  11.489  0.00  0.00    +0.000 A 
ATOM      4  C   UNL     1      45.103   5.977  11.447  0.00  0.00    +0.000 A 
ATOM      5  C   UNL     1      44.602   7.055  12.144  0.00  0.00    +0.000 A 
ATOM      6  N   UNL     1      45.360   7.887  12.881  0.00  0.00    +0.000 NA
ENDROOT
BRANCH   1   7
ATOM      7  C   UNL     1      47.567   8.575  13.711  0.00  0.00    +0.000 C 
BRANCH   7  10
ATOM      8  O   UNL     1      49.791   6.937  14.454  0.00  0.00    +0.000 OA
ATOM      9  C   UNL     1      48.860   7.124  15.221  0.00  0.00    +0.000 C 
ATOM     10  N   UNL     1      47.840   8.024  15.020  0.00  0.00    +0.000 N 
ATOM     11  H   UNL     1      47.015   7.928  15.593  0.00  0.00    +0.000 HD
BRANCH   9  12
ATOM     12  C   UNL     1      48.594   6.273  16.376  0.00  0.00    +0.000 A 
ATOM     13  C   UNL     1      48.196   4.953  16.258  0.00  0.00    +0.000 A 
ATOM     14  S   UNL     1      47.407   4.412  17.683  0.00  0.00    +0.000 S 
ATOM     15  C   UNL     1      47.742   5.875  18.494  0.00  0.00    +0.000 A 
ATOM     16  N   UNL     1      47.226   6.173  19.717  0.00  0.00    +0.000 NA
ATOM     17  C   UNL     1      47.639   7.299  20.205  0.00  0.00    +0.000 A 
ATOM     18  N   UNL     1      48.557   8.128  19.608  0.00  0.00    +0.000 N 
ATOM     19  C   UNL     1      49.104   7.874  18.371  0.00  0.00    +0.000 A 
ATOM     20  O   UNL     1      49.955   8.596  17.876  0.00  0.00    +0.000 OA
ATOM     21  C   UNL     1      48.563   6.683  17.742  0.00  0.00    +0.000 A 
ATOM     22  H   UNL     1      48.904   8.947  20.083  0.00  0.00    +0.000 HD
ENDBRANCH   9  12
ENDBRANCH   7  10
ENDBRANCH   1   7
BRANCH   4  23
ATOM     23  C   UNL     1      44.219   4.958  10.785  0.00  0.00    +0.000 C 
BRANCH  23  24
ATOM     24  C   UNL     1      44.861   3.553  10.705  0.00  0.00    +0.000 C 
BRANCH  24  25
ATOM     25  O   UNL     1      44.604   2.866  11.936  0.00  0.00    +0.000 OA
ATOM     26  H   UNL     1      45.458   2.713  12.378  0.00  0.00    +0.000 HD
ENDBRANCH  24  25
BRANCH  24  27
ATOM     27  C   UNL     1      44.389   2.738   9.484  0.00  0.00    +0.000 C 
BRANCH  27  28
ATOM     28  C   UNL     1      45.441   2.561   8.412  0.00  0.00    +0.000 A 
ATOM     29  C   UNL     1      45.780   3.634   7.573  0.00  0.00    +0.000 A 
ATOM     30  C   UNL     1      46.782   3.496   6.612  0.00  0.00    +0.000 A 
ATOM     31  C   UNL     1      47.455   2.285   6.477  0.00  0.00    +0.000 A 
ATOM     32  C   UNL     1      47.115   1.206   7.292  0.00  0.00    +0.000 A 
ATOM     33  C   UNL     1      46.110   1.342   8.253  0.00  0.00    +0.000 A 
ENDBRANCH  27  28
ENDBRANCH  24  27
ENDBRANCH  23  24
ENDBRANCH   4  23
TORSDOF 8
ENDMDL
MODEL 6
REMARK VINA RESULT:    -7.444      2.542      3.463
REMARK INTER + INTRA:         -12.215
REMARK INTER:                 -11.334
REMARK INTRA:                  -0.881
REMARK UNBOUND:                -1.507
REMARK  Name = 
REMARK  8 active torsions:
REMARK  status: ('A' for Active; 'I' for Inactive)
REMARK    1  A    between atoms: C_2  and  C_21
REMARK    2  A    between atoms: N_3  and  C_4
REMARK    3  A    between atoms: C_4  and  C_5
REMARK    4  A    between atoms: C_8  and  C_9
REMARK    5  A    between atoms: C_9  and  C_10
REMARK    6  A    between atoms: C_10  and  O_11
REMARK    7  A    between atoms: C_10  and  C_12
REMARK    8  A    between atoms: C_12  and  C_13
REMARK                            x       y       z     vdW  Elec       q    Type
REMARK                         _______ _______ _______ _____ _____    ______ ____
ROOT
ATOM      1  C   UNL     1      46.929   4.387  14.597  0.00  0.00    +0.000 A 
ATOM      2  N   UNL     1      46.611   3.328  13.823  0.00  0.00    +0.000 NA
ATOM      3  C   UNL     1      46.069   3.605  12.620  0.00  0.00    +0.000 A 
ATOM      4  C   UNL     1      45.848   4.884  12.152  0.00  0.00    +0.000 A 
ATOM      5  C   UNL     1      46.286   5.888  12.989  0.00  0.00    +0.000 A 
ATOM      6  N   UNL     1      46.818   5.670  14.205  0.00  0.00    +0.000 NA
ENDROOT
BRANCH   1   7
ATOM      7  C   UNL     1      47.551   4.107  15.953  0.00  0.00    +0.000 C 
BRANCH   7  10
ATOM      8  O   UNL     1      49.831   5.821  16.156  0.00  0.00    +0.000 OA
ATOM      9  C   UNL     1      48.853   5.985  16.868  0.00  0.00    +0.000 C 
ATOM     10  N   UNL     1      47.654   5.325  16.727  0.00  0.00    +0.000 N 
ATOM     11  H   UNL     1      47.008   5.364  17.501  0.00  0.00    +0.000 HD
BRANCH   9  12
ATOM     12  C   UNL     1      48.883   6.768  18.099  0.00  0.00    +0.000 A 
ATOM     13  C   UNL     1      48.133   7.916  18.274  0.00  0.00    +0.000 A 
ATOM     14  S   UNL     1      48.795   8.908  19.509  0.00  0.00    +0.000 S 
ATOM     15  C   UNL     1      49.969   7.735  19.903  0.00  0.00    +0.000 A 
ATOM     16  N   UNL     1      50.983   7.973  20.779  0.00  0.00    +0.000 NA
ATOM     17  C   UNL     1      51.740   6.948  21.002  0.00  0.00    +0.000 A 
ATOM     18  N   UNL     1      51.549   5.696  20.472  0.00  0.00    +0.000 N 
ATOM     19  C   UNL     1      50.544   5.405  19.578  0.00  0.00    +0.000 A 
ATOM     20  O   UNL     1      50.358   4.275  19.153  0.00  0.00    +0.000 OA
ATOM     21  C   UNL     1      49.755   6.566  19.210  0.00  0.00    +0.000 A 
ATOM     22  H   UNL     1      52.124   4.917  20.757  0.00  0.00    +0.000 HD
ENDBRANCH   9  12
ENDBRANCH   7  10
ENDBRANCH   1   7
BRANCH   4  23
ATOM     23  C   UNL     1      45.092   5.159  10.883  0.00  0.00    +0.000 C 
BRANCH  23  24
ATOM     24  C   UNL     1      44.458   3.891  10.265  0.00  0.00    +0.000 C 
BRANCH  24  25
ATOM     25  O   UNL     1      43.127   3.754  10.776  0.00  0.00    +0.000 OA
ATOM     26  H   UNL     1      42.787   4.645  10.971  0.00  0.00    +0.000 HD
ENDBRANCH  24  25
BRANCH  24  27
ATOM     27  C   UNL     1      44.482   3.890   8.722  0.00  0.00    +0.000 C 
BRANCH  27  28
ATOM     28  C   UNL     1      45.594   3.060   8.120  0.00  0.00    +0.000 A 
ATOM     29  C   UNL     1      45.717   1.700   8.450  0.00  0.00    +0.000 A 
ATOM     30  C   UNL     1      46.709   0.913   7.864  0.00  0.00    +0.000 A 
ATOM     31  C   UNL     1      47.590   1.476   6.944  0.00  0.00    +0.000 A 
ATOM     32  C   UNL     1      47.489   2.828   6.622  0.00  0.00    +0.000 A 
ATOM     33  C   UNL     1      46.498   3.618   7.210  0.00  0.00    +0.000 A 
ENDBRANCH  27  28
ENDBRANCH  24  27
ENDBRANCH  23  24
ENDBRANCH   4  23
TORSDOF 8
ENDMDL
MODEL 7
REMARK VINA RESULT:    -7.303      1.727      2.254
REMARK INTER + INTRA:         -12.012
REMARK INTER:                 -11.034
REMARK INTRA:                  -0.978
REMARK UNBOUND:                -1.507
REMARK  Name = 
REMARK  8 active torsions:
REMARK  status: ('A' for Active; 'I' for Inactive)
REMARK    1  A    between atoms: C_2  and  C_21
REMARK    2  A    between atoms: N_3  and  C_4
REMARK    3  A    between atoms: C_4  and  C_5
REMARK    4  A    between atoms: C_8  and  C_9
REMARK    5  A    between atoms: C_9  and  C_10
REMARK    6  A    between atoms: C_10  and  O_11
REMARK    7  A    between atoms: C_10  and  C_12
REMARK    8  A    between atoms: C_12  and  C_13
REMARK                            x       y       z     vdW  Elec       q    Type
REMARK                         _______ _______ _______ _____ _____    ______ ____
ROOT
ATOM      1  C   UNL     1      46.295   7.182  12.752  0.00  0.00    +0.000 A 
ATOM      2  N   UNL     1      45.008   6.967  13.097  0.00  0.00    +0.000 NA
ATOM      3  C   UNL     1      44.549   5.708  12.948  0.00  0.00    +0.000 A 
ATOM      4  C   UNL     1      45.320   4.657  12.492  0.00  0.00    +0.000 A 
ATOM      5  C   UNL     1      46.639   4.972  12.249  0.00  0.00    +0.000 A 
ATOM      6  N   UNL     1      47.145   6.213  12.364  0.00  0.00    +0.000 NA
ENDROOT
BRANCH   1   7
ATOM      7  C   UNL     1      46.843   8.588  12.918  0.00  0.00    +0.000 C 
BRANCH   7  10
ATOM      8  O   UNL     1      49.284   9.377  14.182  0.00  0.00    +0.000 OA
ATOM      9  C   UNL     1      48.288   9.118  14.838  0.00  0.00    +0.000 C 
ATOM     10  N   UNL     1      47.034   8.898  14.318  0.00  0.00    +0.000 N 
ATOM     11  H   UNL     1      46.349   8.466  14.920  0.00  0.00    +0.000 HD
BRANCH   9  12
ATOM     12  C   UNL     1      48.329   8.811  16.265  0.00  0.00    +0.000 A 
ATOM     13  C   UNL     1      48.030   9.744  17.241  0.00  0.00    +0.000 A 
ATOM     14  S   UNL     1      48.718   9.306  18.751  0.00  0.00    +0.000 S 
ATOM     15  C   UNL     1      49.267   7.813  18.134  0.00  0.00    +0.000 A 
ATOM     16  N   UNL     1      50.078   6.979  18.839  0.00  0.00    +0.000 NA
ATOM     17  C   UNL     1      50.341   5.864  18.237  0.00  0.00    +0.000 A 
ATOM     18  N   UNL     1      49.829   5.484  17.021  0.00  0.00    +0.000 N 
ATOM     19  C   UNL     1      49.011   6.293  16.267  0.00  0.00    +0.000 A 
ATOM     20  O   UNL     1      48.525   5.921  15.210  0.00  0.00    +0.000 OA
ATOM     21  C   UNL     1      48.801   7.602  16.858  0.00  0.00    +0.000 A 
ATOM     22  H   UNL     1      50.003   4.563  16.648  0.00  0.00    +0.000 HD
ENDBRANCH   9  12
ENDBRANCH   7  10
ENDBRANCH   1   7
BRANCH   4  23
ATOM     23  C   UNL     1      44.738   3.307  12.179  0.00  0.00    +0.000 C 
BRANCH  23  24
ATOM     24  C   UNL     1      43.743   3.332  10.996  0.00  0.00    +0.000 C 
BRANCH  24  25
ATOM     25  O   UNL     1      42.476   3.794  11.478  0.00  0.00    +0.000 OA
ATOM     26  H   UNL     1      42.168   3.171  12.160  0.00  0.00    +0.000 HD
ENDBRANCH  24  25
BRANCH  24  27
ATOM     27  C   UNL     1      44.241   4.169   9.800  0.00  0.00    +0.000 C 
BRANCH  27  28
ATOM     28  C   UNL     1      45.220   3.447   8.902  0.00  0.00    +0.000 A 
ATOM     29  C   UNL     1      45.347   2.050   8.975  0.00  0.00    +0.000 A 
ATOM     30  C   UNL     1      46.212   1.368   8.119  0.00  0.00    +0.000 A 
ATOM     31  C   UNL     1      46.962   2.074   7.182  0.00  0.00    +0.000 A 
ATOM     32  C   UNL     1      46.859   3.462   7.112  0.00  0.00    +0.000 A 
ATOM     33  C   UNL     1      45.995   4.147   7.970  0.00  0.00    +0.000 A 
ENDBRANCH  27  28
ENDBRANCH  24  27
ENDBRANCH  23  24
ENDBRANCH   4  23
TORSDOF 8
ENDMDL
MODEL 8
REMARK VINA RESULT:    -7.262      4.635      6.092
REMARK INTER + INTRA:         -11.953
REMARK INTER:                 -10.816
REMARK INTRA:                  -1.136
REMARK UNBOUND:                -1.507
REMARK  Name = 
REMARK  8 active torsions:
REMARK  status: ('A' for Active; 'I' for Inactive)
REMARK    1  A    between atoms: C_2  and  C_21
REMARK    2  A    between atoms: N_3  and  C_4
REMARK    3  A    between atoms: C_4  and  C_5
REMARK    4  A    between atoms: C_8  and  C_9
REMARK    5  A    between atoms: C_9  and  C_10
REMARK    6  A    between atoms: C_10  and  O_11
REMARK    7  A    between atoms: C_10  and  C_12
REMARK    8  A    between atoms: C_12  and  C_13
REMARK                            x       y       z     vdW  Elec       q    Type
REMARK                         _______ _______ _______ _____ _____    ______ ____
ROOT
ATOM      1  C   UNL     1      48.762   7.057  12.492  0.00  0.00    +0.000 A 
ATOM      2  N   UNL     1      48.512   6.109  13.420  0.00  0.00    +0.000 NA
ATOM      3  C   UNL     1      47.347   5.442  13.297  0.00  0.00    +0.000 A 
ATOM      4  C   UNL     1      46.436   5.665  12.284  0.00  0.00    +0.000 A 
ATOM      5  C   UNL     1      46.831   6.595  11.346  0.00  0.00    +0.000 A 
ATOM      6  N   UNL     1      47.973   7.301  11.429  0.00  0.00    +0.000 NA
ENDROOT
BRANCH   1   7
ATOM      7  C   UNL     1      50.071   7.818  12.598  0.00  0.00    +0.000 C 
BRANCH   7  10
ATOM      8  O   UNL     1      52.891   8.254  12.413  0.00  0.00    +0.000 OA
ATOM      9  C   UNL     1      52.238   7.925  11.436  0.00  0.00    +0.000 C 
ATOM     10  N   UNL     1      50.920   7.531  11.463  0.00  0.00    +0.000 N 
ATOM     11  H   UNL     1      50.422   7.511  10.586  0.00  0.00    +0.000 HD
BRANCH   9  12
ATOM     12  C   UNL     1      52.711   8.094  10.066  0.00  0.00    +0.000 A 
ATOM     13  C   UNL     1      52.631   9.297   9.388  0.00  0.00    +0.000 A 
ATOM     14  S   UNL     1      52.692   9.059   7.689  0.00  0.00    +0.000 S 
ATOM     15  C   UNL     1      52.982   7.388   7.875  0.00  0.00    +0.000 A 
ATOM     16  N   UNL     1      52.992   6.522   6.826  0.00  0.00    +0.000 NA
ATOM     17  C   UNL     1      53.291   5.305   7.149  0.00  0.00    +0.000 A 
ATOM     18  N   UNL     1      53.632   4.884   8.411  0.00  0.00    +0.000 N 
ATOM     19  C   UNL     1      53.632   5.719   9.505  0.00  0.00    +0.000 A 
ATOM     20  O   UNL     1      53.984   5.340  10.611  0.00  0.00    +0.000 OA
ATOM     21  C   UNL     1      53.176   7.062   9.197  0.00  0.00    +0.000 A 
ATOM     22  H   UNL     1      53.942   3.939   8.578  0.00  0.00    +0.000 HD
ENDBRANCH   9  12
ENDBRANCH   7  10
ENDBRANCH   1   7
BRANCH   4  23
ATOM     23  C   UNL     1      45.076   5.026  12.268  0.00  0.00    +0.000 C 
BRANCH  23  24
ATOM     24  C   UNL     1      45.070   3.621  11.622  0.00  0.00    +0.000 C 
BRANCH  24  25
ATOM     25  O   UNL     1      44.502   2.695  12.555  0.00  0.00    +0.000 OA
ATOM     26  H   UNL     1      43.982   2.043  12.052  0.00  0.00    +0.000 HD
ENDBRANCH  24  25
BRANCH  24  27
ATOM     27  C   UNL     1      44.344   3.581  10.261  0.00  0.00    +0.000 C 
BRANCH  27  28
ATOM     28  C   UNL     1      45.219   3.156   9.103  0.00  0.00    +0.000 A 
ATOM     29  C   UNL     1      45.719   4.114   8.207  0.00  0.00    +0.000 A 
ATOM     30  C   UNL     1      46.566   3.739   7.163  0.00  0.00    +0.000 A 
ATOM     31  C   UNL     1      46.921   2.402   7.002  0.00  0.00    +0.000 A 
ATOM     32  C   UNL     1      46.417   1.439   7.875  0.00  0.00    +0.000 A 
ATOM     33  C   UNL     1      45.567   1.813   8.919  0.00  0.00    +0.000 A 
ENDBRANCH  27  28
ENDBRANCH  24  27
ENDBRANCH  23  24
ENDBRANCH   4  23
TORSDOF 8
ENDMDL
MODEL 9
REMARK VINA RESULT:    -7.146      1.352      1.965
REMARK INTER + INTRA:         -11.786
REMARK INTER:                 -10.390
REMARK INTRA:                  -1.395
REMARK UNBOUND:                -1.507
REMARK  Name = 
REMARK  8 active torsions:
REMARK  status: ('A' for Active; 'I' for Inactive)
REMARK    1  A    between atoms: C_2  and  C_21
REMARK    2  A    between atoms: N_3  and  C_4
REMARK    3  A    between atoms: C_4  and  C_5
REMARK    4  A    between atoms: C_8  and  C_9
REMARK    5  A    between atoms: C_9  and  C_10
REMARK    6  A    between atoms: C_10  and  O_11
REMARK    7  A    between atoms: C_10  and  C_12
REMARK    8  A    between atoms: C_12  and  C_13
REMARK                            x       y       z     vdW  Elec       q    Type
REMARK                         _______ _______ _______ _____ _____    ______ ____
ROOT
ATOM      1  C   UNL     1      48.492   8.188  13.654  0.00  0.00    +0.000 A 
ATOM      2  N   UNL     1      48.741   7.378  12.604  0.00  0.00    +0.000 NA
ATOM      3  C   UNL     1      47.680   7.036  11.845  0.00  0.00    +0.000 A 
ATOM      4  C   UNL     1      46.394   7.480  12.076  0.00  0.00    +0.000 A 
ATOM      5  C   UNL     1      46.269   8.367  13.124  0.00  0.00    +0.000 A 
ATOM      6  N   UNL     1      47.289   8.729  13.923  0.00  0.00    +0.000 NA
ENDROOT
BRANCH   1   7
ATOM      7  C   UNL     1      49.668   8.599  14.521  0.00  0.00    +0.000 C 
BRANCH   7  10
ATOM      8  O   UNL     1      51.197   6.531  15.771  0.00  0.00    +0.000 OA
ATOM      9  C   UNL     1      50.202   6.992  16.307  0.00  0.00    +0.000 C 
ATOM     10  N   UNL     1      49.507   8.095  15.868  0.00  0.00    +0.000 N 
ATOM     11  H   UNL     1      48.582   8.242  16.243  0.00  0.00    +0.000 HD
BRANCH   9  12
ATOM     12  C   UNL     1      49.491   6.316  17.388  0.00  0.00    +0.000 A 
ATOM     13  C   UNL     1      49.724   6.588  18.723  0.00  0.00    +0.000 A 
ATOM     14  S   UNL     1      49.220   5.284  19.720  0.00  0.00    +0.000 S 
ATOM     15  C   UNL     1      48.556   4.447  18.390  0.00  0.00    +0.000 A 
ATOM     16  N   UNL     1      48.084   3.175  18.483  0.00  0.00    +0.000 NA
ATOM     17  C   UNL     1      47.561   2.724  17.388  0.00  0.00    +0.000 A 
ATOM     18  N   UNL     1      47.418   3.444  16.228  0.00  0.00    +0.000 N 
ATOM     19  C   UNL     1      47.882   4.731  16.082  0.00  0.00    +0.000 A 
ATOM     20  O   UNL     1      47.704   5.375  15.059  0.00  0.00    +0.000 OA
ATOM     21  C   UNL     1      48.589   5.219  17.252  0.00  0.00    +0.000 A 
ATOM     22  H   UNL     1      46.919   3.064  15.437  0.00  0.00    +0.000 HD
ENDBRANCH   9  12
ENDBRANCH   7  10
ENDBRANCH   1   7
BRANCH   4  23
ATOM     23  C   UNL     1      45.210   6.950  11.317  0.00  0.00    +0.000 C 
BRANCH  23  24
ATOM     24  C   UNL     1      44.931   5.454  11.589  0.00  0.00    +0.000 C 
BRANCH  24  25
ATOM     25  O   UNL     1      44.298   5.335  12.868  0.00  0.00    +0.000 OA
ATOM     26  H   UNL     1      44.996   5.285  13.545  0.00  0.00    +0.000 HD
ENDBRANCH  24  25
BRANCH  24  27
ATOM     27  C   UNL     1      44.104   4.778  10.476  0.00  0.00    +0.000 C 
BRANCH  27  28
ATOM     28  C   UNL     1      44.923   3.957   9.506  0.00  0.00    +0.000 A 
ATOM     29  C   UNL     1      44.903   2.555   9.575  0.00  0.00    +0.000 A 
ATOM     30  C   UNL     1      45.618   1.786   8.656  0.00  0.00    +0.000 A 
ATOM     31  C   UNL     1      46.362   2.410   7.657  0.00  0.00    +0.000 A 
ATOM     32  C   UNL     1      46.404   3.801   7.589  0.00  0.00    +0.000 A 
ATOM     33  C   UNL     1      45.691   4.572   8.510  0.00  0.00    +0.000 A 
ENDBRANCH  27  28
ENDBRANCH  24  27
ENDBRANCH  23  24
ENDBRANCH   4  23
TORSDOF 8
ENDMDL
