MODEL 1
REMARK VINA RESULT:    -7.412      0.000      0.000
REMARK INTER + INTRA:          -9.936
REMARK INTER:                  -9.362
REMARK INTRA:                  -0.574
REMARK UNBOUND:                -0.574
REMARK  Name = 
REMARK  5 active torsions:
REMARK  status: ('A' for Active; 'I' for Inactive)
REMARK    1  A    between atoms: N_1  and  C_2
REMARK    2  A    between atoms: C_2  and  C_3
REMARK    3  A    between atoms: C_6  and  C_7
REMARK    4  A    between atoms: C_7  and  N_8
REMARK    5  A    between atoms: N_8  and  C_9
REMARK                            x       y       z     vdW  Elec       q    Type
REMARK                         _______ _______ _______ _____ _____    ______ ____
ROOT
ATOM      1  C   UNL     1      46.593   2.278   7.465  0.00  0.00    +0.000 A 
ATOM      2  C   UNL     1      45.840   1.552   8.400  0.00  0.00    +0.000 A 
ATOM      3  C   UNL     1      44.935   2.198   9.247  0.00  0.00    +0.000 A 
ATOM      4  C   UNL     1      44.758   3.586   9.176  0.00  0.00    +0.000 A 
ATOM      5  C   UNL     1      45.521   4.314   8.253  0.00  0.00    +0.000 A 
ATOM      6  C   UNL     1      46.425   3.667   7.403  0.00  0.00    +0.000 A 
ENDROOT
BRANCH   1   7
ATOM      7  C   UNL     1      47.594   1.582   6.575  0.00  0.00    +0.000 C 
BRANCH   7   8
ATOM      8  N   UNL     1      48.663   2.480   6.149  0.00  0.00    +0.000 NA
ATOM      9  H   UNL     1      49.462   2.360   6.769  0.00  0.00    +0.000 HD
ATOM     10  H   UNL     1      48.348   3.441   6.269  0.00  0.00    +0.000 HD
ENDBRANCH   7   8
ENDBRANCH   1   7
BRANCH   4  11
ATOM     11  C   UNL     1      43.772   4.288  10.083  0.00  0.00    +0.000 C 
BRANCH  11  12
ATOM     12  N   UNL     1      44.287   5.593  10.475  0.00  0.00    +0.000 N 
ATOM     13  H   UNL     1      44.513   6.180   9.674  0.00  0.00    +0.000 HD
BRANCH  12  14
ATOM     14  C   UNL     1      45.231   5.707  11.496  0.00  0.00    +0.000 A 
ATOM     15  C   UNL     1      46.378   6.506  11.414  0.00  0.00    +0.000 A 
ATOM     16  C   UNL     1      47.307   6.548  12.461  0.00  0.00    +0.000 A 
ATOM     17  C   UNL     1      47.108   5.759  13.587  0.00  0.00    +0.000 A 
ATOM     18  F   UNL     1      47.995   5.806  14.588  0.00  0.00    +0.000 F 
ATOM     19  C   UNL     1      46.016   4.914  13.673  0.00  0.00    +0.000 A 
ATOM     20  C   UNL     1      45.087   4.884  12.627  0.00  0.00    +0.000 A 
ENDBRANCH  12  14
ENDBRANCH  11  12
ENDBRANCH   4  11
TORSDOF 5
ENDMDL
MODEL 2
REMARK VINA RESULT:    -7.354      3.064      6.177
REMARK INTER + INTRA:          -9.862
REMARK INTER:                  -9.360
REMARK INTRA:                  -0.502
REMARK UNBOUND:                -0.574
REMARK  Name = 
REMARK  5 active torsions:
REMARK  status: ('A' for Active; 'I' for Inactive)
REMARK    1  A    between atoms: N_1  and  C_2
REMARK    2  A    between atoms: C_2  and  C_3
REMARK    3  A    between atoms: C_6  and  C_7
REMARK    4  A    between atoms: C_7  and  N_8
REMARK    5  A    between atoms: N_8  and  C_9
REMARK                            x       y       z     vdW  Elec       q    Type
REMARK                         _______ _______ _______ _____ _____    ______ ____
ROOT
ATOM      1  C   UNL     1      46.704   5.480  12.950  0.00  0.00    +0.000 A 
ATOM      2  C   UNL     1      46.267   4.181  13.250  0.00  0.00    +0.000 A 
ATOM      3  C   UNL     1      45.421   3.490  12.376  0.00  0.00    +0.000 A 
ATOM      4  C   UNL     1      44.995   4.082  11.180  0.00  0.00    +0.000 A 
ATOM      5  C   UNL     1      45.419   5.386  10.887  0.00  0.00    +0.000 A 
ATOM      6  C   UNL     1      46.268   6.076  11.760  0.00  0.00    +0.000 A 
ENDROOT
BRANCH   1   7
ATOM      7  C   UNL     1      47.589   6.236  13.911  0.00  0.00    +0.000 C 
BRANCH   7   8
ATOM      8  N   UNL     1      47.802   5.499  15.153  0.00  0.00    +0.000 NA
ATOM      9  H   UNL     1      47.244   5.926  15.890  0.00  0.00    +0.000 HD
ATOM     10  H   UNL     1      48.776   5.605  15.431  0.00  0.00    +0.000 HD
ENDBRANCH   7   8
ENDBRANCH   1   7
BRANCH   4  11
ATOM     11  C   UNL     1      44.090   3.335  10.227  0.00  0.00    +0.000 C 
BRANCH  11  12
ATOM     12  N   UNL     1      44.776   2.168   9.688  0.00  0.00    +0.000 N 
ATOM     13  H   UNL     1      45.194   1.591  10.416  0.00  0.00    +0.000 HD
BRANCH  12  14
ATOM     14  C   UNL     1      45.597   2.281   8.567  0.00  0.00    +0.000 A 
ATOM     15  C   UNL     1      45.670   3.425   7.762  0.00  0.00    +0.000 A 
ATOM     16  C   UNL     1      46.488   3.461   6.627  0.00  0.00    +0.000 A 
ATOM     17  C   UNL     1      47.214   2.333   6.269  0.00  0.00    +0.000 A 
ATOM     18  F   UNL     1      48.000   2.372   5.186  0.00  0.00    +0.000 F 
ATOM     19  C   UNL     1      47.118   1.166   7.008  0.00  0.00    +0.000 A 
ATOM     20  C   UNL     1      46.306   1.141   8.146  0.00  0.00    +0.000 A 
ENDBRANCH  12  14
ENDBRANCH  11  12
ENDBRANCH   4  11
TORSDOF 5
ENDMDL
MODEL 3
REMARK VINA RESULT:    -7.320      2.715      5.931
REMARK INTER + INTRA:          -9.820
REMARK INTER:                  -9.190
REMARK INTRA:                  -0.630
REMARK UNBOUND:                -0.574
REMARK  Name = 
REMARK  5 active torsions:
REMARK  status: ('A' for Active; 'I' for Inactive)
REMARK    1  A    between atoms: N_1  and  C_2
REMARK    2  A    between atoms: C_2  and  C_3
REMARK    3  A    between atoms: C_6  and  C_7
REMARK    4  A    between atoms: C_7  and  N_8
REMARK    5  A    between atoms: N_8  and  C_9
REMARK                            x       y       z     vdW  Elec       q    Type
REMARK                         _______ _______ _______ _____ _____    ______ ____
ROOT
ATOM      1  C   UNL     1      46.995   5.969  12.915  0.00  0.00    +0.000 A 
ATOM      2  C   UNL     1      46.607   6.642  11.747  0.00  0.00    +0.000 A 
ATOM      3  C   UNL     1      45.556   6.162  10.960  0.00  0.00    +0.000 A 
ATOM      4  C   UNL     1      44.866   4.998  11.325  0.00  0.00    +0.000 A 
ATOM      5  C   UNL     1      45.263   4.317  12.483  0.00  0.00    +0.000 A 
ATOM      6  C   UNL     1      46.313   4.800  13.274  0.00  0.00    +0.000 A 
ENDROOT
BRANCH   1   7
ATOM      7  C   UNL     1      48.151   6.471  13.745  0.00  0.00    +0.000 C 
BRANCH   7   8
ATOM      8  N   UNL     1      49.376   6.590  12.961  0.00  0.00    +0.000 NA
ATOM      9  H   UNL     1      49.396   5.848  12.263  0.00  0.00    +0.000 HD
ATOM     10  H   UNL     1      50.173   6.429  13.574  0.00  0.00    +0.000 HD
ENDBRANCH   7   8
ENDBRANCH   1   7
BRANCH   4  11
ATOM     11  C   UNL     1      43.722   4.481  10.482  0.00  0.00    +0.000 C 
BRANCH  11  12
ATOM     12  N   UNL     1      44.074   4.527   9.069  0.00  0.00    +0.000 N 
ATOM     13  H   UNL     1      43.265   4.686   8.470  0.00  0.00    +0.000 HD
BRANCH  12  14
ATOM     14  C   UNL     1      44.957   3.593   8.526  0.00  0.00    +0.000 A 
ATOM     15  C   UNL     1      44.990   2.242   8.894  0.00  0.00    +0.000 A 
ATOM     16  C   UNL     1      45.927   1.363   8.337  0.00  0.00    +0.000 A 
ATOM     17  C   UNL     1      46.864   1.843   7.430  0.00  0.00    +0.000 A 
ATOM     18  F   UNL     1      47.755   1.000   6.896  0.00  0.00    +0.000 F 
ATOM     19  C   UNL     1      46.896   3.185   7.092  0.00  0.00    +0.000 A 
ATOM     20  C   UNL     1      45.951   4.055   7.645  0.00  0.00    +0.000 A 
ENDBRANCH  12  14
ENDBRANCH  11  12
ENDBRANCH   4  11
TORSDOF 5
ENDMDL
MODEL 4
REMARK VINA RESULT:    -5.815      2.901      5.851
REMARK INTER + INTRA:          -7.919
REMARK INTER:                  -7.284
REMARK INTRA:                  -0.635
REMARK UNBOUND:                -0.574
REMARK  Name = 
REMARK  5 active torsions:
REMARK  status: ('A' for Active; 'I' for Inactive)
REMARK    1  A    between atoms: N_1  and  C_2
REMARK    2  A    between atoms: C_2  and  C_3
REMARK    3  A    between atoms: C_6  and  C_7
REMARK    4  A    between atoms: C_7  and  N_8
REMARK    5  A    between atoms: N_8  and  C_9
REMARK                            x       y       z     vdW  Elec       q    Type
REMARK                         _______ _______ _______ _____ _____    ______ ____
ROOT
ATOM      1  C   UNL     1      48.037   7.533  12.650  0.00  0.00    +0.000 A 
ATOM      2  C   UNL     1      46.962   8.261  12.119  0.00  0.00    +0.000 A 
ATOM      3  C   UNL     1      45.716   7.658  11.921  0.00  0.00    +0.000 A 
ATOM      4  C   UNL     1      45.516   6.312  12.253  0.00  0.00    +0.000 A 
ATOM      5  C   UNL     1      46.594   5.579  12.770  0.00  0.00    +0.000 A 
ATOM      6  C   UNL     1      47.840   6.184  12.971  0.00  0.00    +0.000 A 
ENDROOT
BRANCH   1   7
ATOM      7  C   UNL     1      49.389   8.178  12.831  0.00  0.00    +0.000 C 
BRANCH   7   8
ATOM      8  N   UNL     1      50.457   7.388  12.226  0.00  0.00    +0.000 NA
ATOM      9  H   UNL     1      51.313   7.525  12.760  0.00  0.00    +0.000 HD
ATOM     10  H   UNL     1      50.640   7.750  11.292  0.00  0.00    +0.000 HD
ENDBRANCH   7   8
ENDBRANCH   1   7
BRANCH   4  11
ATOM     11  C   UNL     1      44.168   5.657  12.052  0.00  0.00    +0.000 C 
BRANCH  11  12
ATOM     12  N   UNL     1      43.890   5.501  10.630  0.00  0.00    +0.000 N 
ATOM     13  H   UNL     1      42.896   5.562  10.417  0.00  0.00    +0.000 HD
BRANCH  12  14
ATOM     14  C   UNL     1      44.528   4.508   9.886  0.00  0.00    +0.000 A 
ATOM     15  C   UNL     1      45.378   4.767   8.803  0.00  0.00    +0.000 A 
ATOM     16  C   UNL     1      45.959   3.723   8.073  0.00  0.00    +0.000 A 
ATOM     17  C   UNL     1      45.661   2.407   8.402  0.00  0.00    +0.000 A 
ATOM     18  F   UNL     1      46.222   1.411   7.706  0.00  0.00    +0.000 F 
ATOM     19  C   UNL     1      44.778   2.118   9.428  0.00  0.00    +0.000 A 
ATOM     20  C   UNL     1      44.209   3.165  10.159  0.00  0.00    +0.000 A 
ENDBRANCH  12  14
ENDBRANCH  11  12
ENDBRANCH   4  11
TORSDOF 5
ENDMDL
MODEL 5
REMARK VINA RESULT:    -5.551      1.506      2.096
REMARK INTER + INTRA:          -7.586
REMARK INTER:                  -7.221
REMARK INTRA:                  -0.365
REMARK UNBOUND:                -0.574
REMARK  Name = 
REMARK  5 active torsions:
REMARK  status: ('A' for Active; 'I' for Inactive)
REMARK    1  A    between atoms: N_1  and  C_2
REMARK    2  A    between atoms: C_2  and  C_3
REMARK    3  A    between atoms: C_6  and  C_7
REMARK    4  A    between atoms: C_7  and  N_8
REMARK    5  A    between atoms: N_8  and  C_9
REMARK                            x       y       z     vdW  Elec       q    Type
REMARK                         _______ _______ _______ _____ _____    ______ ____
ROOT
ATOM      1  C   UNL     1      45.751   3.598   8.159  0.00  0.00    +0.000 A 
ATOM      2  C   UNL     1      45.265   2.562   8.971  0.00  0.00    +0.000 A 
ATOM      3  C   UNL     1      44.828   2.819  10.274  0.00  0.00    +0.000 A 
ATOM      4  C   UNL     1      44.863   4.119  10.795  0.00  0.00    +0.000 A 
ATOM      5  C   UNL     1      45.363   5.151   9.990  0.00  0.00    +0.000 A 
ATOM      6  C   UNL     1      45.798   4.896   8.684  0.00  0.00    +0.000 A 
ENDROOT
BRANCH   1   7
ATOM      7  C   UNL     1      46.254   3.313   6.765  0.00  0.00    +0.000 C 
BRANCH   7   8
ATOM      8  N   UNL     1      47.686   3.033   6.747  0.00  0.00    +0.000 NA
ATOM      9  H   UNL     1      48.190   3.867   7.044  0.00  0.00    +0.000 HD
ATOM     10  H   UNL     1      47.971   2.854   5.785  0.00  0.00    +0.000 HD
ENDBRANCH   7   8
ENDBRANCH   1   7
BRANCH   4  11
ATOM     11  C   UNL     1      44.381   4.403  12.199  0.00  0.00    +0.000 C 
BRANCH  11  12
ATOM     12  N   UNL     1      45.342   3.901  13.174  0.00  0.00    +0.000 N 
ATOM     13  H   UNL     1      44.912   3.290  13.866  0.00  0.00    +0.000 HD
BRANCH  12  14
ATOM     14  C   UNL     1      46.291   4.752  13.739  0.00  0.00    +0.000 A 
ATOM     15  C   UNL     1      46.769   5.914  13.119  0.00  0.00    +0.000 A 
ATOM     16  C   UNL     1      47.752   6.706  13.724  0.00  0.00    +0.000 A 
ATOM     17  C   UNL     1      48.290   6.318  14.944  0.00  0.00    +0.000 A 
ATOM     18  F   UNL     1      49.226   7.081  15.522  0.00  0.00    +0.000 F 
ATOM     19  C   UNL     1      47.884   5.144  15.554  0.00  0.00    +0.000 A 
ATOM     20  C   UNL     1      46.895   4.363  14.949  0.00  0.00    +0.000 A 
ENDBRANCH  12  14
ENDBRANCH  11  12
ENDBRANCH   4  11
TORSDOF 5
ENDMDL
MODEL 6
REMARK VINA RESULT:    -5.396      3.455      5.113
REMARK INTER + INTRA:          -7.389
REMARK INTER:                  -7.073
REMARK INTRA:                  -0.316
REMARK UNBOUND:                -0.574
REMARK  Name = 
REMARK  5 active torsions:
REMARK  status: ('A' for Active; 'I' for Inactive)
REMARK    1  A    between atoms: N_1  and  C_2
REMARK    2  A    between atoms: C_2  and  C_3
REMARK    3  A    between atoms: C_6  and  C_7
REMARK    4  A    between atoms: C_7  and  N_8
REMARK    5  A    between atoms: N_8  and  C_9
REMARK                            x       y       z     vdW  Elec       q    Type
REMARK                         _______ _______ _______ _____ _____    ______ ____
ROOT
ATOM      1  C   UNL     1      44.959   4.532  10.489  0.00  0.00    +0.000 A 
ATOM      2  C   UNL     1      44.967   3.612  11.548  0.00  0.00    +0.000 A 
ATOM      3  C   UNL     1      45.628   3.904  12.745  0.00  0.00    +0.000 A 
ATOM      4  C   UNL     1      46.295   5.124  12.912  0.00  0.00    +0.000 A 
ATOM      5  C   UNL     1      46.302   6.037  11.848  0.00  0.00    +0.000 A 
ATOM      6  C   UNL     1      45.637   5.747  10.651  0.00  0.00    +0.000 A 
ENDROOT
BRANCH   1   7
ATOM      7  C   UNL     1      44.274   4.201   9.186  0.00  0.00    +0.000 C 
BRANCH   7   8
ATOM      8  N   UNL     1      45.157   4.390   8.040  0.00  0.00    +0.000 NA
ATOM      9  H   UNL     1      44.590   4.528   7.205  0.00  0.00    +0.000 HD
ATOM     10  H   UNL     1      45.685   3.532   7.890  0.00  0.00    +0.000 HD
ENDBRANCH   7   8
ENDBRANCH   1   7
BRANCH   4  11
ATOM     11  C   UNL     1      47.002   5.448  14.208  0.00  0.00    +0.000 C 
BRANCH  11  12
ATOM     12  N   UNL     1      46.768   4.396  15.189  0.00  0.00    +0.000 N 
ATOM     13  H   UNL     1      45.777   4.259  15.385  0.00  0.00    +0.000 HD
BRANCH  12  14
ATOM     14  C   UNL     1      47.550   4.310  16.340  0.00  0.00    +0.000 A 
ATOM     15  C   UNL     1      47.475   3.256  17.260  0.00  0.00    +0.000 A 
ATOM     16  C   UNL     1      48.263   3.248  18.417  0.00  0.00    +0.000 A 
ATOM     17  C   UNL     1      49.109   4.318  18.679  0.00  0.00    +0.000 A 
ATOM     18  F   UNL     1      49.865   4.304  19.784  0.00  0.00    +0.000 F 
ATOM     19  C   UNL     1      49.162   5.403  17.821  0.00  0.00    +0.000 A 
ATOM     20  C   UNL     1      48.379   5.400  16.662  0.00  0.00    +0.000 A 
ENDBRANCH  12  14
ENDBRANCH  11  12
ENDBRANCH   4  11
TORSDOF 5
ENDMDL
MODEL 7
REMARK VINA RESULT:    -5.347      5.161      7.821
REMARK INTER + INTRA:          -7.328
REMARK INTER:                  -6.878
REMARK INTRA:                  -0.450
REMARK UNBOUND:                -0.574
REMARK  Name = 
REMARK  5 active torsions:
REMARK  status: ('A' for Active; 'I' for Inactive)
REMARK    1  A    between atoms: N_1  and  C_2
REMARK    2  A    between atoms: C_2  and  C_3
REMARK    3  A    between atoms: C_6  and  C_7
REMARK    4  A    between atoms: C_7  and  N_8
REMARK    5  A    between atoms: N_8  and  C_9
REMARK                            x       y       z     vdW  Elec       q    Type
REMARK                         _______ _______ _______ _____ _____    ______ ____
ROOT
ATOM      1  C   UNL     1      51.123   2.494  17.469  0.00  0.00    +0.000 A 
ATOM      2  C   UNL     1      49.930   1.879  17.060  0.00  0.00    +0.000 A 
ATOM      3  C   UNL     1      48.780   2.635  16.819  0.00  0.00    +0.000 A 
ATOM      4  C   UNL     1      48.796   4.027  16.978  0.00  0.00    +0.000 A 
ATOM      5  C   UNL     1      49.982   4.641  17.401  0.00  0.00    +0.000 A 
ATOM      6  C   UNL     1      51.135   3.884  17.639  0.00  0.00    +0.000 A 
ENDROOT
BRANCH   1   7
ATOM      7  C   UNL     1      52.354   1.672  17.761  0.00  0.00    +0.000 C 
BRANCH   7   8
ATOM      8  N   UNL     1      52.019   0.305  18.148  0.00  0.00    +0.000 NA
ATOM      9  H   UNL     1      51.515  -0.141  17.383  0.00  0.00    +0.000 HD
ATOM     10  H   UNL     1      51.374   0.338  18.936  0.00  0.00    +0.000 HD
ENDBRANCH   7   8
ENDBRANCH   1   7
BRANCH   4  11
ATOM     11  C   UNL     1      47.557   4.851  16.708  0.00  0.00    +0.000 C 
BRANCH  11  12
ATOM     12  N   UNL     1      46.762   4.237  15.652  0.00  0.00    +0.000 N 
ATOM     13  H   UNL     1      46.878   3.226  15.615  0.00  0.00    +0.000 HD
BRANCH  12  14
ATOM     14  C   UNL     1      46.704   4.809  14.381  0.00  0.00    +0.000 A 
ATOM     15  C   UNL     1      47.562   5.825  13.941  0.00  0.00    +0.000 A 
ATOM     16  C   UNL     1      47.428   6.384  12.664  0.00  0.00    +0.000 A 
ATOM     17  C   UNL     1      46.405   5.950  11.830  0.00  0.00    +0.000 A 
ATOM     18  F   UNL     1      46.283   6.482  10.608  0.00  0.00    +0.000 F 
ATOM     19  C   UNL     1      45.504   4.991  12.257  0.00  0.00    +0.000 A 
ATOM     20  C   UNL     1      45.650   4.431  13.530  0.00  0.00    +0.000 A 
ENDBRANCH  12  14
ENDBRANCH  11  12
ENDBRANCH   4  11
TORSDOF 5
ENDMDL
MODEL 8
REMARK VINA RESULT:    -5.231      4.390      7.940
REMARK INTER + INTRA:          -7.181
REMARK INTER:                  -6.866
REMARK INTRA:                  -0.316
REMARK UNBOUND:                -0.574
REMARK  Name = 
REMARK  5 active torsions:
REMARK  status: ('A' for Active; 'I' for Inactive)
REMARK    1  A    between atoms: N_1  and  C_2
REMARK    2  A    between atoms: C_2  and  C_3
REMARK    3  A    between atoms: C_6  and  C_7
REMARK    4  A    between atoms: C_7  and  N_8
REMARK    5  A    between atoms: N_8  and  C_9
REMARK                            x       y       z     vdW  Elec       q    Type
REMARK                         _______ _______ _______ _____ _____    ______ ____
ROOT
ATOM      1  C   UNL     1      48.660   4.547  18.211  0.00  0.00    +0.000 A 
ATOM      2  C   UNL     1      47.898   3.562  17.567  0.00  0.00    +0.000 A 
ATOM      3  C   UNL     1      47.423   3.761  16.266  0.00  0.00    +0.000 A 
ATOM      4  C   UNL     1      47.703   4.949  15.579  0.00  0.00    +0.000 A 
ATOM      5  C   UNL     1      48.451   5.940  16.229  0.00  0.00    +0.000 A 
ATOM      6  C   UNL     1      48.929   5.740  17.529  0.00  0.00    +0.000 A 
ENDROOT
BRANCH   1   7
ATOM      7  C   UNL     1      49.142   4.344  19.627  0.00  0.00    +0.000 C 
BRANCH   7   8
ATOM      8  N   UNL     1      48.348   3.347  20.337  0.00  0.00    +0.000 NA
ATOM      9  H   UNL     1      48.467   2.443  19.881  0.00  0.00    +0.000 HD
ATOM     10  H   UNL     1      47.363   3.588  20.245  0.00  0.00    +0.000 HD
ENDBRANCH   7   8
ENDBRANCH   1   7
BRANCH   4  11
ATOM     11  C   UNL     1      47.201   5.164  14.169  0.00  0.00    +0.000 C 
BRANCH  11  12
ATOM     12  N   UNL     1      46.131   4.224  13.865  0.00  0.00    +0.000 N 
ATOM     13  H   UNL     1      46.341   3.277  14.178  0.00  0.00    +0.000 HD
BRANCH  12  14
ATOM     14  C   UNL     1      45.503   4.239  12.619  0.00  0.00    +0.000 A 
ATOM     15  C   UNL     1      44.626   3.243  12.173  0.00  0.00    +0.000 A 
ATOM     16  C   UNL     1      44.057   3.298  10.895  0.00  0.00    +0.000 A 
ATOM     17  C   UNL     1      44.394   4.339  10.039  0.00  0.00    +0.000 A 
ATOM     18  F   UNL     1      43.844   4.392   8.820  0.00  0.00    +0.000 F 
ATOM     19  C   UNL     1      45.304   5.307  10.427  0.00  0.00    +0.000 A 
ATOM     20  C   UNL     1      45.861   5.250  11.709  0.00  0.00    +0.000 A 
ENDBRANCH  12  14
ENDBRANCH  11  12
ENDBRANCH   4  11
TORSDOF 5
ENDMDL
MODEL 9
REMARK VINA RESULT:    -5.213      3.948      6.052
REMARK INTER + INTRA:          -7.159
REMARK INTER:                  -6.784
REMARK INTRA:                  -0.375
REMARK UNBOUND:                -0.574
REMARK  Name = 
REMARK  5 active torsions:
REMARK  status: ('A' for Active; 'I' for Inactive)
REMARK    1  A    between atoms: N_1  and  C_2
REMARK    2  A    between atoms: C_2  and  C_3
REMARK    3  A    between atoms: C_6  and  C_7
REMARK    4  A    between atoms: C_7  and  N_8
REMARK    5  A    between atoms: N_8  and  C_9
REMARK                            x       y       z     vdW  Elec       q    Type
REMARK                         _______ _______ _______ _____ _____    ______ ____
ROOT
ATOM      1  C   UNL     1      44.501   4.071  12.046  0.00  0.00    +0.000 A 
ATOM      2  C   UNL     1      44.436   5.418  12.430  0.00  0.00    +0.000 A 
ATOM      3  C   UNL     1      45.422   5.978  13.249  0.00  0.00    +0.000 A 
ATOM      4  C   UNL     1      46.498   5.203  13.700  0.00  0.00    +0.000 A 
ATOM      5  C   UNL     1      46.555   3.852  13.329  0.00  0.00    +0.000 A 
ATOM      6  C   UNL     1      45.571   3.293  12.506  0.00  0.00    +0.000 A 
ENDROOT
BRANCH   1   7
ATOM      7  C   UNL     1      43.419   3.462  11.189  0.00  0.00    +0.000 C 
BRANCH   7   8
ATOM      8  N   UNL     1      43.030   2.136  11.661  0.00  0.00    +0.000 NA
ATOM      9  H   UNL     1      43.863   1.637  11.967  0.00  0.00    +0.000 HD
ATOM     10  H   UNL     1      42.651   1.609  10.876  0.00  0.00    +0.000 HD
ENDBRANCH   7   8
ENDBRANCH   1   7
BRANCH   4  11
ATOM     11  C   UNL     1      47.572   5.806  14.577  0.00  0.00    +0.000 C 
BRANCH  11  12
ATOM     12  N   UNL     1      47.485   5.264  15.927  0.00  0.00    +0.000 N 
ATOM     13  H   UNL     1      47.279   5.980  16.622  0.00  0.00    +0.000 HD
BRANCH  12  14
ATOM     14  C   UNL     1      48.424   4.340  16.385  0.00  0.00    +0.000 A 
ATOM     15  C   UNL     1      48.263   2.951  16.297  0.00  0.00    +0.000 A 
ATOM     16  C   UNL     1      49.228   2.076  16.809  0.00  0.00    +0.000 A 
ATOM     17  C   UNL     1      50.349   2.589  17.448  0.00  0.00    +0.000 A 
ATOM     18  F   UNL     1      51.272   1.750  17.932  0.00  0.00    +0.000 F 
ATOM     19  C   UNL     1      50.510   3.955  17.605  0.00  0.00    +0.000 A 
ATOM     20  C   UNL     1      49.546   4.824  17.082  0.00  0.00    +0.000 A 
ENDBRANCH  12  14
ENDBRANCH  11  12
ENDBRANCH   4  11
TORSDOF 5
ENDMDL
