MODEL 1
REMARK VINA RESULT:    -9.005      0.000      0.000
REMARK INTER + INTRA:         -11.880
REMARK INTER:                 -11.110
REMARK INTRA:                  -0.770
REMARK UNBOUND:                -0.770
REMARK  Name = 
REMARK  4 active torsions:
REMARK  status: ('A' for Active; 'I' for Inactive)
REMARK    1  A    between atoms: C_2  and  C_4
REMARK    2  A    between atoms: N_8  and  C_9
REMARK    3  A    between atoms: C_9  and  C_10
REMARK    4  A    between atoms: C_15  and  C_16
REMARK                            x       y       z     vdW  Elec       q    Type
REMARK                         _______ _______ _______ _____ _____    ______ ____
ROOT
ATOM      1  C   UNL     1      43.484   4.915  11.001  0.00  0.00    +0.000 C 
ENDROOT
BRANCH   1   6
ATOM      2  C   UNL     1      46.369   2.257   7.677  0.00  0.00    +0.000 A 
ATOM      3  C   UNL     1      45.623   1.783   8.751  0.00  0.00    +0.000 A 
ATOM      4  C   UNL     1      44.770   2.657   9.427  0.00  0.00    +0.000 A 
ATOM      5  C   UNL     1      44.682   3.987   9.029  0.00  0.00    +0.000 A 
ATOM      6  N   UNL     1      43.821   4.901   9.593  0.00  0.00    +0.000 N 
ATOM      7  N   UNL     1      45.408   4.459   7.995  0.00  0.00    +0.000 NA
ATOM      8  C   UNL     1      46.237   3.597   7.348  0.00  0.00    +0.000 A 
ATOM      9  H   UNL     1      43.980   5.811   9.171  0.00  0.00    +0.000 HD
BRANCH   2  11
ATOM     10  N   UNL     1      48.400   2.011   6.369  0.00  0.00    +0.000 N 
ATOM     11  C   UNL     1      47.291   1.410   6.894  0.00  0.00    +0.000 C 
ATOM     12  O   UNL     1      47.087   0.213   6.745  0.00  0.00    +0.000 OA
ATOM     13  H   UNL     1      49.071   1.398   5.918  0.00  0.00    +0.000 HD
ATOM     14  H   UNL     1      48.731   2.914   6.677  0.00  0.00    +0.000 HD
ENDBRANCH   2  11
ENDBRANCH   1   6
BRANCH   1  15
ATOM     15  C   UNL     1      44.642   5.177  11.948  0.00  0.00    +0.000 A 
ATOM     16  C   UNL     1      44.963   4.352  13.032  0.00  0.00    +0.000 A 
ATOM     17  C   UNL     1      46.054   4.653  13.845  0.00  0.00    +0.000 A 
ATOM     18  C   UNL     1      46.832   5.780  13.584  0.00  0.00    +0.000 A 
ATOM     19  F   UNL     1      47.856   6.028  14.416  0.00  0.00    +0.000 F 
ATOM     20  C   UNL     1      46.564   6.640  12.510  0.00  0.00    +0.000 A 
ATOM     21  C   UNL     1      45.453   6.311  11.703  0.00  0.00    +0.000 A 
BRANCH  20  22
ATOM     22  C   UNL     1      47.402   7.823  12.230  0.00  0.00    +0.000 A 
ATOM     23  C   UNL     1      48.704   7.747  11.751  0.00  0.00    +0.000 A 
ATOM     24  N   UNL     1      49.501   8.810  11.492  0.00  0.00    +0.000 NA
ATOM     25  C   UNL     1      48.960  10.011  11.724  0.00  0.00    +0.000 A 
ATOM     26  N   UNL     1      47.720  10.235  12.174  0.00  0.00    +0.000 NA
ATOM     27  C   UNL     1      46.976   9.131  12.416  0.00  0.00    +0.000 A 
ENDBRANCH  20  22
ENDBRANCH   1  15
TORSDOF 4
ENDMDL
MODEL 2
REMARK VINA RESULT:    -8.597      2.460      3.515
REMARK INTER + INTRA:         -11.378
REMARK INTER:                 -10.715
REMARK INTRA:                  -0.662
REMARK UNBOUND:                -0.770
REMARK  Name = 
REMARK  4 active torsions:
REMARK  status: ('A' for Active; 'I' for Inactive)
REMARK    1  A    between atoms: C_2  and  C_4
REMARK    2  A    between atoms: N_8  and  C_9
REMARK    3  A    between atoms: C_9  and  C_10
REMARK    4  A    between atoms: C_15  and  C_16
REMARK                            x       y       z     vdW  Elec       q    Type
REMARK                         _______ _______ _______ _____ _____    ______ ____
ROOT
ATOM      1  C   UNL     1      43.595   4.990  11.056  0.00  0.00    +0.000 C 
ENDROOT
BRANCH   1   6
ATOM      2  C   UNL     1      46.351   2.226   7.710  0.00  0.00    +0.000 A 
ATOM      3  C   UNL     1      45.730   1.803   8.881  0.00  0.00    +0.000 A 
ATOM      4  C   UNL     1      44.884   2.683   9.558  0.00  0.00    +0.000 A 
ATOM      5  C   UNL     1      44.679   3.967   9.065  0.00  0.00    +0.000 A 
ATOM      6  N   UNL     1      43.813   4.876   9.628  0.00  0.00    +0.000 N 
ATOM      7  N   UNL     1      45.284   4.389   7.936  0.00  0.00    +0.000 NA
ATOM      8  C   UNL     1      46.108   3.523   7.288  0.00  0.00    +0.000 A 
ATOM      9  H   UNL     1      43.878   5.755   9.123  0.00  0.00    +0.000 HD
BRANCH   2  11
ATOM     10  N   UNL     1      48.321   1.972   6.311  0.00  0.00    +0.000 N 
ATOM     11  C   UNL     1      47.256   1.367   6.918  0.00  0.00    +0.000 C 
ATOM     12  O   UNL     1      47.078   0.160   6.832  0.00  0.00    +0.000 OA
ATOM     13  H   UNL     1      48.985   1.358   5.853  0.00  0.00    +0.000 HD
ATOM     14  H   UNL     1      48.642   2.897   6.563  0.00  0.00    +0.000 HD
ENDBRANCH   2  11
ENDBRANCH   1   6
BRANCH   1  15
ATOM     15  C   UNL     1      44.728   5.628  11.840  0.00  0.00    +0.000 A 
ATOM     16  C   UNL     1      45.192   6.929  11.618  0.00  0.00    +0.000 A 
ATOM     17  C   UNL     1      46.228   7.447  12.394  0.00  0.00    +0.000 A 
ATOM     18  C   UNL     1      46.810   6.672  13.395  0.00  0.00    +0.000 A 
ATOM     19  F   UNL     1      47.817   7.219  14.093  0.00  0.00    +0.000 F 
ATOM     20  C   UNL     1      46.384   5.363  13.669  0.00  0.00    +0.000 A 
ATOM     21  C   UNL     1      45.333   4.865  12.867  0.00  0.00    +0.000 A 
BRANCH  20  22
ATOM     22  C   UNL     1      46.993   4.553  14.741  0.00  0.00    +0.000 A 
ATOM     23  C   UNL     1      47.504   3.276  14.543  0.00  0.00    +0.000 A 
ATOM     24  N   UNL     1      48.062   2.503  15.504  0.00  0.00    +0.000 NA
ATOM     25  C   UNL     1      48.111   3.044  16.727  0.00  0.00    +0.000 A 
ATOM     26  N   UNL     1      47.668   4.262  17.061  0.00  0.00    +0.000 NA
ATOM     27  C   UNL     1      47.119   4.981  16.055  0.00  0.00    +0.000 A 
ENDBRANCH  20  22
ENDBRANCH   1  15
TORSDOF 4
ENDMDL
MODEL 3
REMARK VINA RESULT:    -7.688      3.591      7.358
REMARK INTER + INTRA:         -10.256
REMARK INTER:                  -9.769
REMARK INTRA:                  -0.486
REMARK UNBOUND:                -0.770
REMARK  Name = 
REMARK  4 active torsions:
REMARK  status: ('A' for Active; 'I' for Inactive)
REMARK    1  A    between atoms: C_2  and  C_4
REMARK    2  A    between atoms: N_8  and  C_9
REMARK    3  A    between atoms: C_9  and  C_10
REMARK    4  A    between atoms: C_15  and  C_16
REMARK                            x       y       z     vdW  Elec       q    Type
REMARK                         _______ _______ _______ _____ _____    ______ ____
ROOT
ATOM      1  C   UNL     1      45.036   6.218  11.038  0.00  0.00    +0.000 C 
ENDROOT
BRANCH   1   6
ATOM      2  C   UNL     1      48.001   5.788  15.217  0.00  0.00    +0.000 A 
ATOM      3  C   UNL     1      47.087   4.874  14.704  0.00  0.00    +0.000 A 
ATOM      4  C   UNL     1      46.508   5.116  13.457  0.00  0.00    +0.000 A 
ATOM      5  C   UNL     1      46.842   6.266  12.748  0.00  0.00    +0.000 A 
ATOM      6  N   UNL     1      46.372   6.553  11.487  0.00  0.00    +0.000 N 
ATOM      7  N   UNL     1      47.720   7.163  13.242  0.00  0.00    +0.000 NA
ATOM      8  C   UNL     1      48.273   6.916  14.459  0.00  0.00    +0.000 A 
ATOM      9  H   UNL     1      46.713   7.467  11.206  0.00  0.00    +0.000 HD
BRANCH   2  11
ATOM     10  N   UNL     1      47.927   5.839  17.644  0.00  0.00    +0.000 N 
ATOM     11  C   UNL     1      48.674   5.617  16.521  0.00  0.00    +0.000 C 
ATOM     12  O   UNL     1      49.842   5.261  16.595  0.00  0.00    +0.000 OA
ATOM     13  H   UNL     1      48.373   5.624  18.529  0.00  0.00    +0.000 HD
ATOM     14  H   UNL     1      46.918   5.881  17.632  0.00  0.00    +0.000 HD
ENDBRANCH   2  11
ENDBRANCH   1   6
BRANCH   1  15
ATOM     15  C   UNL     1      44.862   4.808  10.502  0.00  0.00    +0.000 A 
ATOM     16  C   UNL     1      43.983   3.869  11.053  0.00  0.00    +0.000 A 
ATOM     17  C   UNL     1      43.869   2.598  10.491  0.00  0.00    +0.000 A 
ATOM     18  C   UNL     1      44.632   2.254   9.377  0.00  0.00    +0.000 A 
ATOM     19  F   UNL     1      44.494   1.009   8.895  0.00  0.00    +0.000 F 
ATOM     20  C   UNL     1      45.526   3.153   8.777  0.00  0.00    +0.000 A 
ATOM     21  C   UNL     1      45.621   4.432   9.368  0.00  0.00    +0.000 A 
BRANCH  20  22
ATOM     22  C   UNL     1      46.321   2.787   7.588  0.00  0.00    +0.000 A 
ATOM     23  C   UNL     1      47.148   1.673   7.530  0.00  0.00    +0.000 A 
ATOM     24  N   UNL     1      47.895   1.313   6.460  0.00  0.00    +0.000 NA
ATOM     25  C   UNL     1      47.803   2.114   5.392  0.00  0.00    +0.000 A 
ATOM     26  N   UNL     1      47.041   3.211   5.303  0.00  0.00    +0.000 NA
ATOM     27  C   UNL     1      46.322   3.516   6.408  0.00  0.00    +0.000 A 
ENDBRANCH  20  22
ENDBRANCH   1  15
TORSDOF 4
ENDMDL
MODEL 4
REMARK VINA RESULT:    -7.683      1.886      2.579
REMARK INTER + INTRA:         -10.250
REMARK INTER:                 -10.084
REMARK INTRA:                  -0.166
REMARK UNBOUND:                -0.770
REMARK  Name = 
REMARK  4 active torsions:
REMARK  status: ('A' for Active; 'I' for Inactive)
REMARK    1  A    between atoms: C_2  and  C_4
REMARK    2  A    between atoms: N_8  and  C_9
REMARK    3  A    between atoms: C_9  and  C_10
REMARK    4  A    between atoms: C_15  and  C_16
REMARK                            x       y       z     vdW  Elec       q    Type
REMARK                         _______ _______ _______ _____ _____    ______ ____
ROOT
ATOM      1  C   UNL     1      43.490   3.399  11.050  0.00  0.00    +0.000 C 
ENDROOT
BRANCH   1   6
ATOM      2  C   UNL     1      46.699   2.516   7.132  0.00  0.00    +0.000 A 
ATOM      3  C   UNL     1      46.221   3.733   7.604  0.00  0.00    +0.000 A 
ATOM      4  C   UNL     1      45.490   3.763   8.793  0.00  0.00    +0.000 A 
ATOM      5  C   UNL     1      45.241   2.582   9.484  0.00  0.00    +0.000 A 
ATOM      6  N   UNL     1      44.589   2.525  10.694  0.00  0.00    +0.000 N 
ATOM      7  N   UNL     1      45.692   1.395   9.029  0.00  0.00    +0.000 NA
ATOM      8  C   UNL     1      46.400   1.380   7.868  0.00  0.00    +0.000 A 
ATOM      9  H   UNL     1      44.483   1.552  10.969  0.00  0.00    +0.000 HD
BRANCH   2  11
ATOM     10  N   UNL     1      47.279   3.312   4.911  0.00  0.00    +0.000 N 
ATOM     11  C   UNL     1      47.489   2.382   5.890  0.00  0.00    +0.000 C 
ATOM     12  O   UNL     1      48.319   1.494   5.754  0.00  0.00    +0.000 OA
ATOM     13  H   UNL     1      47.896   3.264   4.108  0.00  0.00    +0.000 HD
ATOM     14  H   UNL     1      46.805   4.188   5.081  0.00  0.00    +0.000 HD
ENDBRANCH   2  11
ENDBRANCH   1   6
BRANCH   1  15
ATOM     15  C   UNL     1      43.864   4.850  11.295  0.00  0.00    +0.000 A 
ATOM     16  C   UNL     1      42.991   5.924  11.086  0.00  0.00    +0.000 A 
ATOM     17  C   UNL     1      43.406   7.228  11.351  0.00  0.00    +0.000 A 
ATOM     18  C   UNL     1      44.694   7.471  11.824  0.00  0.00    +0.000 A 
ATOM     19  F   UNL     1      45.041   8.750  12.040  0.00  0.00    +0.000 F 
ATOM     20  C   UNL     1      45.611   6.437  12.059  0.00  0.00    +0.000 A 
ATOM     21  C   UNL     1      45.164   5.126  11.782  0.00  0.00    +0.000 A 
BRANCH  20  22
ATOM     22  C   UNL     1      46.969   6.700  12.575  0.00  0.00    +0.000 A 
ATOM     23  C   UNL     1      47.464   6.151  13.751  0.00  0.00    +0.000 A 
ATOM     24  N   UNL     1      48.699   6.378  14.256  0.00  0.00    +0.000 NA
ATOM     25  C   UNL     1      49.478   7.196  13.540  0.00  0.00    +0.000 A 
ATOM     26  N   UNL     1      49.139   7.786  12.387  0.00  0.00    +0.000 NA
ATOM     27  C   UNL     1      47.890   7.520  11.939  0.00  0.00    +0.000 A 
ENDBRANCH  20  22
ENDBRANCH   1  15
TORSDOF 4
ENDMDL
MODEL 5
REMARK VINA RESULT:    -7.073      3.523      7.329
REMARK INTER + INTRA:          -9.496
REMARK INTER:                  -9.056
REMARK INTRA:                  -0.440
REMARK UNBOUND:                -0.770
REMARK  Name = 
REMARK  4 active torsions:
REMARK  status: ('A' for Active; 'I' for Inactive)
REMARK    1  A    between atoms: C_2  and  C_4
REMARK    2  A    between atoms: N_8  and  C_9
REMARK    3  A    between atoms: C_9  and  C_10
REMARK    4  A    between atoms: C_15  and  C_16
REMARK                            x       y       z     vdW  Elec       q    Type
REMARK                         _______ _______ _______ _____ _____    ______ ____
ROOT
ATOM      1  C   UNL     1      45.092   6.455  10.991  0.00  0.00    +0.000 C 
ENDROOT
BRANCH   1   6
ATOM      2  C   UNL     1      49.415   7.754  13.451  0.00  0.00    +0.000 A 
ATOM      3  C   UNL     1      48.873   8.311  12.298  0.00  0.00    +0.000 A 
ATOM      4  C   UNL     1      47.596   7.922  11.889  0.00  0.00    +0.000 A 
ATOM      5  C   UNL     1      46.886   6.981  12.630  0.00  0.00    +0.000 A 
ATOM      6  N   UNL     1      45.600   6.590  12.340  0.00  0.00    +0.000 N 
ATOM      7  N   UNL     1      47.408   6.429  13.744  0.00  0.00    +0.000 NA
ATOM      8  C   UNL     1      48.654   6.815  14.129  0.00  0.00    +0.000 A 
ATOM      9  H   UNL     1      45.321   5.859  12.989  0.00  0.00    +0.000 HD
BRANCH   2  11
ATOM     10  N   UNL     1      51.803   8.023  13.100  0.00  0.00    +0.000 N 
ATOM     11  C   UNL     1      50.753   8.107  13.970  0.00  0.00    +0.000 C 
ATOM     12  O   UNL     1      50.911   8.488  15.121  0.00  0.00    +0.000 OA
ATOM     13  H   UNL     1      52.697   8.360  13.441  0.00  0.00    +0.000 HD
ATOM     14  H   UNL     1      51.682   7.964  12.098  0.00  0.00    +0.000 HD
ENDBRANCH   2  11
ENDBRANCH   1   6
BRANCH   1  15
ATOM     15  C   UNL     1      44.896   5.030  10.506  0.00  0.00    +0.000 A 
ATOM     16  C   UNL     1      44.012   4.121  11.099  0.00  0.00    +0.000 A 
ATOM     17  C   UNL     1      43.877   2.833  10.583  0.00  0.00    +0.000 A 
ATOM     18  C   UNL     1      44.624   2.441   9.473  0.00  0.00    +0.000 A 
ATOM     19  F   UNL     1      44.467   1.182   9.036  0.00  0.00    +0.000 F 
ATOM     20  C   UNL     1      45.522   3.309   8.832  0.00  0.00    +0.000 A 
ATOM     21  C   UNL     1      45.637   4.606   9.377  0.00  0.00    +0.000 A 
BRANCH  20  22
ATOM     22  C   UNL     1      46.298   2.892   7.648  0.00  0.00    +0.000 A 
ATOM     23  C   UNL     1      47.092   1.753   7.612  0.00  0.00    +0.000 A 
ATOM     24  N   UNL     1      47.823   1.347   6.547  0.00  0.00    +0.000 NA
ATOM     25  C   UNL     1      47.748   2.126   5.461  0.00  0.00    +0.000 A 
ATOM     26  N   UNL     1      47.018   3.242   5.350  0.00  0.00    +0.000 NA
ATOM     27  C   UNL     1      46.314   3.594   6.451  0.00  0.00    +0.000 A 
ENDBRANCH  20  22
ENDBRANCH   1  15
TORSDOF 4
ENDMDL
MODEL 6
REMARK VINA RESULT:    -6.693      5.582      8.281
REMARK INTER + INTRA:          -9.029
REMARK INTER:                  -8.411
REMARK INTRA:                  -0.617
REMARK UNBOUND:                -0.770
REMARK  Name = 
REMARK  4 active torsions:
REMARK  status: ('A' for Active; 'I' for Inactive)
REMARK    1  A    between atoms: C_2  and  C_4
REMARK    2  A    between atoms: N_8  and  C_9
REMARK    3  A    between atoms: C_9  and  C_10
REMARK    4  A    between atoms: C_15  and  C_16
REMARK                            x       y       z     vdW  Elec       q    Type
REMARK                         _______ _______ _______ _____ _____    ______ ____
ROOT
ATOM      1  C   UNL     1      49.152   6.584  16.201  0.00  0.00    +0.000 C 
ENDROOT
BRANCH   1   6
ATOM      2  C   UNL     1      51.807   2.436  17.676  0.00  0.00    +0.000 A 
ATOM      3  C   UNL     1      52.217   3.765  17.653  0.00  0.00    +0.000 A 
ATOM      4  C   UNL     1      51.279   4.762  17.378  0.00  0.00    +0.000 A 
ATOM      5  C   UNL     1      49.955   4.418  17.122  0.00  0.00    +0.000 A 
ATOM      6  N   UNL     1      48.952   5.335  16.907  0.00  0.00    +0.000 N 
ATOM      7  N   UNL     1      49.551   3.131  17.132  0.00  0.00    +0.000 NA
ATOM      8  C   UNL     1      50.476   2.171  17.399  0.00  0.00    +0.000 A 
ATOM      9  H   UNL     1      48.091   4.841  16.690  0.00  0.00    +0.000 HD
BRANCH   2  11
ATOM     10  N   UNL     1      52.155   0.098  18.237  0.00  0.00    +0.000 N 
ATOM     11  C   UNL     1      52.721   1.312  17.966  0.00  0.00    +0.000 C 
ATOM     12  O   UNL     1      53.936   1.453  17.935  0.00  0.00    +0.000 OA
ATOM     13  H   UNL     1      52.793  -0.683  18.338  0.00  0.00    +0.000 HD
ATOM     14  H   UNL     1      51.190  -0.116  18.023  0.00  0.00    +0.000 HD
ENDBRANCH   2  11
ENDBRANCH   1   6
BRANCH   1  15
ATOM     15  C   UNL     1      48.604   6.629  14.785  0.00  0.00    +0.000 A 
ATOM     16  C   UNL     1      49.215   7.325  13.737  0.00  0.00    +0.000 A 
ATOM     17  C   UNL     1      48.656   7.302  12.459  0.00  0.00    +0.000 A 
ATOM     18  C   UNL     1      47.484   6.588  12.219  0.00  0.00    +0.000 A 
ATOM     19  F   UNL     1      46.984   6.622  10.975  0.00  0.00    +0.000 F 
ATOM     20  C   UNL     1      46.829   5.866  13.229  0.00  0.00    +0.000 A 
ATOM     21  C   UNL     1      47.417   5.907  14.512  0.00  0.00    +0.000 A 
BRANCH  20  22
ATOM     22  C   UNL     1      45.596   5.099  12.964  0.00  0.00    +0.000 A 
ATOM     23  C   UNL     1      45.582   3.736  12.697  0.00  0.00    +0.000 A 
ATOM     24  N   UNL     1      44.472   3.004  12.443  0.00  0.00    +0.000 NA
ATOM     25  C   UNL     1      43.316   3.678  12.461  0.00  0.00    +0.000 A 
ATOM     26  N   UNL     1      43.178   4.985  12.714  0.00  0.00    +0.000 NA
ATOM     27  C   UNL     1      44.327   5.659  12.956  0.00  0.00    +0.000 A 
ENDBRANCH  20  22
ENDBRANCH   1  15
TORSDOF 4
ENDMDL
MODEL 7
REMARK VINA RESULT:    -6.168      4.595      8.360
REMARK INTER + INTRA:          -8.380
REMARK INTER:                  -7.576
REMARK INTRA:                  -0.805
REMARK UNBOUND:                -0.770
REMARK  Name = 
REMARK  4 active torsions:
REMARK  status: ('A' for Active; 'I' for Inactive)
REMARK    1  A    between atoms: C_2  and  C_4
REMARK    2  A    between atoms: N_8  and  C_9
REMARK    3  A    between atoms: C_9  and  C_10
REMARK    4  A    between atoms: C_15  and  C_16
REMARK                            x       y       z     vdW  Elec       q    Type
REMARK                         _______ _______ _______ _____ _____    ______ ____
ROOT
ATOM      1  C   UNL     1      49.244   7.327  12.862  0.00  0.00    +0.000 C 
ENDROOT
BRANCH   1   6
ATOM      2  C   UNL     1      48.317   6.786  17.890  0.00  0.00    +0.000 A 
ATOM      3  C   UNL     1      48.458   5.797  16.923  0.00  0.00    +0.000 A 
ATOM      4  C   UNL     1      48.879   6.154  15.640  0.00  0.00    +0.000 A 
ATOM      5  C   UNL     1      49.142   7.487  15.342  0.00  0.00    +0.000 A 
ATOM      6  N   UNL     1      49.623   7.920  14.128  0.00  0.00    +0.000 N 
ATOM      7  N   UNL     1      48.998   8.454  16.271  0.00  0.00    +0.000 NA
ATOM      8  C   UNL     1      48.585   8.093  17.515  0.00  0.00    +0.000 A 
ATOM      9  H   UNL     1      49.682   8.934  14.137  0.00  0.00    +0.000 HD
BRANCH   2  11
ATOM     10  N   UNL     1      46.914   5.565  19.453  0.00  0.00    +0.000 N 
ATOM     11  C   UNL     1      47.886   6.509  19.276  0.00  0.00    +0.000 C 
ATOM     12  O   UNL     1      48.400   7.077  20.230  0.00  0.00    +0.000 OA
ATOM     13  H   UNL     1      46.699   5.316  20.412  0.00  0.00    +0.000 HD
ATOM     14  H   UNL     1      46.654   4.905  18.733  0.00  0.00    +0.000 HD
ENDBRANCH   2  11
ENDBRANCH   1   6
BRANCH   1  15
ATOM     15  C   UNL     1      47.781   7.476  12.484  0.00  0.00    +0.000 A 
ATOM     16  C   UNL     1      47.164   8.706  12.230  0.00  0.00    +0.000 A 
ATOM     17  C   UNL     1      45.818   8.756  11.871  0.00  0.00    +0.000 A 
ATOM     18  C   UNL     1      45.076   7.581  11.765  0.00  0.00    +0.000 A 
ATOM     19  F   UNL     1      43.780   7.696  11.438  0.00  0.00    +0.000 F 
ATOM     20  C   UNL     1      45.640   6.318  12.002  0.00  0.00    +0.000 A 
ATOM     21  C   UNL     1      47.005   6.298  12.363  0.00  0.00    +0.000 A 
BRANCH  20  22
ATOM     22  C   UNL     1      44.853   5.076  11.873  0.00  0.00    +0.000 A 
ATOM     23  C   UNL     1      44.464   4.536  10.654  0.00  0.00    +0.000 A 
ATOM     24  N   UNL     1      43.737   3.405  10.500  0.00  0.00    +0.000 NA
ATOM     25  C   UNL     1      43.384   2.783  11.631  0.00  0.00    +0.000 A 
ATOM     26  N   UNL     1      43.696   3.182  12.871  0.00  0.00    +0.000 NA
ATOM     27  C   UNL     1      44.422   4.321  12.954  0.00  0.00    +0.000 A 
ENDBRANCH  20  22
ENDBRANCH   1  15
TORSDOF 4
ENDMDL
MODEL 8
REMARK VINA RESULT:    -6.166      5.143      8.263
REMARK INTER + INTRA:          -8.378
REMARK INTER:                  -7.939
REMARK INTRA:                  -0.439
REMARK UNBOUND:                -0.770
REMARK  Name = 
REMARK  4 active torsions:
REMARK  status: ('A' for Active; 'I' for Inactive)
REMARK    1  A    between atoms: C_2  and  C_4
REMARK    2  A    between atoms: N_8  and  C_9
REMARK    3  A    between atoms: C_9  and  C_10
REMARK    4  A    between atoms: C_15  and  C_16
REMARK                            x       y       z     vdW  Elec       q    Type
REMARK                         _______ _______ _______ _____ _____    ______ ____
ROOT
ATOM      1  C   UNL     1      48.559   7.452  14.735  0.00  0.00    +0.000 C 
ENDROOT
BRANCH   1   6
ATOM      2  C   UNL     1      51.261   4.220  17.683  0.00  0.00    +0.000 A 
ATOM      3  C   UNL     1      51.631   5.472  17.203  0.00  0.00    +0.000 A 
ATOM      4  C   UNL     1      50.678   6.263  16.558  0.00  0.00    +0.000 A 
ATOM      5  C   UNL     1      49.380   5.791  16.394  0.00  0.00    +0.000 A 
ATOM      6  N   UNL     1      48.362   6.526  15.831  0.00  0.00    +0.000 N 
ATOM      7  N   UNL     1      49.015   4.574  16.847  0.00  0.00    +0.000 NA
ATOM      8  C   UNL     1      49.953   3.813  17.471  0.00  0.00    +0.000 A 
ATOM      9  H   UNL     1      47.528   5.949  15.774  0.00  0.00    +0.000 HD
BRANCH   2  11
ATOM     10  N   UNL     1      52.087   1.978  18.120  0.00  0.00    +0.000 N 
ATOM     11  C   UNL     1      52.192   3.314  18.386  0.00  0.00    +0.000 C 
ATOM     12  O   UNL     1      53.044   3.743  19.152  0.00  0.00    +0.000 OA
ATOM     13  H   UNL     1      52.794   1.381  18.534  0.00  0.00    +0.000 HD
ATOM     14  H   UNL     1      51.585   1.617  17.321  0.00  0.00    +0.000 HD
ENDBRANCH   2  11
ENDBRANCH   1   6
BRANCH   1  15
ATOM     15  C   UNL     1      47.383   7.597  13.785  0.00  0.00    +0.000 A 
ATOM     16  C   UNL     1      46.969   8.819  13.243  0.00  0.00    +0.000 A 
ATOM     17  C   UNL     1      45.888   8.866  12.363  0.00  0.00    +0.000 A 
ATOM     18  C   UNL     1      45.212   7.697  12.019  0.00  0.00    +0.000 A 
ATOM     19  F   UNL     1      44.167   7.810  11.185  0.00  0.00    +0.000 F 
ATOM     20  C   UNL     1      45.585   6.443  12.525  0.00  0.00    +0.000 A 
ATOM     21  C   UNL     1      46.682   6.425  13.414  0.00  0.00    +0.000 A 
BRANCH  20  22
ATOM     22  C   UNL     1      44.875   5.206  12.145  0.00  0.00    +0.000 A 
ATOM     23  C   UNL     1      44.251   4.366  13.059  0.00  0.00    +0.000 A 
ATOM     24  N   UNL     1      43.599   3.222  12.746  0.00  0.00    +0.000 NA
ATOM     25  C   UNL     1      43.570   2.908  11.446  0.00  0.00    +0.000 A 
ATOM     26  N   UNL     1      44.118   3.625  10.457  0.00  0.00    +0.000 NA
ATOM     27  C   UNL     1      44.757   4.755  10.838  0.00  0.00    +0.000 A 
ENDBRANCH  20  22
ENDBRANCH   1  15
TORSDOF 4
ENDMDL
MODEL 9
REMARK VINA RESULT:    -6.034      4.316      6.346
REMARK INTER + INTRA:          -8.215
REMARK INTER:                  -7.575
REMARK INTRA:                  -0.641
REMARK UNBOUND:                -0.770
REMARK  Name = 
REMARK  4 active torsions:
REMARK  status: ('A' for Active; 'I' for Inactive)
REMARK    1  A    between atoms: C_2  and  C_4
REMARK    2  A    between atoms: N_8  and  C_9
REMARK    3  A    between atoms: C_9  and  C_10
REMARK    4  A    between atoms: C_15  and  C_16
REMARK                            x       y       z     vdW  Elec       q    Type
REMARK                         _______ _______ _______ _____ _____    ______ ____
ROOT
ATOM      1  C   UNL     1      47.895   8.806  13.959  0.00  0.00    +0.000 C 
ENDROOT
BRANCH   1   6
ATOM      2  C   UNL     1      44.629   5.725  11.455  0.00  0.00    +0.000 A 
ATOM      3  C   UNL     1      45.715   5.375  12.249  0.00  0.00    +0.000 A 
ATOM      4  C   UNL     1      46.372   6.367  12.980  0.00  0.00    +0.000 A 
ATOM      5  C   UNL     1      45.942   7.688  12.900  0.00  0.00    +0.000 A 
ATOM      6  N   UNL     1      46.486   8.716  13.634  0.00  0.00    +0.000 N 
ATOM      7  N   UNL     1      44.896   8.038  12.124  0.00  0.00    +0.000 NA
ATOM      8  C   UNL     1      44.268   7.062  11.416  0.00  0.00    +0.000 A 
ATOM      9  H   UNL     1      46.042   9.589  13.362  0.00  0.00    +0.000 HD
BRANCH   2  11
ATOM     10  N   UNL     1      44.096   4.725   9.306  0.00  0.00    +0.000 N 
ATOM     11  C   UNL     1      43.864   4.749  10.652  0.00  0.00    +0.000 C 
ATOM     12  O   UNL     1      43.077   3.971  11.174  0.00  0.00    +0.000 OA
ATOM     13  H   UNL     1      43.638   3.987   8.784  0.00  0.00    +0.000 HD
ATOM     14  H   UNL     1      44.904   5.160   8.882  0.00  0.00    +0.000 HD
ENDBRANCH   2  11
ENDBRANCH   1   6
BRANCH   1  15
ATOM     15  C   UNL     1      48.267   8.379  15.368  0.00  0.00    +0.000 A 
ATOM     16  C   UNL     1      48.235   9.235  16.475  0.00  0.00    +0.000 A 
ATOM     17  C   UNL     1      48.576   8.760  17.740  0.00  0.00    +0.000 A 
ATOM     18  C   UNL     1      48.955   7.430  17.911  0.00  0.00    +0.000 A 
ATOM     19  F   UNL     1      49.294   7.039  19.149  0.00  0.00    +0.000 F 
ATOM     20  C   UNL     1      49.002   6.523  16.841  0.00  0.00    +0.000 A 
ATOM     21  C   UNL     1      48.650   7.032  15.572  0.00  0.00    +0.000 A 
BRANCH  20  22
ATOM     22  C   UNL     1      49.389   5.112  17.032  0.00  0.00    +0.000 A 
ATOM     23  C   UNL     1      50.694   4.698  17.267  0.00  0.00    +0.000 A 
ATOM     24  N   UNL     1      51.085   3.414  17.438  0.00  0.00    +0.000 NA
ATOM     25  C   UNL     1      50.112   2.497  17.371  0.00  0.00    +0.000 A 
ATOM     26  N   UNL     1      48.814   2.751  17.161  0.00  0.00    +0.000 NA
ATOM     27  C   UNL     1      48.491   4.054  16.995  0.00  0.00    +0.000 A 
ENDBRANCH  20  22
ENDBRANCH   1  15
TORSDOF 4
ENDMDL
