MODEL 1
REMARK VINA RESULT:    -7.872      0.000      0.000
REMARK INTER + INTRA:         -11.468
REMARK INTER:                 -11.324
REMARK INTRA:                  -0.144
REMARK UNBOUND:                -0.144
REMARK  Name = 
REMARK  9 active torsions:
REMARK  status: ('A' for Active; 'I' for Inactive)
REMARK    1  A    between atoms: C_1  and  C_2
REMARK    2  A    between atoms: C_2  and  C_3
REMARK    3  A    between atoms: C_2  and  C_14
REMARK    4  A    between atoms: C_2  and  C_22
REMARK    5  A    between atoms: C_3  and  O_4
REMARK    6  A    between atoms: O_4  and  C_5
REMARK    7  A    between atoms: C_8  and  C_9
REMARK    8  A    between atoms: C_18  and  C_19
REMARK    9  A    between atoms: C_19  and  N_20
REMARK                            x       y       z     vdW  Elec       q    Type
REMARK                         _______ _______ _______ _____ _____    ______ ____
ROOT
ATOM      1  C   UNL     1      42.819   5.644  12.706  0.00  0.00    +0.000 C 
ATOM      2  C   UNL     1      43.878   4.758  12.000  0.00  0.00    +0.000 C 
ENDROOT
BRANCH   2   3
ATOM      3  C   UNL     1      45.279   5.376  12.219  0.00  0.00    +0.000 A 
ATOM      4  C   UNL     1      45.893   6.143  11.211  0.00  0.00    +0.000 A 
ATOM      5  C   UNL     1      47.138   6.746  11.417  0.00  0.00    +0.000 A 
ATOM      6  C   UNL     1      47.794   6.613  12.639  0.00  0.00    +0.000 A 
ATOM      7  C   UNL     1      47.209   5.872  13.666  0.00  0.00    +0.000 A 
ATOM      8  C   UNL     1      45.973   5.245  13.434  0.00  0.00    +0.000 A 
BRANCH   7   9
ATOM      9  C   UNL     1      47.861   5.740  15.019  0.00  0.00    +0.000 C 
BRANCH   9  10
ATOM     10  N   UNL     1      47.814   4.355  15.486  0.00  0.00    +0.000 NA
ATOM     11  H   UNL     1      47.721   4.359  16.501  0.00  0.00    +0.000 HD
ATOM     12  H   UNL     1      48.699   3.899  15.277  0.00  0.00    +0.000 HD
ENDBRANCH   9  10
ENDBRANCH   7   9
ENDBRANCH   2   3
BRANCH   2  13
ATOM     13  C   UNL     1      43.812   3.311  12.565  0.00  0.00    +0.000 C 
ATOM     14  F   UNL     1      45.018   2.695  12.514  0.00  0.00    +0.000 F 
ATOM     15  F   UNL     1      43.430   3.293  13.868  0.00  0.00    +0.000 F 
ATOM     16  F   UNL     1      42.943   2.511  11.908  0.00  0.00    +0.000 F 
ENDBRANCH   2  13
BRANCH   2  17
ATOM     17  C   UNL     1      43.469   4.663  10.498  0.00  0.00    +0.000 C 
BRANCH  17  18
ATOM     18  O   UNL     1      43.683   3.334  10.001  0.00  0.00    +0.000 OA
BRANCH  18  19
ATOM     19  C   UNL     1      44.637   3.168   9.049  0.00  0.00    +0.000 A 
ATOM     20  C   UNL     1      45.142   4.109   8.175  0.00  0.00    +0.000 A 
ATOM     21  N   UNL     1      46.137   3.864   7.292  0.00  0.00    +0.000 NA
ATOM     22  C   UNL     1      46.623   2.598   7.297  0.00  0.00    +0.000 A 
ATOM     23  N   UNL     1      46.187   1.592   8.077  0.00  0.00    +0.000 NA
ATOM     24  C   UNL     1      45.197   1.910   8.935  0.00  0.00    +0.000 A 
BRANCH  22  25
ATOM     25  C   UNL     1      47.793   2.322   6.380  0.00  0.00    +0.000 C 
ATOM     26  N   UNL     1      47.792   3.010   5.188  0.00  0.00    +0.000 N 
ATOM     27  O   UNL     1      48.713   1.555   6.652  0.00  0.00    +0.000 OA
ATOM     28  H   UNL     1      47.047   3.663   4.976  0.00  0.00    +0.000 HD
ATOM     29  H   UNL     1      48.572   2.892   4.557  0.00  0.00    +0.000 HD
ENDBRANCH  22  25
ENDBRANCH  18  19
ENDBRANCH  17  18
ENDBRANCH   2  17
TORSDOF 8
ENDMDL
MODEL 2
REMARK VINA RESULT:    -7.856      1.171      1.614
REMARK INTER + INTRA:         -11.445
REMARK INTER:                 -10.933
REMARK INTRA:                  -0.512
REMARK UNBOUND:                -0.144
REMARK  Name = 
REMARK  9 active torsions:
REMARK  status: ('A' for Active; 'I' for Inactive)
REMARK    1  A    between atoms: C_1  and  C_2
REMARK    2  A    between atoms: C_2  and  C_3
REMARK    3  A    between atoms: C_2  and  C_14
REMARK    4  A    between atoms: C_2  and  C_22
REMARK    5  A    between atoms: C_3  and  O_4
REMARK    6  A    between atoms: O_4  and  C_5
REMARK    7  A    between atoms: C_8  and  C_9
REMARK    8  A    between atoms: C_18  and  C_19
REMARK    9  A    between atoms: C_19  and  N_20
REMARK                            x       y       z     vdW  Elec       q    Type
REMARK                         _______ _______ _______ _____ _____    ______ ____
ROOT
ATOM      1  C   UNL     1      44.404   5.856  10.816  0.00  0.00    +0.000 C 
ATOM      2  C   UNL     1      44.469   4.888  12.027  0.00  0.00    +0.000 C 
ENDROOT
BRANCH   2   3
ATOM      3  C   UNL     1      45.707   5.237  12.885  0.00  0.00    +0.000 A 
ATOM      4  C   UNL     1      46.462   6.396  12.621  0.00  0.00    +0.000 A 
ATOM      5  C   UNL     1      47.555   6.746  13.420  0.00  0.00    +0.000 A 
ATOM      6  C   UNL     1      47.911   5.958  14.513  0.00  0.00    +0.000 A 
ATOM      7  C   UNL     1      47.178   4.811  14.813  0.00  0.00    +0.000 A 
ATOM      8  C   UNL     1      46.102   4.454  13.982  0.00  0.00    +0.000 A 
BRANCH   7   9
ATOM      9  C   UNL     1      47.500   3.955  16.012  0.00  0.00    +0.000 C 
BRANCH   9  10
ATOM     10  N   UNL     1      48.287   2.787  15.621  0.00  0.00    +0.000 NA
ATOM     11  H   UNL     1      47.888   2.399  14.767  0.00  0.00    +0.000 HD
ATOM     12  H   UNL     1      48.200   2.067  16.334  0.00  0.00    +0.000 HD
ENDBRANCH   9  10
ENDBRANCH   7   9
ENDBRANCH   2   3
BRANCH   2  13
ATOM     13  C   UNL     1      43.161   5.004  12.860  0.00  0.00    +0.000 C 
ATOM     14  F   UNL     1      43.174   6.093  13.667  0.00  0.00    +0.000 F 
ATOM     15  F   UNL     1      42.065   5.130  12.069  0.00  0.00    +0.000 F 
ATOM     16  F   UNL     1      42.929   3.938  13.658  0.00  0.00    +0.000 F 
ENDBRANCH   2  13
BRANCH   2  17
ATOM     17  C   UNL     1      44.498   3.438  11.454  0.00  0.00    +0.000 C 
BRANCH  17  18
ATOM     18  O   UNL     1      43.955   3.410  10.125  0.00  0.00    +0.000 OA
BRANCH  18  19
ATOM     19  C   UNL     1      44.820   3.205   9.099  0.00  0.00    +0.000 A 
ATOM     20  C   UNL     1      45.265   4.118   8.165  0.00  0.00    +0.000 A 
ATOM     21  N   UNL     1      46.175   3.836   7.205  0.00  0.00    +0.000 NA
ATOM     22  C   UNL     1      46.637   2.560   7.196  0.00  0.00    +0.000 A 
ATOM     23  N   UNL     1      46.251   1.580   8.032  0.00  0.00    +0.000 NA
ATOM     24  C   UNL     1      45.345   1.935   8.965  0.00  0.00    +0.000 A 
BRANCH  22  25
ATOM     25  C   UNL     1      47.718   2.243   6.189  0.00  0.00    +0.000 C 
ATOM     26  N   UNL     1      47.676   2.968   5.020  0.00  0.00    +0.000 N 
ATOM     27  O   UNL     1      48.604   1.411   6.370  0.00  0.00    +0.000 OA
ATOM     28  H   UNL     1      46.962   3.673   4.881  0.00  0.00    +0.000 HD
ATOM     29  H   UNL     1      48.400   2.823   4.330  0.00  0.00    +0.000 HD
ENDBRANCH  22  25
ENDBRANCH  18  19
ENDBRANCH  17  18
ENDBRANCH   2  17
TORSDOF 8
ENDMDL
MODEL 3
REMARK VINA RESULT:    -7.500      2.102      2.552
REMARK INTER + INTRA:         -10.933
REMARK INTER:                 -10.360
REMARK INTRA:                  -0.573
REMARK UNBOUND:                -0.144
REMARK  Name = 
REMARK  9 active torsions:
REMARK  status: ('A' for Active; 'I' for Inactive)
REMARK    1  A    between atoms: C_1  and  C_2
REMARK    2  A    between atoms: C_2  and  C_3
REMARK    3  A    between atoms: C_2  and  C_14
REMARK    4  A    between atoms: C_2  and  C_22
REMARK    5  A    between atoms: C_3  and  O_4
REMARK    6  A    between atoms: O_4  and  C_5
REMARK    7  A    between atoms: C_8  and  C_9
REMARK    8  A    between atoms: C_18  and  C_19
REMARK    9  A    between atoms: C_19  and  N_20
REMARK                            x       y       z     vdW  Elec       q    Type
REMARK                         _______ _______ _______ _____ _____    ______ ____
ROOT
ATOM      1  C   UNL     1      42.723   5.558  12.880  0.00  0.00    +0.000 C 
ATOM      2  C   UNL     1      43.966   5.059  12.097  0.00  0.00    +0.000 C 
ENDROOT
BRANCH   2   3
ATOM      3  C   UNL     1      45.036   6.175  12.088  0.00  0.00    +0.000 A 
ATOM      4  C   UNL     1      46.402   5.862  11.951  0.00  0.00    +0.000 A 
ATOM      5  C   UNL     1      47.374   6.866  11.894  0.00  0.00    +0.000 A 
ATOM      6  C   UNL     1      47.006   8.209  11.955  0.00  0.00    +0.000 A 
ATOM      7  C   UNL     1      45.661   8.557  12.078  0.00  0.00    +0.000 A 
ATOM      8  C   UNL     1      44.699   7.537  12.166  0.00  0.00    +0.000 A 
BRANCH   7   9
ATOM      9  C   UNL     1      45.215   9.997  12.102  0.00  0.00    +0.000 C 
BRANCH   9  10
ATOM     10  N   UNL     1      43.756  10.089  12.095  0.00  0.00    +0.000 NA
ATOM     11  H   UNL     1      43.454  10.507  12.974  0.00  0.00    +0.000 HD
ATOM     12  H   UNL     1      43.360   9.153  12.067  0.00  0.00    +0.000 HD
ENDBRANCH   9  10
ENDBRANCH   7   9
ENDBRANCH   2   3
BRANCH   2  13
ATOM     13  C   UNL     1      44.516   3.764  12.757  0.00  0.00    +0.000 C 
ATOM     14  F   UNL     1      45.001   4.000  14.001  0.00  0.00    +0.000 F 
ATOM     15  F   UNL     1      43.551   2.819  12.899  0.00  0.00    +0.000 F 
ATOM     16  F   UNL     1      45.515   3.180  12.059  0.00  0.00    +0.000 F 
ENDBRANCH   2  13
BRANCH   2  17
ATOM     17  C   UNL     1      43.478   4.654  10.672  0.00  0.00    +0.000 C 
BRANCH  17  18
ATOM     18  O   UNL     1      44.383   5.145   9.672  0.00  0.00    +0.000 OA
BRANCH  18  19
ATOM     19  C   UNL     1      45.093   4.228   8.966  0.00  0.00    +0.000 A 
ATOM     20  C   UNL     1      46.110   4.451   8.060  0.00  0.00    +0.000 A 
ATOM     21  N   UNL     1      46.802   3.467   7.441  0.00  0.00    +0.000 NA
ATOM     22  C   UNL     1      46.425   2.202   7.756  0.00  0.00    +0.000 A 
ATOM     23  N   UNL     1      45.429   1.866   8.595  0.00  0.00    +0.000 NA
ATOM     24  C   UNL     1      44.787   2.897   9.178  0.00  0.00    +0.000 A 
BRANCH  22  25
ATOM     25  C   UNL     1      47.239   1.086   7.144  0.00  0.00    +0.000 C 
ATOM     26  N   UNL     1      46.932  -0.184   7.577  0.00  0.00    +0.000 N 
ATOM     27  O   UNL     1      48.116   1.257   6.300  0.00  0.00    +0.000 OA
ATOM     28  H   UNL     1      46.191  -0.327   8.253  0.00  0.00    +0.000 HD
ATOM     29  H   UNL     1      47.419  -0.969   7.170  0.00  0.00    +0.000 HD
ENDBRANCH  22  25
ENDBRANCH  18  19
ENDBRANCH  17  18
ENDBRANCH   2  17
TORSDOF 8
ENDMDL
MODEL 4
REMARK VINA RESULT:    -7.375      1.401      1.920
REMARK INTER + INTRA:         -10.752
REMARK INTER:                 -10.177
REMARK INTRA:                  -0.575
REMARK UNBOUND:                -0.144
REMARK  Name = 
REMARK  9 active torsions:
REMARK  status: ('A' for Active; 'I' for Inactive)
REMARK    1  A    between atoms: C_1  and  C_2
REMARK    2  A    between atoms: C_2  and  C_3
REMARK    3  A    between atoms: C_2  and  C_14
REMARK    4  A    between atoms: C_2  and  C_22
REMARK    5  A    between atoms: C_3  and  O_4
REMARK    6  A    between atoms: O_4  and  C_5
REMARK    7  A    between atoms: C_8  and  C_9
REMARK    8  A    between atoms: C_18  and  C_19
REMARK    9  A    between atoms: C_19  and  N_20
REMARK                            x       y       z     vdW  Elec       q    Type
REMARK                         _______ _______ _______ _____ _____    ______ ____
ROOT
ATOM      1  C   UNL     1      42.693   5.524  12.882  0.00  0.00    +0.000 C 
ATOM      2  C   UNL     1      43.959   5.105  12.090  0.00  0.00    +0.000 C 
ENDROOT
BRANCH   2   3
ATOM      3  C   UNL     1      44.938   6.301  12.037  0.00  0.00    +0.000 A 
ATOM      4  C   UNL     1      44.464   7.610  11.826  0.00  0.00    +0.000 A 
ATOM      5  C   UNL     1      45.336   8.704  11.824  0.00  0.00    +0.000 A 
ATOM      6  C   UNL     1      46.699   8.522  12.049  0.00  0.00    +0.000 A 
ATOM      7  C   UNL     1      47.201   7.241  12.275  0.00  0.00    +0.000 A 
ATOM      8  C   UNL     1      46.319   6.148  12.243  0.00  0.00    +0.000 A 
BRANCH   7   9
ATOM      9  C   UNL     1      48.662   7.003  12.568  0.00  0.00    +0.000 C 
BRANCH   9  10
ATOM     10  N   UNL     1      48.832   6.348  13.864  0.00  0.00    +0.000 NA
ATOM     11  H   UNL     1      49.145   5.392  13.704  0.00  0.00    +0.000 HD
ATOM     12  H   UNL     1      47.930   6.285  14.330  0.00  0.00    +0.000 HD
ENDBRANCH   9  10
ENDBRANCH   7   9
ENDBRANCH   2   3
BRANCH   2  13
ATOM     13  C   UNL     1      44.619   3.874  12.772  0.00  0.00    +0.000 C 
ATOM     14  F   UNL     1      43.759   2.831  12.869  0.00  0.00    +0.000 F 
ATOM     15  F   UNL     1      45.689   3.419  12.071  0.00  0.00    +0.000 F 
ATOM     16  F   UNL     1      45.067   4.120  14.024  0.00  0.00    +0.000 F 
ENDBRANCH   2  13
BRANCH   2  17
ATOM     17  C   UNL     1      43.483   4.627  10.684  0.00  0.00    +0.000 C 
BRANCH  17  18
ATOM     18  O   UNL     1      44.373   5.103   9.663  0.00  0.00    +0.000 OA
BRANCH  18  19
ATOM     19  C   UNL     1      45.076   4.176   8.964  0.00  0.00    +0.000 A 
ATOM     20  C   UNL     1      46.031   4.386   7.990  0.00  0.00    +0.000 A 
ATOM     21  N   UNL     1      46.723   3.396   7.382  0.00  0.00    +0.000 NA
ATOM     22  C   UNL     1      46.412   2.137   7.780  0.00  0.00    +0.000 A 
ATOM     23  N   UNL     1      45.478   1.810   8.691  0.00  0.00    +0.000 NA
ATOM     24  C   UNL     1      44.831   2.848   9.259  0.00  0.00    +0.000 A 
BRANCH  22  25
ATOM     25  C   UNL     1      47.231   1.019   7.178  0.00  0.00    +0.000 C 
ATOM     26  N   UNL     1      46.861  -0.256   7.542  0.00  0.00    +0.000 N 
ATOM     27  O   UNL     1      48.165   1.193   6.398  0.00  0.00    +0.000 OA
ATOM     28  H   UNL     1      46.075  -0.401   8.164  0.00  0.00    +0.000 HD
ATOM     29  H   UNL     1      47.351  -1.040   7.137  0.00  0.00    +0.000 HD
ENDBRANCH  22  25
ENDBRANCH  18  19
ENDBRANCH  17  18
ENDBRANCH   2  17
TORSDOF 8
ENDMDL
MODEL 5
REMARK VINA RESULT:    -7.347      2.891      6.012
REMARK INTER + INTRA:         -10.712
REMARK INTER:                  -9.744
REMARK INTRA:                  -0.968
REMARK UNBOUND:                -0.144
REMARK  Name = 
REMARK  9 active torsions:
REMARK  status: ('A' for Active; 'I' for Inactive)
REMARK    1  A    between atoms: C_1  and  C_2
REMARK    2  A    between atoms: C_2  and  C_3
REMARK    3  A    between atoms: C_2  and  C_14
REMARK    4  A    between atoms: C_2  and  C_22
REMARK    5  A    between atoms: C_3  and  O_4
REMARK    6  A    between atoms: O_4  and  C_5
REMARK    7  A    between atoms: C_8  and  C_9
REMARK    8  A    between atoms: C_18  and  C_19
REMARK    9  A    between atoms: C_19  and  N_20
REMARK                            x       y       z     vdW  Elec       q    Type
REMARK                         _______ _______ _______ _____ _____    ______ ____
ROOT
ATOM      1  C   UNL     1      45.651   3.247  12.632  0.00  0.00    +0.000 C 
ATOM      2  C   UNL     1      44.800   4.117  11.670  0.00  0.00    +0.000 C 
ENDROOT
BRANCH   2   3
ATOM      3  C   UNL     1      45.213   3.808  10.213  0.00  0.00    +0.000 A 
ATOM      4  C   UNL     1      45.467   4.849   9.300  0.00  0.00    +0.000 A 
ATOM      5  C   UNL     1      45.888   4.581   7.993  0.00  0.00    +0.000 A 
ATOM      6  C   UNL     1      46.082   3.268   7.569  0.00  0.00    +0.000 A 
ATOM      7  C   UNL     1      45.853   2.211   8.451  0.00  0.00    +0.000 A 
ATOM      8  C   UNL     1      45.400   2.495   9.750  0.00  0.00    +0.000 A 
BRANCH   7   9
ATOM      9  C   UNL     1      46.094   0.778   8.049  0.00  0.00    +0.000 C 
BRANCH   9  10
ATOM     10  N   UNL     1      47.231   0.678   7.135  0.00  0.00    +0.000 NA
ATOM     11  H   UNL     1      46.912   0.250   6.267  0.00  0.00    +0.000 HD
ATOM     12  H   UNL     1      47.926   0.049   7.530  0.00  0.00    +0.000 HD
ENDBRANCH   9  10
ENDBRANCH   7   9
ENDBRANCH   2   3
BRANCH   2  13
ATOM     13  C   UNL     1      43.290   3.824  11.897  0.00  0.00    +0.000 C 
ATOM     14  F   UNL     1      43.013   2.501  11.789  0.00  0.00    +0.000 F 
ATOM     15  F   UNL     1      42.882   4.198  13.136  0.00  0.00    +0.000 F 
ATOM     16  F   UNL     1      42.476   4.460  11.025  0.00  0.00    +0.000 F 
ENDBRANCH   2  13
BRANCH   2  17
ATOM     17  C   UNL     1      45.025   5.606  12.078  0.00  0.00    +0.000 C 
BRANCH  17  18
ATOM     18  O   UNL     1      45.843   5.688  13.254  0.00  0.00    +0.000 OA
BRANCH  18  19
ATOM     19  C   UNL     1      47.049   6.300  13.137  0.00  0.00    +0.000 A 
ATOM     20  C   UNL     1      48.082   6.331  14.052  0.00  0.00    +0.000 A 
ATOM     21  N   UNL     1      49.276   6.924  13.826  0.00  0.00    +0.000 NA
ATOM     22  C   UNL     1      49.411   7.520  12.614  0.00  0.00    +0.000 A 
ATOM     23  N   UNL     1      48.465   7.583  11.660  0.00  0.00    +0.000 NA
ATOM     24  C   UNL     1      47.302   6.967  11.954  0.00  0.00    +0.000 A 
BRANCH  22  25
ATOM     25  C   UNL     1      50.766   8.114  12.304  0.00  0.00    +0.000 C 
ATOM     26  N   UNL     1      51.670   8.115  13.342  0.00  0.00    +0.000 N 
ATOM     27  O   UNL     1      51.084   8.563  11.205  0.00  0.00    +0.000 OA
ATOM     28  H   UNL     1      51.416   7.720  14.239  0.00  0.00    +0.000 HD
ATOM     29  H   UNL     1      52.602   8.464  13.175  0.00  0.00    +0.000 HD
ENDBRANCH  22  25
ENDBRANCH  18  19
ENDBRANCH  17  18
ENDBRANCH   2  17
TORSDOF 8
ENDMDL
MODEL 6
REMARK VINA RESULT:    -7.167      2.953      6.948
REMARK INTER + INTRA:         -10.454
REMARK INTER:                  -9.606
REMARK INTRA:                  -0.848
REMARK UNBOUND:                -0.144
REMARK  Name = 
REMARK  9 active torsions:
REMARK  status: ('A' for Active; 'I' for Inactive)
REMARK    1  A    between atoms: C_1  and  C_2
REMARK    2  A    between atoms: C_2  and  C_3
REMARK    3  A    between atoms: C_2  and  C_14
REMARK    4  A    between atoms: C_2  and  C_22
REMARK    5  A    between atoms: C_3  and  O_4
REMARK    6  A    between atoms: O_4  and  C_5
REMARK    7  A    between atoms: C_8  and  C_9
REMARK    8  A    between atoms: C_18  and  C_19
REMARK    9  A    between atoms: C_19  and  N_20
REMARK                            x       y       z     vdW  Elec       q    Type
REMARK                         _______ _______ _______ _____ _____    ______ ____
ROOT
ATOM      1  C   UNL     1      43.962   3.238  12.526  0.00  0.00    +0.000 C 
ATOM      2  C   UNL     1      44.502   4.517  11.834  0.00  0.00    +0.000 C 
ENDROOT
BRANCH   2   3
ATOM      3  C   UNL     1      45.011   4.148  10.421  0.00  0.00    +0.000 A 
ATOM      4  C   UNL     1      45.508   5.140   9.554  0.00  0.00    +0.000 A 
ATOM      5  C   UNL     1      46.015   4.811   8.292  0.00  0.00    +0.000 A 
ATOM      6  C   UNL     1      46.055   3.483   7.871  0.00  0.00    +0.000 A 
ATOM      7  C   UNL     1      45.584   2.473   8.710  0.00  0.00    +0.000 A 
ATOM      8  C   UNL     1      45.048   2.822   9.961  0.00  0.00    +0.000 A 
BRANCH   7   9
ATOM      9  C   UNL     1      45.651   1.019   8.314  0.00  0.00    +0.000 C 
BRANCH   9  10
ATOM     10  N   UNL     1      46.877   0.738   7.571  0.00  0.00    +0.000 NA
ATOM     11  H   UNL     1      46.625   0.455   6.625  0.00  0.00    +0.000 HD
ATOM     12  H   UNL     1      47.354  -0.055   7.994  0.00  0.00    +0.000 HD
ENDBRANCH   9  10
ENDBRANCH   7   9
ENDBRANCH   2   3
BRANCH   2  13
ATOM     13  C   UNL     1      43.377   5.587  11.760  0.00  0.00    +0.000 C 
ATOM     14  F   UNL     1      42.635   5.460  10.633  0.00  0.00    +0.000 F 
ATOM     15  F   UNL     1      42.509   5.483  12.799  0.00  0.00    +0.000 F 
ATOM     16  F   UNL     1      43.834   6.859  11.778  0.00  0.00    +0.000 F 
ENDBRANCH   2  13
BRANCH   2  17
ATOM     17  C   UNL     1      45.610   5.106  12.760  0.00  0.00    +0.000 C 
BRANCH  17  18
ATOM     18  O   UNL     1      45.896   4.205  13.839  0.00  0.00    +0.000 OA
BRANCH  18  19
ATOM     19  C   UNL     1      46.887   4.553  14.700  0.00  0.00    +0.000 A 
ATOM     20  C   UNL     1      47.296   3.893  15.841  0.00  0.00    +0.000 A 
ATOM     21  N   UNL     1      48.334   4.287  16.612  0.00  0.00    +0.000 NA
ATOM     22  C   UNL     1      48.971   5.412  16.202  0.00  0.00    +0.000 A 
ATOM     23  N   UNL     1      48.642   6.155  15.130  0.00  0.00    +0.000 NA
ATOM     24  C   UNL     1      47.600   5.700  14.406  0.00  0.00    +0.000 A 
BRANCH  22  25
ATOM     25  C   UNL     1      50.188   5.825  16.998  0.00  0.00    +0.000 C 
ATOM     26  N   UNL     1      49.959   6.146  18.316  0.00  0.00    +0.000 N 
ATOM     27  O   UNL     1      51.328   5.867  16.539  0.00  0.00    +0.000 OA
ATOM     28  H   UNL     1      49.024   6.086  18.701  0.00  0.00    +0.000 HD
ATOM     29  H   UNL     1      50.745   6.389  18.902  0.00  0.00    +0.000 HD
ENDBRANCH  22  25
ENDBRANCH  18  19
ENDBRANCH  17  18
ENDBRANCH   2  17
TORSDOF 8
ENDMDL
MODEL 7
REMARK VINA RESULT:    -6.922      4.665      7.013
REMARK INTER + INTRA:         -10.102
REMARK INTER:                  -9.178
REMARK INTRA:                  -0.924
REMARK UNBOUND:                -0.144
REMARK  Name = 
REMARK  9 active torsions:
REMARK  status: ('A' for Active; 'I' for Inactive)
REMARK    1  A    between atoms: C_1  and  C_2
REMARK    2  A    between atoms: C_2  and  C_3
REMARK    3  A    between atoms: C_2  and  C_14
REMARK    4  A    between atoms: C_2  and  C_22
REMARK    5  A    between atoms: C_3  and  O_4
REMARK    6  A    between atoms: O_4  and  C_5
REMARK    7  A    between atoms: C_8  and  C_9
REMARK    8  A    between atoms: C_18  and  C_19
REMARK    9  A    between atoms: C_19  and  N_20
REMARK                            x       y       z     vdW  Elec       q    Type
REMARK                         _______ _______ _______ _____ _____    ______ ____
ROOT
ATOM      1  C   UNL     1      49.338   6.170  16.665  0.00  0.00    +0.000 C 
ATOM      2  C   UNL     1      48.690   4.890  17.256  0.00  0.00    +0.000 C 
ENDROOT
BRANCH   2   3
ATOM      3  C   UNL     1      49.779   3.806  17.425  0.00  0.00    +0.000 A 
ATOM      4  C   UNL     1      49.562   2.491  16.971  0.00  0.00    +0.000 A 
ATOM      5  C   UNL     1      50.558   1.515  17.076  0.00  0.00    +0.000 A 
ATOM      6  C   UNL     1      51.802   1.830  17.620  0.00  0.00    +0.000 A 
ATOM      7  C   UNL     1      52.057   3.127  18.066  0.00  0.00    +0.000 A 
ATOM      8  C   UNL     1      51.036   4.088  17.984  0.00  0.00    +0.000 A 
BRANCH   7   9
ATOM      9  C   UNL     1      53.403   3.523  18.619  0.00  0.00    +0.000 C 
BRANCH   9  10
ATOM     10  N   UNL     1      53.836   2.588  19.656  0.00  0.00    +0.000 NA
ATOM     11  H   UNL     1      53.115   2.546  20.375  0.00  0.00    +0.000 HD
ATOM     12  H   UNL     1      54.674   2.948  20.106  0.00  0.00    +0.000 HD
ENDBRANCH   9  10
ENDBRANCH   7   9
ENDBRANCH   2   3
BRANCH   2  13
ATOM     13  C   UNL     1      48.019   5.225  18.618  0.00  0.00    +0.000 C 
ATOM     14  F   UNL     1      48.253   4.263  19.544  0.00  0.00    +0.000 F 
ATOM     15  F   UNL     1      48.492   6.383  19.145  0.00  0.00    +0.000 F 
ATOM     16  F   UNL     1      46.677   5.367  18.542  0.00  0.00    +0.000 F 
ENDBRANCH   2  13
BRANCH   2  17
ATOM     17  C   UNL     1      47.539   4.471  16.290  0.00  0.00    +0.000 C 
BRANCH  17  18
ATOM     18  O   UNL     1      47.782   4.975  14.969  0.00  0.00    +0.000 OA
BRANCH  18  19
ATOM     19  C   UNL     1      46.895   4.640  13.997  0.00  0.00    +0.000 A 
ATOM     20  C   UNL     1      46.536   3.377  13.570  0.00  0.00    +0.000 A 
ATOM     21  N   UNL     1      45.597   3.135  12.628  0.00  0.00    +0.000 NA
ATOM     22  C   UNL     1      45.013   4.236  12.091  0.00  0.00    +0.000 A 
ATOM     23  N   UNL     1      45.306   5.511  12.403  0.00  0.00    +0.000 NA
ATOM     24  C   UNL     1      46.247   5.676  13.353  0.00  0.00    +0.000 A 
BRANCH  22  25
ATOM     25  C   UNL     1      43.900   3.991  11.098  0.00  0.00    +0.000 C 
ATOM     26  N   UNL     1      43.601   5.043  10.263  0.00  0.00    +0.000 N 
ATOM     27  O   UNL     1      43.288   2.930  10.999  0.00  0.00    +0.000 OA
ATOM     28  H   UNL     1      44.124   5.909  10.327  0.00  0.00    +0.000 HD
ATOM     29  H   UNL     1      42.893   4.918   9.555  0.00  0.00    +0.000 HD
ENDBRANCH  22  25
ENDBRANCH  18  19
ENDBRANCH  17  18
ENDBRANCH   2  17
TORSDOF 8
ENDMDL
MODEL 8
REMARK VINA RESULT:    -6.797      3.159      6.937
REMARK INTER + INTRA:          -9.922
REMARK INTER:                  -9.134
REMARK INTRA:                  -0.787
REMARK UNBOUND:                -0.144
REMARK  Name = 
REMARK  9 active torsions:
REMARK  status: ('A' for Active; 'I' for Inactive)
REMARK    1  A    between atoms: C_1  and  C_2
REMARK    2  A    between atoms: C_2  and  C_3
REMARK    3  A    between atoms: C_2  and  C_14
REMARK    4  A    between atoms: C_2  and  C_22
REMARK    5  A    between atoms: C_3  and  O_4
REMARK    6  A    between atoms: O_4  and  C_5
REMARK    7  A    between atoms: C_8  and  C_9
REMARK    8  A    between atoms: C_18  and  C_19
REMARK    9  A    between atoms: C_19  and  N_20
REMARK                            x       y       z     vdW  Elec       q    Type
REMARK                         _______ _______ _______ _____ _____    ______ ____
ROOT
ATOM      1  C   UNL     1      45.540   3.241  12.548  0.00  0.00    +0.000 C 
ATOM      2  C   UNL     1      44.825   4.195  11.555  0.00  0.00    +0.000 C 
ENDROOT
BRANCH   2   3
ATOM      3  C   UNL     1      45.230   3.815  10.113  0.00  0.00    +0.000 A 
ATOM      4  C   UNL     1      45.507   4.811   9.157  0.00  0.00    +0.000 A 
ATOM      5  C   UNL     1      45.920   4.478   7.863  0.00  0.00    +0.000 A 
ATOM      6  C   UNL     1      46.084   3.144   7.494  0.00  0.00    +0.000 A 
ATOM      7  C   UNL     1      45.832   2.131   8.420  0.00  0.00    +0.000 A 
ATOM      8  C   UNL     1      45.387   2.480   9.706  0.00  0.00    +0.000 A 
BRANCH   7   9
ATOM      9  C   UNL     1      46.040   0.677   8.079  0.00  0.00    +0.000 C 
BRANCH   9  10
ATOM     10  N   UNL     1      47.411   0.439   7.631  0.00  0.00    +0.000 NA
ATOM     11  H   UNL     1      47.630   1.106   6.892  0.00  0.00    +0.000 HD
ATOM     12  H   UNL     1      47.474  -0.487   7.215  0.00  0.00    +0.000 HD
ENDBRANCH   9  10
ENDBRANCH   7   9
ENDBRANCH   2   3
BRANCH   2  13
ATOM     13  C   UNL     1      43.286   4.093  11.749  0.00  0.00    +0.000 C 
ATOM     14  F   UNL     1      42.842   2.823  11.590  0.00  0.00    +0.000 F 
ATOM     15  F   UNL     1      42.905   4.477  12.994  0.00  0.00    +0.000 F 
ATOM     16  F   UNL     1      42.578   4.858  10.887  0.00  0.00    +0.000 F 
ENDBRANCH   2  13
BRANCH   2  17
ATOM     17  C   UNL     1      45.223   5.650  11.951  0.00  0.00    +0.000 C 
BRANCH  17  18
ATOM     18  O   UNL     1      46.651   5.783  12.010  0.00  0.00    +0.000 OA
BRANCH  18  19
ATOM     19  C   UNL     1      47.165   6.587  12.976  0.00  0.00    +0.000 A 
ATOM     20  C   UNL     1      48.100   6.271  13.941  0.00  0.00    +0.000 A 
ATOM     21  N   UNL     1      48.597   7.157  14.833  0.00  0.00    +0.000 NA
ATOM     22  C   UNL     1      48.103   8.417  14.740  0.00  0.00    +0.000 A 
ATOM     23  N   UNL     1      47.168   8.832  13.867  0.00  0.00    +0.000 NA
ATOM     24  C   UNL     1      46.722   7.896  13.005  0.00  0.00    +0.000 A 
BRANCH  22  25
ATOM     25  C   UNL     1      48.706   9.446  15.669  0.00  0.00    +0.000 C 
ATOM     26  N   UNL     1      47.856   9.962  16.621  0.00  0.00    +0.000 N 
ATOM     27  O   UNL     1      49.877   9.813  15.622  0.00  0.00    +0.000 OA
ATOM     28  H   UNL     1      46.897   9.640  16.677  0.00  0.00    +0.000 HD
ATOM     29  H   UNL     1      48.219  10.623  17.292  0.00  0.00    +0.000 HD
ENDBRANCH  22  25
ENDBRANCH  18  19
ENDBRANCH  17  18
ENDBRANCH   2  17
TORSDOF 8
ENDMDL
MODEL 9
REMARK VINA RESULT:    -6.720      4.413      6.648
REMARK INTER + INTRA:          -9.811
REMARK INTER:                  -8.721
REMARK INTRA:                  -1.090
REMARK UNBOUND:                -0.144
REMARK  Name = 
REMARK  9 active torsions:
REMARK  status: ('A' for Active; 'I' for Inactive)
REMARK    1  A    between atoms: C_1  and  C_2
REMARK    2  A    between atoms: C_2  and  C_3
REMARK    3  A    between atoms: C_2  and  C_14
REMARK    4  A    between atoms: C_2  and  C_22
REMARK    5  A    between atoms: C_3  and  O_4
REMARK    6  A    between atoms: O_4  and  C_5
REMARK    7  A    between atoms: C_8  and  C_9
REMARK    8  A    between atoms: C_18  and  C_19
REMARK    9  A    between atoms: C_19  and  N_20
REMARK                            x       y       z     vdW  Elec       q    Type
REMARK                         _______ _______ _______ _____ _____    ______ ____
ROOT
ATOM      1  C   UNL     1      50.352   7.789  14.697  0.00  0.00    +0.000 C 
ATOM      2  C   UNL     1      49.175   7.355  15.610  0.00  0.00    +0.000 C 
ENDROOT
BRANCH   2   3
ATOM      3  C   UNL     1      49.591   6.096  16.404  0.00  0.00    +0.000 A 
ATOM      4  C   UNL     1      50.906   5.951  16.886  0.00  0.00    +0.000 A 
ATOM      5  C   UNL     1      51.280   4.838  17.646  0.00  0.00    +0.000 A 
ATOM      6  C   UNL     1      50.349   3.850  17.960  0.00  0.00    +0.000 A 
ATOM      7  C   UNL     1      49.033   3.968  17.511  0.00  0.00    +0.000 A 
ATOM      8  C   UNL     1      48.680   5.075  16.722  0.00  0.00    +0.000 A 
BRANCH   7   9
ATOM      9  C   UNL     1      47.981   2.947  17.865  0.00  0.00    +0.000 C 
BRANCH   9  10
ATOM     10  N   UNL     1      46.654   3.406  17.459  0.00  0.00    +0.000 NA
ATOM     11  H   UNL     1      46.755   4.006  16.641  0.00  0.00    +0.000 HD
ATOM     12  H   UNL     1      46.258   3.984  18.196  0.00  0.00    +0.000 HD
ENDBRANCH   9  10
ENDBRANCH   7   9
ENDBRANCH   2   3
BRANCH   2  13
ATOM     13  C   UNL     1      48.799   8.520  16.569  0.00  0.00    +0.000 C 
ATOM     14  F   UNL     1      47.884   9.353  16.014  0.00  0.00    +0.000 F 
ATOM     15  F   UNL     1      48.249   8.068  17.725  0.00  0.00    +0.000 F 
ATOM     16  F   UNL     1      49.851   9.289  16.928  0.00  0.00    +0.000 F 
ENDBRANCH   2  13
BRANCH   2  17
ATOM     17  C   UNL     1      47.938   7.128  14.687  0.00  0.00    +0.000 C 
BRANCH  17  18
ATOM     18  O   UNL     1      48.274   6.250  13.603  0.00  0.00    +0.000 OA
BRANCH  18  19
ATOM     19  C   UNL     1      47.305   5.414  13.151  0.00  0.00    +0.000 A 
ATOM     20  C   UNL     1      46.937   4.183  13.655  0.00  0.00    +0.000 A 
ATOM     21  N   UNL     1      45.917   3.440  13.171  0.00  0.00    +0.000 NA
ATOM     22  C   UNL     1      45.254   3.977  12.116  0.00  0.00    +0.000 A 
ATOM     23  N   UNL     1      45.543   5.148  11.521  0.00  0.00    +0.000 NA
ATOM     24  C   UNL     1      46.570   5.836  12.060  0.00  0.00    +0.000 A 
BRANCH  22  25
ATOM     25  C   UNL     1      44.055   3.207  11.611  0.00  0.00    +0.000 C 
ATOM     26  N   UNL     1      43.628   2.174  12.414  0.00  0.00    +0.000 N 
ATOM     27  O   UNL     1      43.463   3.465  10.566  0.00  0.00    +0.000 OA
ATOM     28  H   UNL     1      44.100   1.979  13.289  0.00  0.00    +0.000 HD
ATOM     29  H   UNL     1      42.806   1.654  12.143  0.00  0.00    +0.000 HD
ENDBRANCH  22  25
ENDBRANCH  18  19
ENDBRANCH  17  18
ENDBRANCH   2  17
TORSDOF 8
ENDMDL
