MODEL 1
REMARK VINA RESULT:    -9.201      0.000      0.000
REMARK INTER + INTRA:         -13.627
REMARK INTER:                 -12.428
REMARK INTRA:                  -1.199
REMARK UNBOUND:                -1.199
REMARK  Name = 
REMARK  6 active torsions:
REMARK  status: ('A' for Active; 'I' for Inactive)
REMARK    1  A    between atoms: C_2  and  C_3
REMARK    2  A    between atoms: N_7  and  C_8
REMARK    3  A    between atoms: C_8  and  C_9
REMARK    4  A    between atoms: C_9  and  C_12
REMARK    5  A    between atoms: C_16  and  C_17
REMARK    6  A    between atoms: C_21  and  C_22
REMARK                            x       y       z     vdW  Elec       q    Type
REMARK                         _______ _______ _______ _____ _____    ______ ____
ROOT
ATOM      1  C   UNL     1      44.950   5.337  12.268  0.00  0.00    +0.000 A 
ATOM      2  C   UNL     1      45.419   6.255  11.320  0.00  0.00    +0.000 A 
ATOM      3  C   UNL     1      46.638   6.898  11.512  0.00  0.00    +0.000 A 
ATOM      4  C   UNL     1      47.395   6.640  12.657  0.00  0.00    +0.000 A 
ATOM      5  C   UNL     1      46.953   5.739  13.642  0.00  0.00    +0.000 A 
ATOM      6  C   UNL     1      45.730   5.080  13.413  0.00  0.00    +0.000 A 
ENDROOT
BRANCH   5   7
ATOM      7  C   UNL     1      47.719   5.527  14.888  0.00  0.00    +0.000 A 
ATOM      8  C   UNL     1      48.620   6.480  15.371  0.00  0.00    +0.000 A 
ATOM      9  N   UNL     1      49.335   6.369  16.518  0.00  0.00    +0.000 NA
ATOM     10  C   UNL     1      49.151   5.249  17.246  0.00  0.00    +0.000 A 
ATOM     11  C   UNL     1      48.287   4.230  16.880  0.00  0.00    +0.000 A 
ATOM     12  C   UNL     1      47.573   4.378  15.679  0.00  0.00    +0.000 A 
BRANCH  11  13
ATOM     13  C   UNL     1      48.116   3.022  17.746  0.00  0.00    +0.000 C 
ATOM     14  F   UNL     1      46.856   2.507  17.727  0.00  0.00    +0.000 F 
ATOM     15  F   UNL     1      48.941   2.003  17.378  0.00  0.00    +0.000 F 
ATOM     16  F   UNL     1      48.396   3.274  19.054  0.00  0.00    +0.000 F 
ENDBRANCH  11  13
ENDBRANCH   5   7
BRANCH   1  17
ATOM     17  C   UNL     1      43.578   4.702  12.111  0.00  0.00    +0.000 C 
ATOM     18  F   UNL     1      42.575   5.542  12.503  0.00  0.00    +0.000 F 
ATOM     19  F   UNL     1      43.434   3.580  12.877  0.00  0.00    +0.000 F 
BRANCH  17  20
ATOM     20  C   UNL     1      43.367   4.325  10.623  0.00  0.00    +0.000 C 
BRANCH  20  25
ATOM     21  C   UNL     1      46.752   2.403   7.272  0.00  0.00    +0.000 A 
ATOM     22  C   UNL     1      46.275   3.694   7.462  0.00  0.00    +0.000 A 
ATOM     23  C   UNL     1      45.327   3.931   8.459  0.00  0.00    +0.000 A 
ATOM     24  C   UNL     1      44.866   2.880   9.249  0.00  0.00    +0.000 A 
ATOM     25  N   UNL     1      43.921   3.036  10.227  0.00  0.00    +0.000 N 
ATOM     26  N   UNL     1      45.330   1.627   9.074  0.00  0.00    +0.000 NA
ATOM     27  C   UNL     1      46.253   1.412   8.100  0.00  0.00    +0.000 A 
ATOM     28  H   UNL     1      43.689   2.195  10.745  0.00  0.00    +0.000 HD
BRANCH  21  30
ATOM     29  N   UNL     1      48.492   1.860   5.436  0.00  0.00    +0.000 NA
ATOM     30  C   UNL     1      47.717   2.105   6.262  0.00  0.00    +0.000 C 
ENDBRANCH  21  30
ENDBRANCH  20  25
ENDBRANCH  17  20
ENDBRANCH   1  17
TORSDOF 6
ENDMDL
MODEL 2
REMARK VINA RESULT:    -8.514      1.693      2.118
REMARK INTER + INTRA:         -12.699
REMARK INTER:                 -11.551
REMARK INTRA:                  -1.148
REMARK UNBOUND:                -1.199
REMARK  Name = 
REMARK  6 active torsions:
REMARK  status: ('A' for Active; 'I' for Inactive)
REMARK    1  A    between atoms: C_2  and  C_3
REMARK    2  A    between atoms: N_7  and  C_8
REMARK    3  A    between atoms: C_8  and  C_9
REMARK    4  A    between atoms: C_9  and  C_12
REMARK    5  A    between atoms: C_16  and  C_17
REMARK    6  A    between atoms: C_21  and  C_22
REMARK                            x       y       z     vdW  Elec       q    Type
REMARK                         _______ _______ _______ _____ _____    ______ ____
ROOT
ATOM      1  C   UNL     1      44.992   5.186  12.416  0.00  0.00    +0.000 A 
ATOM      2  C   UNL     1      45.593   6.062  11.503  0.00  0.00    +0.000 A 
ATOM      3  C   UNL     1      46.846   6.604  11.775  0.00  0.00    +0.000 A 
ATOM      4  C   UNL     1      47.505   6.287  12.965  0.00  0.00    +0.000 A 
ATOM      5  C   UNL     1      46.930   5.426  13.916  0.00  0.00    +0.000 A 
ATOM      6  C   UNL     1      45.674   4.868  13.607  0.00  0.00    +0.000 A 
ENDROOT
BRANCH   5   7
ATOM      7  C   UNL     1      47.595   5.154  15.208  0.00  0.00    +0.000 A 
ATOM      8  C   UNL     1      47.233   4.068  16.010  0.00  0.00    +0.000 A 
ATOM      9  N   UNL     1      47.815   3.740  17.190  0.00  0.00    +0.000 NA
ATOM     10  C   UNL     1      48.827   4.526  17.610  0.00  0.00    +0.000 A 
ATOM     11  C   UNL     1      49.284   5.629  16.909  0.00  0.00    +0.000 A 
ATOM     12  C   UNL     1      48.647   5.943  15.697  0.00  0.00    +0.000 A 
BRANCH  11  13
ATOM     13  C   UNL     1      50.425   6.447  17.425  0.00  0.00    +0.000 C 
ATOM     14  F   UNL     1      50.408   7.741  17.003  0.00  0.00    +0.000 F 
ATOM     15  F   UNL     1      50.448   6.500  18.785  0.00  0.00    +0.000 F 
ATOM     16  F   UNL     1      51.635   5.949  17.051  0.00  0.00    +0.000 F 
ENDBRANCH  11  13
ENDBRANCH   5   7
BRANCH   1  17
ATOM     17  C   UNL     1      43.586   4.664  12.170  0.00  0.00    +0.000 C 
ATOM     18  F   UNL     1      42.631   5.569  12.534  0.00  0.00    +0.000 F 
ATOM     19  F   UNL     1      43.316   3.538  12.894  0.00  0.00    +0.000 F 
BRANCH  17  20
ATOM     20  C   UNL     1      43.427   4.342  10.663  0.00  0.00    +0.000 C 
BRANCH  20  25
ATOM     21  C   UNL     1      46.750   2.418   7.251  0.00  0.00    +0.000 A 
ATOM     22  C   UNL     1      46.290   3.713   7.460  0.00  0.00    +0.000 A 
ATOM     23  C   UNL     1      45.357   3.949   8.471  0.00  0.00    +0.000 A 
ATOM     24  C   UNL     1      44.893   2.895   9.255  0.00  0.00    +0.000 A 
ATOM     25  N   UNL     1      43.961   3.051  10.245  0.00  0.00    +0.000 N 
ATOM     26  N   UNL     1      45.340   1.639   9.060  0.00  0.00    +0.000 NA
ATOM     27  C   UNL     1      46.249   1.424   8.073  0.00  0.00    +0.000 A 
ATOM     28  H   UNL     1      43.725   2.207  10.757  0.00  0.00    +0.000 HD
BRANCH  21  30
ATOM     29  N   UNL     1      48.476   1.884   5.398  0.00  0.00    +0.000 NA
ATOM     30  C   UNL     1      47.699   2.120   6.225  0.00  0.00    +0.000 C 
ENDBRANCH  21  30
ENDBRANCH  20  25
ENDBRANCH  17  20
ENDBRANCH   1  17
TORSDOF 6
ENDMDL
MODEL 3
REMARK VINA RESULT:    -8.350      3.376      4.235
REMARK INTER + INTRA:         -12.478
REMARK INTER:                 -11.275
REMARK INTRA:                  -1.203
REMARK UNBOUND:                -1.199
REMARK  Name = 
REMARK  6 active torsions:
REMARK  status: ('A' for Active; 'I' for Inactive)
REMARK    1  A    between atoms: C_2  and  C_3
REMARK    2  A    between atoms: N_7  and  C_8
REMARK    3  A    between atoms: C_8  and  C_9
REMARK    4  A    between atoms: C_9  and  C_12
REMARK    5  A    between atoms: C_16  and  C_17
REMARK    6  A    between atoms: C_21  and  C_22
REMARK                            x       y       z     vdW  Elec       q    Type
REMARK                         _______ _______ _______ _____ _____    ______ ____
ROOT
ATOM      1  C   UNL     1      44.779   5.196  11.991  0.00  0.00    +0.000 A 
ATOM      2  C   UNL     1      43.898   6.183  11.536  0.00  0.00    +0.000 A 
ATOM      3  C   UNL     1      44.326   7.502  11.416  0.00  0.00    +0.000 A 
ATOM      4  C   UNL     1      45.633   7.850  11.763  0.00  0.00    +0.000 A 
ATOM      5  C   UNL     1      46.545   6.892  12.240  0.00  0.00    +0.000 A 
ATOM      6  C   UNL     1      46.098   5.560  12.327  0.00  0.00    +0.000 A 
ENDROOT
BRANCH   5   7
ATOM      7  C   UNL     1      47.904   7.278  12.678  0.00  0.00    +0.000 A 
ATOM      8  C   UNL     1      48.265   7.300  14.028  0.00  0.00    +0.000 A 
ATOM      9  N   UNL     1      49.495   7.615  14.503  0.00  0.00    +0.000 NA
ATOM     10  C   UNL     1      50.441   7.922  13.591  0.00  0.00    +0.000 A 
ATOM     11  C   UNL     1      50.214   7.935  12.226  0.00  0.00    +0.000 A 
ATOM     12  C   UNL     1      48.922   7.614  11.775  0.00  0.00    +0.000 A 
BRANCH  11  13
ATOM     13  C   UNL     1      51.315   8.267  11.269  0.00  0.00    +0.000 C 
ATOM     14  F   UNL     1      52.551   8.284  11.840  0.00  0.00    +0.000 F 
ATOM     15  F   UNL     1      51.392   7.377  10.242  0.00  0.00    +0.000 F 
ATOM     16  F   UNL     1      51.153   9.489  10.692  0.00  0.00    +0.000 F 
ENDBRANCH  11  13
ENDBRANCH   5   7
BRANCH   1  17
ATOM     17  C   UNL     1      44.293   3.773  12.213  0.00  0.00    +0.000 C 
ATOM     18  F   UNL     1      43.422   3.684  13.260  0.00  0.00    +0.000 F 
ATOM     19  F   UNL     1      45.313   2.916  12.514  0.00  0.00    +0.000 F 
BRANCH  17  20
ATOM     20  C   UNL     1      43.586   3.278  10.926  0.00  0.00    +0.000 C 
BRANCH  20  25
ATOM     21  C   UNL     1      46.823   2.275   7.066  0.00  0.00    +0.000 A 
ATOM     22  C   UNL     1      46.256   3.465   7.506  0.00  0.00    +0.000 A 
ATOM     23  C   UNL     1      45.380   3.440   8.594  0.00  0.00    +0.000 A 
ATOM     24  C   UNL     1      45.080   2.233   9.222  0.00  0.00    +0.000 A 
ATOM     25  N   UNL     1      44.212   2.133  10.276  0.00  0.00    +0.000 N 
ATOM     26  N   UNL     1      45.632   1.078   8.803  0.00  0.00    +0.000 NA
ATOM     27  C   UNL     1      46.483   1.118   7.744  0.00  0.00    +0.000 A 
ATOM     28  H   UNL     1      44.098   1.199  10.657  0.00  0.00    +0.000 HD
BRANCH  21  30
ATOM     29  N   UNL     1      48.439   2.222   5.046  0.00  0.00    +0.000 NA
ATOM     30  C   UNL     1      47.719   2.244   5.954  0.00  0.00    +0.000 C 
ENDBRANCH  21  30
ENDBRANCH  20  25
ENDBRANCH  17  20
ENDBRANCH   1  17
TORSDOF 6
ENDMDL
MODEL 4
REMARK VINA RESULT:    -8.023      1.658      2.083
REMARK INTER + INTRA:         -12.036
REMARK INTER:                 -10.953
REMARK INTRA:                  -1.083
REMARK UNBOUND:                -1.199
REMARK  Name = 
REMARK  6 active torsions:
REMARK  status: ('A' for Active; 'I' for Inactive)
REMARK    1  A    between atoms: C_2  and  C_3
REMARK    2  A    between atoms: N_7  and  C_8
REMARK    3  A    between atoms: C_8  and  C_9
REMARK    4  A    between atoms: C_9  and  C_12
REMARK    5  A    between atoms: C_16  and  C_17
REMARK    6  A    between atoms: C_21  and  C_22
REMARK                            x       y       z     vdW  Elec       q    Type
REMARK                         _______ _______ _______ _____ _____    ______ ____
ROOT
ATOM      1  C   UNL     1      44.983   6.389  12.298  0.00  0.00    +0.000 A 
ATOM      2  C   UNL     1      44.619   7.587  11.672  0.00  0.00    +0.000 A 
ATOM      3  C   UNL     1      45.470   8.687  11.718  0.00  0.00    +0.000 A 
ATOM      4  C   UNL     1      46.685   8.607  12.401  0.00  0.00    +0.000 A 
ATOM      5  C   UNL     1      47.081   7.429  13.058  0.00  0.00    +0.000 A 
ATOM      6  C   UNL     1      46.217   6.320  12.974  0.00  0.00    +0.000 A 
ENDROOT
BRANCH   5   7
ATOM      7  C   UNL     1      48.332   7.372  13.844  0.00  0.00    +0.000 A 
ATOM      8  C   UNL     1      49.468   8.099  13.477  0.00  0.00    +0.000 A 
ATOM      9  N   UNL     1      50.638   8.119  14.162  0.00  0.00    +0.000 NA
ATOM     10  C   UNL     1      50.698   7.380  15.288  0.00  0.00    +0.000 A 
ATOM     11  C   UNL     1      49.645   6.617  15.762  0.00  0.00    +0.000 A 
ATOM     12  C   UNL     1      48.453   6.614  15.018  0.00  0.00    +0.000 A 
BRANCH  11  13
ATOM     13  C   UNL     1      49.775   5.834  17.031  0.00  0.00    +0.000 C 
ATOM     14  F   UNL     1      49.326   6.497  18.132  0.00  0.00    +0.000 F 
ATOM     15  F   UNL     1      49.078   4.666  16.990  0.00  0.00    +0.000 F 
ATOM     16  F   UNL     1      51.064   5.491  17.302  0.00  0.00    +0.000 F 
ENDBRANCH  11  13
ENDBRANCH   5   7
BRANCH   1  17
ATOM     17  C   UNL     1      44.020   5.214  12.331  0.00  0.00    +0.000 C 
ATOM     18  F   UNL     1      42.908   5.482  13.077  0.00  0.00    +0.000 F 
ATOM     19  F   UNL     1      44.577   4.101  12.895  0.00  0.00    +0.000 F 
BRANCH  17  20
ATOM     20  C   UNL     1      43.587   4.880  10.882  0.00  0.00    +0.000 C 
BRANCH  20  25
ATOM     21  C   UNL     1      46.670   2.548   7.499  0.00  0.00    +0.000 A 
ATOM     22  C   UNL     1      46.421   3.893   7.744  0.00  0.00    +0.000 A 
ATOM     23  C   UNL     1      45.504   4.247   8.735  0.00  0.00    +0.000 A 
ATOM     24  C   UNL     1      44.846   3.258   9.464  0.00  0.00    +0.000 A 
ATOM     25  N   UNL     1      43.918   3.533  10.432  0.00  0.00    +0.000 N 
ATOM     26  N   UNL     1      45.089   1.953   9.235  0.00  0.00    +0.000 NA
ATOM     27  C   UNL     1      45.985   1.624   8.268  0.00  0.00    +0.000 A 
ATOM     28  H   UNL     1      43.529   2.723  10.903  0.00  0.00    +0.000 HD
BRANCH  21  30
ATOM     29  N   UNL     1      48.342   1.785   5.678  0.00  0.00    +0.000 NA
ATOM     30  C   UNL     1      47.594   2.132   6.492  0.00  0.00    +0.000 C 
ENDBRANCH  21  30
ENDBRANCH  20  25
ENDBRANCH  17  20
ENDBRANCH   1  17
TORSDOF 6
ENDMDL
MODEL 5
REMARK VINA RESULT:    -7.540      3.781      7.938
REMARK INTER + INTRA:         -11.384
REMARK INTER:                 -10.096
REMARK INTRA:                  -1.287
REMARK UNBOUND:                -1.199
REMARK  Name = 
REMARK  6 active torsions:
REMARK  status: ('A' for Active; 'I' for Inactive)
REMARK    1  A    between atoms: C_2  and  C_3
REMARK    2  A    between atoms: N_7  and  C_8
REMARK    3  A    between atoms: C_8  and  C_9
REMARK    4  A    between atoms: C_9  and  C_12
REMARK    5  A    between atoms: C_16  and  C_17
REMARK    6  A    between atoms: C_21  and  C_22
REMARK                            x       y       z     vdW  Elec       q    Type
REMARK                         _______ _______ _______ _____ _____    ______ ____
ROOT
ATOM      1  C   UNL     1      47.009   8.961  12.132  0.00  0.00    +0.000 A 
ATOM      2  C   UNL     1      46.046   9.977  12.098  0.00  0.00    +0.000 A 
ATOM      3  C   UNL     1      44.737   9.688  11.726  0.00  0.00    +0.000 A 
ATOM      4  C   UNL     1      44.379   8.386  11.371  0.00  0.00    +0.000 A 
ATOM      5  C   UNL     1      45.319   7.340  11.375  0.00  0.00    +0.000 A 
ATOM      6  C   UNL     1      46.630   7.651  11.781  0.00  0.00    +0.000 A 
ENDROOT
BRANCH   5   7
ATOM      7  C   UNL     1      44.955   5.979  10.925  0.00  0.00    +0.000 A 
ATOM      8  C   UNL     1      43.985   5.219  11.584  0.00  0.00    +0.000 A 
ATOM      9  N   UNL     1      43.579   3.979  11.214  0.00  0.00    +0.000 NA
ATOM     10  C   UNL     1      44.159   3.449  10.118  0.00  0.00    +0.000 A 
ATOM     11  C   UNL     1      45.130   4.098   9.375  0.00  0.00    +0.000 A 
ATOM     12  C   UNL     1      45.532   5.376   9.797  0.00  0.00    +0.000 A 
BRANCH  11  13
ATOM     13  C   UNL     1      45.719   3.458   8.157  0.00  0.00    +0.000 C 
ATOM     14  F   UNL     1      46.235   2.219   8.384  0.00  0.00    +0.000 F 
ATOM     15  F   UNL     1      44.803   3.303   7.162  0.00  0.00    +0.000 F 
ATOM     16  F   UNL     1      46.731   4.191   7.620  0.00  0.00    +0.000 F 
ENDBRANCH  11  13
ENDBRANCH   5   7
BRANCH   1  17
ATOM     17  C   UNL     1      48.460   9.287  12.447  0.00  0.00    +0.000 C 
ATOM     18  F   UNL     1      48.585  10.026  13.588  0.00  0.00    +0.000 F 
ATOM     19  F   UNL     1      49.051  10.030  11.465  0.00  0.00    +0.000 F 
BRANCH  17  20
ATOM     20  C   UNL     1      49.245   7.962  12.616  0.00  0.00    +0.000 C 
BRANCH  20  25
ATOM     21  C   UNL     1      47.723   4.595  16.185  0.00  0.00    +0.000 A 
ATOM     22  C   UNL     1      47.246   4.862  14.907  0.00  0.00    +0.000 A 
ATOM     23  C   UNL     1      47.855   5.863  14.148  0.00  0.00    +0.000 A 
ATOM     24  C   UNL     1      48.925   6.585  14.673  0.00  0.00    +0.000 A 
ATOM     25  N   UNL     1      49.552   7.595  13.994  0.00  0.00    +0.000 N 
ATOM     26  N   UNL     1      49.395   6.326  15.908  0.00  0.00    +0.000 NA
ATOM     27  C   UNL     1      48.793   5.348  16.635  0.00  0.00    +0.000 A 
ATOM     28  H   UNL     1      50.332   8.027  14.480  0.00  0.00    +0.000 HD
BRANCH  21  30
ATOM     29  N   UNL     1      46.658   2.771  17.680  0.00  0.00    +0.000 NA
ATOM     30  C   UNL     1      47.132   3.586  17.006  0.00  0.00    +0.000 C 
ENDBRANCH  21  30
ENDBRANCH  20  25
ENDBRANCH  17  20
ENDBRANCH   1  17
TORSDOF 6
ENDMDL
MODEL 6
REMARK VINA RESULT:    -7.350      3.948      8.376
REMARK INTER + INTRA:         -11.128
REMARK INTER:                  -9.802
REMARK INTRA:                  -1.325
REMARK UNBOUND:                -1.199
REMARK  Name = 
REMARK  6 active torsions:
REMARK  status: ('A' for Active; 'I' for Inactive)
REMARK    1  A    between atoms: C_2  and  C_3
REMARK    2  A    between atoms: N_7  and  C_8
REMARK    3  A    between atoms: C_8  and  C_9
REMARK    4  A    between atoms: C_9  and  C_12
REMARK    5  A    between atoms: C_16  and  C_17
REMARK    6  A    between atoms: C_21  and  C_22
REMARK                            x       y       z     vdW  Elec       q    Type
REMARK                         _______ _______ _______ _____ _____    ______ ____
ROOT
ATOM      1  C   UNL     1      47.832   8.136  12.163  0.00  0.00    +0.000 A 
ATOM      2  C   UNL     1      47.025   9.188  12.613  0.00  0.00    +0.000 A 
ATOM      3  C   UNL     1      45.672   8.976  12.858  0.00  0.00    +0.000 A 
ATOM      4  C   UNL     1      45.108   7.716  12.645  0.00  0.00    +0.000 A 
ATOM      5  C   UNL     1      45.879   6.637  12.177  0.00  0.00    +0.000 A 
ATOM      6  C   UNL     1      47.251   6.868  11.963  0.00  0.00    +0.000 A 
ENDROOT
BRANCH   5   7
ATOM      7  C   UNL     1      45.263   5.326  11.879  0.00  0.00    +0.000 A 
ATOM      8  C   UNL     1      44.514   4.630  12.831  0.00  0.00    +0.000 A 
ATOM      9  N   UNL     1      43.897   3.440  12.623  0.00  0.00    +0.000 NA
ATOM     10  C   UNL     1      44.018   2.898  11.394  0.00  0.00    +0.000 A 
ATOM     11  C   UNL     1      44.730   3.486  10.363  0.00  0.00    +0.000 A 
ATOM     12  C   UNL     1      45.364   4.712  10.622  0.00  0.00    +0.000 A 
BRANCH  11  13
ATOM     13  C   UNL     1      44.807   2.837   9.017  0.00  0.00    +0.000 C 
ATOM     14  F   UNL     1      44.228   3.565   8.023  0.00  0.00    +0.000 F 
ATOM     15  F   UNL     1      46.091   2.621   8.621  0.00  0.00    +0.000 F 
ATOM     16  F   UNL     1      44.200   1.619   8.990  0.00  0.00    +0.000 F 
ENDBRANCH  11  13
ENDBRANCH   5   7
BRANCH   1  17
ATOM     17  C   UNL     1      49.288   8.382  11.805  0.00  0.00    +0.000 C 
ATOM     18  F   UNL     1      49.451   9.517  11.064  0.00  0.00    +0.000 F 
ATOM     19  F   UNL     1      49.814   7.374  11.047  0.00  0.00    +0.000 F 
BRANCH  17  20
ATOM     20  C   UNL     1      50.112   8.510  13.111  0.00  0.00    +0.000 C 
BRANCH  20  25
ATOM     21  C   UNL     1      48.464   6.951  17.719  0.00  0.00    +0.000 A 
ATOM     22  C   UNL     1      48.419   8.192  17.097  0.00  0.00    +0.000 A 
ATOM     23  C   UNL     1      48.968   8.334  15.821  0.00  0.00    +0.000 A 
ATOM     24  C   UNL     1      49.556   7.242  15.187  0.00  0.00    +0.000 A 
ATOM     25  N   UNL     1      50.134   7.316  13.948  0.00  0.00    +0.000 N 
ATOM     26  N   UNL     1      49.596   6.035  15.783  0.00  0.00    +0.000 NA
ATOM     27  C   UNL     1      49.057   5.911  17.025  0.00  0.00    +0.000 A 
ATOM     28  H   UNL     1      50.507   6.443  13.590  0.00  0.00    +0.000 HD
BRANCH  21  30
ATOM     29  N   UNL     1      47.493   6.587  20.090  0.00  0.00    +0.000 NA
ATOM     30  C   UNL     1      47.923   6.752  19.027  0.00  0.00    +0.000 C 
ENDBRANCH  21  30
ENDBRANCH  20  25
ENDBRANCH  17  20
ENDBRANCH   1  17
TORSDOF 6
ENDMDL
MODEL 7
REMARK VINA RESULT:    -6.980      2.852      3.451
REMARK INTER + INTRA:         -10.627
REMARK INTER:                  -9.925
REMARK INTRA:                  -0.702
REMARK UNBOUND:                -1.199
REMARK  Name = 
REMARK  6 active torsions:
REMARK  status: ('A' for Active; 'I' for Inactive)
REMARK    1  A    between atoms: C_2  and  C_3
REMARK    2  A    between atoms: N_7  and  C_8
REMARK    3  A    between atoms: C_8  and  C_9
REMARK    4  A    between atoms: C_9  and  C_12
REMARK    5  A    between atoms: C_16  and  C_17
REMARK    6  A    between atoms: C_21  and  C_22
REMARK                            x       y       z     vdW  Elec       q    Type
REMARK                         _______ _______ _______ _____ _____    ______ ____
ROOT
ATOM      1  C   UNL     1      43.798   6.719  11.749  0.00  0.00    +0.000 A 
ATOM      2  C   UNL     1      43.213   7.833  11.136  0.00  0.00    +0.000 A 
ATOM      3  C   UNL     1      43.919   9.028  11.037  0.00  0.00    +0.000 A 
ATOM      4  C   UNL     1      45.209   9.127  11.562  0.00  0.00    +0.000 A 
ATOM      5  C   UNL     1      45.827   8.038  12.201  0.00  0.00    +0.000 A 
ATOM      6  C   UNL     1      45.104   6.831  12.264  0.00  0.00    +0.000 A 
ENDROOT
BRANCH   5   7
ATOM      7  C   UNL     1      47.162   8.169  12.823  0.00  0.00    +0.000 A 
ATOM      8  C   UNL     1      48.330   8.223  12.057  0.00  0.00    +0.000 A 
ATOM      9  N   UNL     1      49.583   8.370  12.553  0.00  0.00    +0.000 NA
ATOM     10  C   UNL     1      49.700   8.478  13.893  0.00  0.00    +0.000 A 
ATOM     11  C   UNL     1      48.623   8.442  14.762  0.00  0.00    +0.000 A 
ATOM     12  C   UNL     1      47.342   8.276  14.210  0.00  0.00    +0.000 A 
BRANCH  11  13
ATOM     13  C   UNL     1      48.824   8.587  16.238  0.00  0.00    +0.000 C 
ATOM     14  F   UNL     1      47.824   9.266  16.863  0.00  0.00    +0.000 F 
ATOM     15  F   UNL     1      48.907   7.383  16.868  0.00  0.00    +0.000 F 
ATOM     16  F   UNL     1      49.974   9.248  16.545  0.00  0.00    +0.000 F 
ENDBRANCH  11  13
ENDBRANCH   5   7
BRANCH   1  17
ATOM     17  C   UNL     1      43.000   5.440  11.943  0.00  0.00    +0.000 C 
ATOM     18  F   UNL     1      41.654   5.656  11.861  0.00  0.00    +0.000 F 
ATOM     19  F   UNL     1      43.204   4.881  13.173  0.00  0.00    +0.000 F 
BRANCH  17  20
ATOM     20  C   UNL     1      43.414   4.420  10.853  0.00  0.00    +0.000 C 
BRANCH  20  25
ATOM     21  C   UNL     1      46.768   2.681   7.373  0.00  0.00    +0.000 A 
ATOM     22  C   UNL     1      46.031   2.024   8.350  0.00  0.00    +0.000 A 
ATOM     23  C   UNL     1      45.191   2.765   9.183  0.00  0.00    +0.000 A 
ATOM     24  C   UNL     1      45.101   4.147   9.035  0.00  0.00    +0.000 A 
ATOM     25  N   UNL     1      44.318   4.937   9.832  0.00  0.00    +0.000 N 
ATOM     26  N   UNL     1      45.810   4.789   8.086  0.00  0.00    +0.000 NA
ATOM     27  C   UNL     1      46.622   4.054   7.281  0.00  0.00    +0.000 A 
ATOM     28  H   UNL     1      44.325   5.927   9.605  0.00  0.00    +0.000 HD
BRANCH  21  30
ATOM     29  N   UNL     1      48.355   1.387   5.791  0.00  0.00    +0.000 NA
ATOM     30  C   UNL     1      47.648   1.971   6.499  0.00  0.00    +0.000 C 
ENDBRANCH  21  30
ENDBRANCH  20  25
ENDBRANCH  17  20
ENDBRANCH   1  17
TORSDOF 6
ENDMDL
MODEL 8
REMARK VINA RESULT:    -6.597      3.401      4.816
REMARK INTER + INTRA:         -10.110
REMARK INTER:                  -8.796
REMARK INTRA:                  -1.314
REMARK UNBOUND:                -1.199
REMARK  Name = 
REMARK  6 active torsions:
REMARK  status: ('A' for Active; 'I' for Inactive)
REMARK    1  A    between atoms: C_2  and  C_3
REMARK    2  A    between atoms: N_7  and  C_8
REMARK    3  A    between atoms: C_8  and  C_9
REMARK    4  A    between atoms: C_9  and  C_12
REMARK    5  A    between atoms: C_16  and  C_17
REMARK    6  A    between atoms: C_21  and  C_22
REMARK                            x       y       z     vdW  Elec       q    Type
REMARK                         _______ _______ _______ _____ _____    ______ ____
ROOT
ATOM      1  C   UNL     1      48.210   8.895  13.723  0.00  0.00    +0.000 A 
ATOM      2  C   UNL     1      48.975  10.023  14.044  0.00  0.00    +0.000 A 
ATOM      3  C   UNL     1      49.746  10.038  15.203  0.00  0.00    +0.000 A 
ATOM      4  C   UNL     1      49.751   8.934  16.058  0.00  0.00    +0.000 A 
ATOM      5  C   UNL     1      48.984   7.788  15.781  0.00  0.00    +0.000 A 
ATOM      6  C   UNL     1      48.234   7.785  14.590  0.00  0.00    +0.000 A 
ENDROOT
BRANCH   5   7
ATOM      7  C   UNL     1      48.932   6.653  16.727  0.00  0.00    +0.000 A 
ATOM      8  C   UNL     1      49.247   6.805  18.080  0.00  0.00    +0.000 A 
ATOM      9  N   UNL     1      49.195   5.819  19.010  0.00  0.00    +0.000 NA
ATOM     10  C   UNL     1      48.800   4.601  18.586  0.00  0.00    +0.000 A 
ATOM     11  C   UNL     1      48.459   4.319  17.275  0.00  0.00    +0.000 A 
ATOM     12  C   UNL     1      48.537   5.364  16.339  0.00  0.00    +0.000 A 
BRANCH  11  13
ATOM     13  C   UNL     1      48.011   2.948  16.878  0.00  0.00    +0.000 C 
ATOM     14  F   UNL     1      49.006   2.019  16.897  0.00  0.00    +0.000 F 
ATOM     15  F   UNL     1      47.036   2.466  17.697  0.00  0.00    +0.000 F 
ATOM     16  F   UNL     1      47.492   2.913  15.620  0.00  0.00    +0.000 F 
ENDBRANCH  11  13
ENDBRANCH   5   7
BRANCH   1  17
ATOM     17  C   UNL     1      47.295   8.906  12.510  0.00  0.00    +0.000 C 
ATOM     18  F   UNL     1      47.568   7.882  11.649  0.00  0.00    +0.000 F 
ATOM     19  F   UNL     1      47.426  10.048  11.770  0.00  0.00    +0.000 F 
BRANCH  17  20
ATOM     20  C   UNL     1      45.826   8.785  12.988  0.00  0.00    +0.000 C 
BRANCH  20  25
ATOM     21  C   UNL     1      43.747   4.216  11.897  0.00  0.00    +0.000 A 
ATOM     22  C   UNL     1      44.697   4.595  12.837  0.00  0.00    +0.000 A 
ATOM     23  C   UNL     1      45.096   5.931  12.903  0.00  0.00    +0.000 A 
ATOM     24  C   UNL     1      44.546   6.868  12.031  0.00  0.00    +0.000 A 
ATOM     25  N   UNL     1      44.909   8.189  12.025  0.00  0.00    +0.000 N 
ATOM     26  N   UNL     1      43.620   6.508  11.122  0.00  0.00    +0.000 NA
ATOM     27  C   UNL     1      43.241   5.204  11.070  0.00  0.00    +0.000 A 
ATOM     28  H   UNL     1      44.416   8.771  11.355  0.00  0.00    +0.000 HD
BRANCH  21  30
ATOM     29  N   UNL     1      42.945   1.765  11.691  0.00  0.00    +0.000 NA
ATOM     30  C   UNL     1      43.309   2.861  11.782  0.00  0.00    +0.000 C 
ENDBRANCH  21  30
ENDBRANCH  20  25
ENDBRANCH  17  20
ENDBRANCH   1  17
TORSDOF 6
ENDMDL
MODEL 9
REMARK VINA RESULT:    -6.486      4.214      7.440
REMARK INTER + INTRA:          -9.961
REMARK INTER:                  -8.962
REMARK INTRA:                  -0.998
REMARK UNBOUND:                -1.199
REMARK  Name = 
REMARK  6 active torsions:
REMARK  status: ('A' for Active; 'I' for Inactive)
REMARK    1  A    between atoms: C_2  and  C_3
REMARK    2  A    between atoms: N_7  and  C_8
REMARK    3  A    between atoms: C_8  and  C_9
REMARK    4  A    between atoms: C_9  and  C_12
REMARK    5  A    between atoms: C_16  and  C_17
REMARK    6  A    between atoms: C_21  and  C_22
REMARK                            x       y       z     vdW  Elec       q    Type
REMARK                         _______ _______ _______ _____ _____    ______ ____
ROOT
ATOM      1  C   UNL     1      47.217   7.952  13.171  0.00  0.00    +0.000 A 
ATOM      2  C   UNL     1      46.585   9.073  12.619  0.00  0.00    +0.000 A 
ATOM      3  C   UNL     1      45.401   8.926  11.903  0.00  0.00    +0.000 A 
ATOM      4  C   UNL     1      44.844   7.658  11.719  0.00  0.00    +0.000 A 
ATOM      5  C   UNL     1      45.456   6.505  12.242  0.00  0.00    +0.000 A 
ATOM      6  C   UNL     1      46.638   6.681  12.986  0.00  0.00    +0.000 A 
ENDROOT
BRANCH   5   7
ATOM      7  C   UNL     1      44.905   5.158  11.980  0.00  0.00    +0.000 A 
ATOM      8  C   UNL     1      44.107   4.493  12.915  0.00  0.00    +0.000 A 
ATOM      9  N   UNL     1      43.546   3.272  12.736  0.00  0.00    +0.000 NA
ATOM     10  C   UNL     1      43.776   2.663  11.554  0.00  0.00    +0.000 A 
ATOM     11  C   UNL     1      44.545   3.214  10.544  0.00  0.00    +0.000 A 
ATOM     12  C   UNL     1      45.120   4.475  10.774  0.00  0.00    +0.000 A 
BRANCH  11  13
ATOM     13  C   UNL     1      44.744   2.490   9.250  0.00  0.00    +0.000 C 
ATOM     14  F   UNL     1      44.277   3.167   8.165  0.00  0.00    +0.000 F 
ATOM     15  F   UNL     1      46.057   2.239   8.995  0.00  0.00    +0.000 F 
ATOM     16  F   UNL     1      44.122   1.279   9.230  0.00  0.00    +0.000 F 
ENDBRANCH  11  13
ENDBRANCH   5   7
BRANCH   1  17
ATOM     17  C   UNL     1      48.558   8.093  13.874  0.00  0.00    +0.000 C 
ATOM     18  F   UNL     1      49.273   6.931  13.856  0.00  0.00    +0.000 F 
ATOM     19  F   UNL     1      48.420   8.416  15.194  0.00  0.00    +0.000 F 
BRANCH  17  20
ATOM     20  C   UNL     1      49.379   9.201  13.169  0.00  0.00    +0.000 C 
BRANCH  20  25
ATOM     21  C   UNL     1      53.162   7.239  10.301  0.00  0.00    +0.000 A 
ATOM     22  C   UNL     1      51.784   7.248  10.126  0.00  0.00    +0.000 A 
ATOM     23  C   UNL     1      50.979   7.854  11.092  0.00  0.00    +0.000 A 
ATOM     24  C   UNL     1      51.556   8.437  12.219  0.00  0.00    +0.000 A 
ATOM     25  N   UNL     1      50.826   9.025  13.216  0.00  0.00    +0.000 N 
ATOM     26  N   UNL     1      52.892   8.436  12.390  0.00  0.00    +0.000 NA
ATOM     27  C   UNL     1      53.664   7.843  11.440  0.00  0.00    +0.000 A 
ATOM     28  H   UNL     1      51.370   9.431  13.971  0.00  0.00    +0.000 HD
BRANCH  21  30
ATOM     29  N   UNL     1      54.730   6.122   8.572  0.00  0.00    +0.000 NA
ATOM     30  C   UNL     1      54.031   6.627   9.346  0.00  0.00    +0.000 C 
ENDBRANCH  21  30
ENDBRANCH  20  25
ENDBRANCH  17  20
ENDBRANCH   1  17
TORSDOF 6
ENDMDL
