MODEL 1
REMARK VINA RESULT:    -7.513      0.000      0.000
REMARK INTER + INTRA:         -11.243
REMARK INTER:                 -10.148
REMARK INTRA:                  -1.095
REMARK UNBOUND:                -1.095
REMARK  Name = 
REMARK  6 active torsions:
REMARK  status: ('A' for Active; 'I' for Inactive)
REMARK    1  A    between atoms: C_2  and  C_21
REMARK    2  A    between atoms: N_3  and  C_4
REMARK    3  A    between atoms: C_4  and  C_5
REMARK    4  A    between atoms: C_8  and  C_9
REMARK    5  A    between atoms: C_9  and  C_10
REMARK    6  A    between atoms: C_10  and  C_11
REMARK                            x       y       z     vdW  Elec       q    Type
REMARK                         _______ _______ _______ _____ _____    ______ ____
ROOT
ATOM      1  C   UNL     1      48.566   7.107  14.119  0.00  0.00    +0.000 C 
ENDROOT
BRANCH   1   2
ATOM      2  C   UNL     1      47.243   6.567  13.638  0.00  0.00    +0.000 A 
ATOM      3  C   UNL     1      46.865   5.261  13.962  0.00  0.00    +0.000 A 
ATOM      4  C   UNL     1      45.636   4.740  13.541  0.00  0.00    +0.000 A 
ATOM      5  C   UNL     1      44.756   5.516  12.775  0.00  0.00    +0.000 A 
ATOM      6  C   UNL     1      45.146   6.820  12.435  0.00  0.00    +0.000 A 
ATOM      7  C   UNL     1      46.377   7.340  12.855  0.00  0.00    +0.000 A 
BRANCH   5   8
ATOM      8  C   UNL     1      43.443   4.961  12.263  0.00  0.00    +0.000 C 
BRANCH   8   9
ATOM      9  C   UNL     1      43.453   4.622  10.773  0.00  0.00    +0.000 C 
BRANCH   9  10
ATOM     10  C   UNL     1      43.978   3.222  10.487  0.00  0.00    +0.000 C 
ATOM     11  O   UNL     1      44.005   2.351  11.356  0.00  0.00    +0.000 OA
ATOM     12  N   UNL     1      44.363   2.975   9.171  0.00  0.00    +0.000 N 
ATOM     13  C   UNL     1      44.690   1.611   8.764  0.00  0.00    +0.000 C 
ATOM     14  C   UNL     1      46.166   1.497   8.399  0.00  0.00    +0.000 C 
ATOM     15  C   UNL     1      46.549   2.540   7.347  0.00  0.00    +0.000 C 
ATOM     16  C   UNL     1      46.142   3.947   7.789  0.00  0.00    +0.000 C 
ATOM     17  C   UNL     1      44.666   4.007   8.179  0.00  0.00    +0.000 C 
ENDBRANCH   9  10
ENDBRANCH   8   9
ENDBRANCH   5   8
ENDBRANCH   1   2
BRANCH   1  20
ATOM     18  O   UNL     1      50.462   6.079  15.928  0.00  0.00    +0.000 OA
ATOM     19  C   UNL     1      49.580   6.826  16.340  0.00  0.00    +0.000 C 
ATOM     20  N   UNL     1      48.587   7.329  15.535  0.00  0.00    +0.000 N 
ATOM     21  H   UNL     1      48.038   8.116  15.863  0.00  0.00    +0.000 HD
BRANCH  19  22
ATOM     22  C   UNL     1      49.495   7.203  17.751  0.00  0.00    +0.000 A 
ATOM     23  C   UNL     1      50.322   8.176  18.297  0.00  0.00    +0.000 A 
ATOM     24  S   UNL     1      50.031   8.441  19.962  0.00  0.00    +0.000 S 
ATOM     25  C   UNL     1      48.780   7.283  19.987  0.00  0.00    +0.000 A 
ATOM     26  N   UNL     1      48.080   7.015  21.121  0.00  0.00    +0.000 NA
ATOM     27  C   UNL     1      47.148   6.130  20.979  0.00  0.00    +0.000 A 
ATOM     28  N   UNL     1      46.852   5.488  19.803  0.00  0.00    +0.000 N 
ATOM     29  C   UNL     1      47.561   5.676  18.661  0.00  0.00    +0.000 A 
ATOM     30  O   UNL     1      47.342   4.985  17.666  0.00  0.00    +0.000 OA
ATOM     31  C   UNL     1      48.603   6.690  18.753  0.00  0.00    +0.000 A 
ATOM     32  H   UNL     1      46.131   4.781  19.757  0.00  0.00    +0.000 HD
ENDBRANCH  19  22
ENDBRANCH   1  20
TORSDOF 6
ENDMDL
MODEL 2
REMARK VINA RESULT:    -7.415      1.691      2.297
REMARK INTER + INTRA:         -11.111
REMARK INTER:                 -10.391
REMARK INTRA:                  -0.720
REMARK UNBOUND:                -1.095
REMARK  Name = 
REMARK  6 active torsions:
REMARK  status: ('A' for Active; 'I' for Inactive)
REMARK    1  A    between atoms: C_2  and  C_21
REMARK    2  A    between atoms: N_3  and  C_4
REMARK    3  A    between atoms: C_4  and  C_5
REMARK    4  A    between atoms: C_8  and  C_9
REMARK    5  A    between atoms: C_9  and  C_10
REMARK    6  A    between atoms: C_10  and  C_11
REMARK                            x       y       z     vdW  Elec       q    Type
REMARK                         _______ _______ _______ _____ _____    ______ ____
ROOT
ATOM      1  C   UNL     1      48.017   6.669  13.561  0.00  0.00    +0.000 C 
ENDROOT
BRANCH   1   2
ATOM      2  C   UNL     1      46.935   5.865  12.885  0.00  0.00    +0.000 A 
ATOM      3  C   UNL     1      46.413   6.292  11.660  0.00  0.00    +0.000 A 
ATOM      4  C   UNL     1      45.420   5.556  11.005  0.00  0.00    +0.000 A 
ATOM      5  C   UNL     1      44.917   4.375  11.566  0.00  0.00    +0.000 A 
ATOM      6  C   UNL     1      45.429   3.958  12.804  0.00  0.00    +0.000 A 
ATOM      7  C   UNL     1      46.422   4.696  13.461  0.00  0.00    +0.000 A 
BRANCH   5   8
ATOM      8  C   UNL     1      43.806   3.587  10.903  0.00  0.00    +0.000 C 
BRANCH   8   9
ATOM      9  C   UNL     1      44.289   2.645   9.800  0.00  0.00    +0.000 C 
BRANCH   9  10
ATOM     10  C   UNL     1      44.795   3.384   8.570  0.00  0.00    +0.000 C 
ATOM     11  O   UNL     1      44.171   4.323   8.076  0.00  0.00    +0.000 OA
ATOM     12  N   UNL     1      46.032   2.971   8.080  0.00  0.00    +0.000 N 
ATOM     13  C   UNL     1      46.684   3.750   7.030  0.00  0.00    +0.000 C 
ATOM     14  C   UNL     1      46.775   2.943   5.740  0.00  0.00    +0.000 C 
ATOM     15  C   UNL     1      47.453   1.594   5.987  0.00  0.00    +0.000 C 
ATOM     16  C   UNL     1      46.773   0.835   7.128  0.00  0.00    +0.000 C 
ATOM     17  C   UNL     1      46.672   1.691   8.389  0.00  0.00    +0.000 C 
ENDBRANCH   9  10
ENDBRANCH   8   9
ENDBRANCH   5   8
ENDBRANCH   1   2
BRANCH   1  20
ATOM     18  O   UNL     1      50.156   6.634  15.390  0.00  0.00    +0.000 OA
ATOM     19  C   UNL     1      49.004   6.683  15.811  0.00  0.00    +0.000 C 
ATOM     20  N   UNL     1      47.904   6.653  14.989  0.00  0.00    +0.000 N 
ATOM     21  H   UNL     1      47.003   6.935  15.361  0.00  0.00    +0.000 HD
BRANCH  19  22
ATOM     22  C   UNL     1      48.717   6.734  17.244  0.00  0.00    +0.000 A 
ATOM     23  C   UNL     1      48.322   7.910  17.868  0.00  0.00    +0.000 A 
ATOM     24  S   UNL     1      48.042   7.714  19.545  0.00  0.00    +0.000 S 
ATOM     25  C   UNL     1      48.416   6.052  19.472  0.00  0.00    +0.000 A 
ATOM     26  N   UNL     1      48.361   5.260  20.575  0.00  0.00    +0.000 NA
ATOM     27  C   UNL     1      48.649   4.018  20.360  0.00  0.00    +0.000 A 
ATOM     28  N   UNL     1      48.989   3.496  19.138  0.00  0.00    +0.000 N 
ATOM     29  C   UNL     1      49.117   4.256  18.019  0.00  0.00    +0.000 A 
ATOM     30  O   UNL     1      49.547   3.767  16.976  0.00  0.00    +0.000 OA
ATOM     31  C   UNL     1      48.769   5.660  18.196  0.00  0.00    +0.000 A 
ATOM     32  H   UNL     1      49.234   2.521  19.033  0.00  0.00    +0.000 HD
ENDBRANCH  19  22
ENDBRANCH   1  20
TORSDOF 6
ENDMDL
MODEL 3
REMARK VINA RESULT:    -7.324      3.929      4.630
REMARK INTER + INTRA:         -10.988
REMARK INTER:                  -9.997
REMARK INTRA:                  -0.991
REMARK UNBOUND:                -1.095
REMARK  Name = 
REMARK  6 active torsions:
REMARK  status: ('A' for Active; 'I' for Inactive)
REMARK    1  A    between atoms: C_2  and  C_21
REMARK    2  A    between atoms: N_3  and  C_4
REMARK    3  A    between atoms: C_4  and  C_5
REMARK    4  A    between atoms: C_8  and  C_9
REMARK    5  A    between atoms: C_9  and  C_10
REMARK    6  A    between atoms: C_10  and  C_11
REMARK                            x       y       z     vdW  Elec       q    Type
REMARK                         _______ _______ _______ _____ _____    ______ ____
ROOT
ATOM      1  C   UNL     1      48.799   5.327  18.519  0.00  0.00    +0.000 C 
ENDROOT
BRANCH   1   2
ATOM      2  C   UNL     1      48.341   5.358  17.083  0.00  0.00    +0.000 A 
ATOM      3  C   UNL     1      48.722   6.419  16.255  0.00  0.00    +0.000 A 
ATOM      4  C   UNL     1      48.325   6.466  14.915  0.00  0.00    +0.000 A 
ATOM      5  C   UNL     1      47.526   5.451  14.370  0.00  0.00    +0.000 A 
ATOM      6  C   UNL     1      47.130   4.397  15.207  0.00  0.00    +0.000 A 
ATOM      7  C   UNL     1      47.526   4.353  16.550  0.00  0.00    +0.000 A 
BRANCH   5   8
ATOM      8  C   UNL     1      47.039   5.502  12.936  0.00  0.00    +0.000 C 
BRANCH   8   9
ATOM      9  C   UNL     1      45.534   5.283  12.786  0.00  0.00    +0.000 C 
BRANCH   9  10
ATOM     10  C   UNL     1      45.190   3.937  12.165  0.00  0.00    +0.000 C 
ATOM     11  O   UNL     1      45.279   2.888  12.804  0.00  0.00    +0.000 OA
ATOM     12  N   UNL     1      44.714   3.974  10.857  0.00  0.00    +0.000 N 
ATOM     13  C   UNL     1      44.176   2.758  10.254  0.00  0.00    +0.000 C 
ATOM     14  C   UNL     1      45.054   2.297   9.097  0.00  0.00    +0.000 C 
ATOM     15  C   UNL     1      45.256   3.424   8.083  0.00  0.00    +0.000 C 
ATOM     16  C   UNL     1      45.770   4.694   8.763  0.00  0.00    +0.000 C 
ATOM     17  C   UNL     1      44.881   5.101   9.937  0.00  0.00    +0.000 C 
ENDBRANCH   9  10
ENDBRANCH   8   9
ENDBRANCH   5   8
ENDBRANCH   1   2
BRANCH   1  20
ATOM     18  O   UNL     1      51.474   6.146  18.207  0.00  0.00    +0.000 OA
ATOM     19  C   UNL     1      51.234   5.002  18.581  0.00  0.00    +0.000 C 
ATOM     20  N   UNL     1      49.959   4.507  18.710  0.00  0.00    +0.000 N 
ATOM     21  H   UNL     1      49.812   3.656  19.241  0.00  0.00    +0.000 HD
BRANCH  19  22
ATOM     22  C   UNL     1      52.308   4.055  18.878  0.00  0.00    +0.000 A 
ATOM     23  C   UNL     1      53.349   4.379  19.738  0.00  0.00    +0.000 A 
ATOM     24  S   UNL     1      54.478   3.107  19.927  0.00  0.00    +0.000 S 
ATOM     25  C   UNL     1      53.592   2.088  18.886  0.00  0.00    +0.000 A 
ATOM     26  N   UNL     1      54.000   0.821  18.613  0.00  0.00    +0.000 NA
ATOM     27  C   UNL     1      53.214   0.162  17.825  0.00  0.00    +0.000 A 
ATOM     28  N   UNL     1      52.055   0.658  17.284  0.00  0.00    +0.000 N 
ATOM     29  C   UNL     1      51.638   1.937  17.477  0.00  0.00    +0.000 A 
ATOM     30  O   UNL     1      50.662   2.375  16.870  0.00  0.00    +0.000 OA
ATOM     31  C   UNL     1      52.468   2.715  18.387  0.00  0.00    +0.000 A 
ATOM     32  H   UNL     1      51.494   0.108  16.649  0.00  0.00    +0.000 HD
ENDBRANCH  19  22
ENDBRANCH   1  20
TORSDOF 6
ENDMDL
MODEL 4
REMARK VINA RESULT:    -7.306      3.129      8.956
REMARK INTER + INTRA:         -10.963
REMARK INTER:                  -9.416
REMARK INTRA:                  -1.548
REMARK UNBOUND:                -1.095
REMARK  Name = 
REMARK  6 active torsions:
REMARK  status: ('A' for Active; 'I' for Inactive)
REMARK    1  A    between atoms: C_2  and  C_21
REMARK    2  A    between atoms: N_3  and  C_4
REMARK    3  A    between atoms: C_4  and  C_5
REMARK    4  A    between atoms: C_8  and  C_9
REMARK    5  A    between atoms: C_9  and  C_10
REMARK    6  A    between atoms: C_10  and  C_11
REMARK                            x       y       z     vdW  Elec       q    Type
REMARK                         _______ _______ _______ _____ _____    ______ ____
ROOT
ATOM      1  C   UNL     1      47.454   7.773  12.012  0.00  0.00    +0.000 C 
ENDROOT
BRANCH   1   2
ATOM      2  C   UNL     1      48.097   7.891  13.370  0.00  0.00    +0.000 A 
ATOM      3  C   UNL     1      47.669   8.884  14.258  0.00  0.00    +0.000 A 
ATOM      4  C   UNL     1      48.238   9.006  15.530  0.00  0.00    +0.000 A 
ATOM      5  C   UNL     1      49.259   8.139  15.943  0.00  0.00    +0.000 A 
ATOM      6  C   UNL     1      49.699   7.156  15.044  0.00  0.00    +0.000 A 
ATOM      7  C   UNL     1      49.131   7.036  13.770  0.00  0.00    +0.000 A 
BRANCH   5   8
ATOM      8  C   UNL     1      49.928   8.281  17.296  0.00  0.00    +0.000 C 
BRANCH   8   9
ATOM      9  C   UNL     1      49.278   7.445  18.398  0.00  0.00    +0.000 C 
BRANCH   9  10
ATOM     10  C   UNL     1      49.829   6.028  18.468  0.00  0.00    +0.000 C 
ATOM     11  O   UNL     1      51.009   5.805  18.737  0.00  0.00    +0.000 OA
ATOM     12  N   UNL     1      48.903   5.006  18.271  0.00  0.00    +0.000 N 
ATOM     13  C   UNL     1      49.300   3.622  18.515  0.00  0.00    +0.000 C 
ATOM     14  C   UNL     1      49.294   2.823  17.217  0.00  0.00    +0.000 C 
ATOM     15  C   UNL     1      47.941   2.938  16.512  0.00  0.00    +0.000 C 
ATOM     16  C   UNL     1      47.539   4.402  16.323  0.00  0.00    +0.000 C 
ATOM     17  C   UNL     1      47.592   5.173  17.641  0.00  0.00    +0.000 C 
ENDBRANCH   9  10
ENDBRANCH   8   9
ENDBRANCH   5   8
ENDBRANCH   1   2
BRANCH   1  20
ATOM     18  O   UNL     1      44.675   7.520  11.637  0.00  0.00    +0.000 OA
ATOM     19  C   UNL     1      45.379   6.514  11.624  0.00  0.00    +0.000 C 
ATOM     20  N   UNL     1      46.733   6.544  11.849  0.00  0.00    +0.000 N 
ATOM     21  H   UNL     1      47.294   5.739  11.592  0.00  0.00    +0.000 HD
BRANCH  19  22
ATOM     22  C   UNL     1      44.807   5.185  11.408  0.00  0.00    +0.000 A 
ATOM     23  C   UNL     1      44.040   4.554  12.378  0.00  0.00    +0.000 A 
ATOM     24  S   UNL     1      43.482   3.012  11.890  0.00  0.00    +0.000 S 
ATOM     25  C   UNL     1      44.230   3.161  10.365  0.00  0.00    +0.000 A 
ATOM     26  N   UNL     1      44.137   2.182   9.427  0.00  0.00    +0.000 NA
ATOM     27  C   UNL     1      44.736   2.447   8.312  0.00  0.00    +0.000 A 
ATOM     28  N   UNL     1      45.422   3.606   8.051  0.00  0.00    +0.000 N 
ATOM     29  C   UNL     1      45.595   4.586   8.975  0.00  0.00    +0.000 A 
ATOM     30  O   UNL     1      46.324   5.549   8.738  0.00  0.00    +0.000 OA
ATOM     31  C   UNL     1      44.911   4.356  10.240  0.00  0.00    +0.000 A 
ATOM     32  H   UNL     1      45.898   3.748   7.171  0.00  0.00    +0.000 HD
ENDBRANCH  19  22
ENDBRANCH   1  20
TORSDOF 6
ENDMDL
MODEL 5
REMARK VINA RESULT:    -7.234      5.693      9.587
REMARK INTER + INTRA:         -10.866
REMARK INTER:                  -9.990
REMARK INTRA:                  -0.877
REMARK UNBOUND:                -1.095
REMARK  Name = 
REMARK  6 active torsions:
REMARK  status: ('A' for Active; 'I' for Inactive)
REMARK    1  A    between atoms: C_2  and  C_21
REMARK    2  A    between atoms: N_3  and  C_4
REMARK    3  A    between atoms: C_4  and  C_5
REMARK    4  A    between atoms: C_8  and  C_9
REMARK    5  A    between atoms: C_9  and  C_10
REMARK    6  A    between atoms: C_10  and  C_11
REMARK                            x       y       z     vdW  Elec       q    Type
REMARK                         _______ _______ _______ _____ _____    ______ ____
ROOT
ATOM      1  C   UNL     1      47.216   3.436  16.769  0.00  0.00    +0.000 C 
ENDROOT
BRANCH   1   2
ATOM      2  C   UNL     1      48.665   3.476  17.183  0.00  0.00    +0.000 A 
ATOM      3  C   UNL     1      49.477   2.356  16.981  0.00  0.00    +0.000 A 
ATOM      4  C   UNL     1      50.829   2.372  17.342  0.00  0.00    +0.000 A 
ATOM      5  C   UNL     1      51.401   3.512  17.923  0.00  0.00    +0.000 A 
ATOM      6  C   UNL     1      50.579   4.628  18.141  0.00  0.00    +0.000 A 
ATOM      7  C   UNL     1      49.226   4.610  17.782  0.00  0.00    +0.000 A 
BRANCH   5   8
ATOM      8  C   UNL     1      52.849   3.539  18.369  0.00  0.00    +0.000 C 
BRANCH   8   9
ATOM      9  C   UNL     1      53.737   2.525  17.647  0.00  0.00    +0.000 C 
BRANCH   9  10
ATOM     10  C   UNL     1      54.142   1.356  18.533  0.00  0.00    +0.000 C 
ATOM     11  O   UNL     1      54.401   1.507  19.727  0.00  0.00    +0.000 OA
ATOM     12  N   UNL     1      54.142   0.104  17.923  0.00  0.00    +0.000 N 
ATOM     13  C   UNL     1      54.324  -1.093  18.741  0.00  0.00    +0.000 C 
ATOM     14  C   UNL     1      55.637  -1.786  18.396  0.00  0.00    +0.000 C 
ATOM     15  C   UNL     1      55.724  -2.072  16.896  0.00  0.00    +0.000 C 
ATOM     16  C   UNL     1      55.475  -0.805  16.075  0.00  0.00    +0.000 C 
ATOM     17  C   UNL     1      54.168  -0.124  16.477  0.00  0.00    +0.000 C 
ENDBRANCH   9  10
ENDBRANCH   8   9
ENDBRANCH   5   8
ENDBRANCH   1   2
BRANCH   1  20
ATOM     18  O   UNL     1      47.224   3.079  13.977  0.00  0.00    +0.000 OA
ATOM     19  C   UNL     1      46.878   4.159  14.445  0.00  0.00    +0.000 C 
ATOM     20  N   UNL     1      46.895   4.433  15.791  0.00  0.00    +0.000 N 
ATOM     21  H   UNL     1      46.382   5.236  16.138  0.00  0.00    +0.000 HD
BRANCH  19  22
ATOM     22  C   UNL     1      46.461   5.266  13.584  0.00  0.00    +0.000 A 
ATOM     23  C   UNL     1      47.287   6.357  13.346  0.00  0.00    +0.000 A 
ATOM     24  S   UNL     1      46.578   7.516  12.306  0.00  0.00    +0.000 S 
ATOM     25  C   UNL     1      45.165   6.578  12.130  0.00  0.00    +0.000 A 
ATOM     26  N   UNL     1      44.132   6.986  11.345  0.00  0.00    +0.000 NA
ATOM     27  C   UNL     1      43.139   6.159  11.293  0.00  0.00    +0.000 A 
ATOM     28  N   UNL     1      43.086   4.959  11.955  0.00  0.00    +0.000 N 
ATOM     29  C   UNL     1      44.063   4.536  12.798  0.00  0.00    +0.000 A 
ATOM     30  O   UNL     1      43.915   3.515  13.467  0.00  0.00    +0.000 OA
ATOM     31  C   UNL     1      45.225   5.413  12.869  0.00  0.00    +0.000 A 
ATOM     32  H   UNL     1      42.270   4.365  11.901  0.00  0.00    +0.000 HD
ENDBRANCH  19  22
ENDBRANCH   1  20
TORSDOF 6
ENDMDL
MODEL 6
REMARK VINA RESULT:    -6.992      3.456      9.089
REMARK INTER + INTRA:         -10.540
REMARK INTER:                  -8.847
REMARK INTRA:                  -1.692
REMARK UNBOUND:                -1.095
REMARK  Name = 
REMARK  6 active torsions:
REMARK  status: ('A' for Active; 'I' for Inactive)
REMARK    1  A    between atoms: C_2  and  C_21
REMARK    2  A    between atoms: N_3  and  C_4
REMARK    3  A    between atoms: C_4  and  C_5
REMARK    4  A    between atoms: C_8  and  C_9
REMARK    5  A    between atoms: C_9  and  C_10
REMARK    6  A    between atoms: C_10  and  C_11
REMARK                            x       y       z     vdW  Elec       q    Type
REMARK                         _______ _______ _______ _____ _____    ______ ____
ROOT
ATOM      1  C   UNL     1      47.189   3.528  16.566  0.00  0.00    +0.000 C 
ENDROOT
BRANCH   1   2
ATOM      2  C   UNL     1      48.078   4.149  17.613  0.00  0.00    +0.000 A 
ATOM      3  C   UNL     1      47.521   4.970  18.599  0.00  0.00    +0.000 A 
ATOM      4  C   UNL     1      48.321   5.547  19.592  0.00  0.00    +0.000 A 
ATOM      5  C   UNL     1      49.704   5.322  19.616  0.00  0.00    +0.000 A 
ATOM      6  C   UNL     1      50.262   4.513  18.615  0.00  0.00    +0.000 A 
ATOM      7  C   UNL     1      49.462   3.938  17.621  0.00  0.00    +0.000 A 
BRANCH   5   8
ATOM      8  C   UNL     1      50.600   5.976  20.649  0.00  0.00    +0.000 C 
BRANCH   8   9
ATOM      9  C   UNL     1      51.247   7.276  20.172  0.00  0.00    +0.000 C 
BRANCH   9  10
ATOM     10  C   UNL     1      50.237   8.391  19.942  0.00  0.00    +0.000 C 
ATOM     11  O   UNL     1      49.635   8.923  20.875  0.00  0.00    +0.000 OA
ATOM     12  N   UNL     1      50.084   8.809  18.622  0.00  0.00    +0.000 N 
ATOM     13  C   UNL     1      49.288   9.999  18.334  0.00  0.00    +0.000 C 
ATOM     14  C   UNL     1      48.036   9.631  17.546  0.00  0.00    +0.000 C 
ATOM     15  C   UNL     1      48.397   8.839  16.289  0.00  0.00    +0.000 C 
ATOM     16  C   UNL     1      49.273   7.632  16.628  0.00  0.00    +0.000 C 
ATOM     17  C   UNL     1      50.497   8.040  17.446  0.00  0.00    +0.000 C 
ENDBRANCH   9  10
ENDBRANCH   8   9
ENDBRANCH   5   8
ENDBRANCH   1   2
BRANCH   1  20
ATOM     18  O   UNL     1      47.215   3.250  13.765  0.00  0.00    +0.000 OA
ATOM     19  C   UNL     1      46.709   4.249  14.266  0.00  0.00    +0.000 C 
ATOM     20  N   UNL     1      46.700   4.486  15.619  0.00  0.00    +0.000 N 
ATOM     21  H   UNL     1      46.071   5.189  15.993  0.00  0.00    +0.000 HD
BRANCH  19  22
ATOM     22  C   UNL     1      46.109   5.297  13.441  0.00  0.00    +0.000 A 
ATOM     23  C   UNL     1      46.790   6.471  13.144  0.00  0.00    +0.000 A 
ATOM     24  S   UNL     1      45.883   7.538  12.161  0.00  0.00    +0.000 S 
ATOM     25  C   UNL     1      44.572   6.450  12.089  0.00  0.00    +0.000 A 
ATOM     26  N   UNL     1      43.446   6.737  11.385  0.00  0.00    +0.000 NA
ATOM     27  C   UNL     1      42.548   5.806  11.405  0.00  0.00    +0.000 A 
ATOM     28  N   UNL     1      42.677   4.611  12.067  0.00  0.00    +0.000 N 
ATOM     29  C   UNL     1      43.755   4.304  12.834  0.00  0.00    +0.000 A 
ATOM     30  O   UNL     1      43.770   3.277  13.511  0.00  0.00    +0.000 OA
ATOM     31  C   UNL     1      44.815   5.303  12.820  0.00  0.00    +0.000 A 
ATOM     32  H   UNL     1      41.930   3.931  12.073  0.00  0.00    +0.000 HD
ENDBRANCH  19  22
ENDBRANCH   1  20
TORSDOF 6
ENDMDL
MODEL 7
REMARK VINA RESULT:    -6.970      4.014      5.252
REMARK INTER + INTRA:         -10.510
REMARK INTER:                  -9.661
REMARK INTRA:                  -0.849
REMARK UNBOUND:                -1.095
REMARK  Name = 
REMARK  6 active torsions:
REMARK  status: ('A' for Active; 'I' for Inactive)
REMARK    1  A    between atoms: C_2  and  C_21
REMARK    2  A    between atoms: N_3  and  C_4
REMARK    3  A    between atoms: C_4  and  C_5
REMARK    4  A    between atoms: C_8  and  C_9
REMARK    5  A    between atoms: C_9  and  C_10
REMARK    6  A    between atoms: C_10  and  C_11
REMARK                            x       y       z     vdW  Elec       q    Type
REMARK                         _______ _______ _______ _____ _____    ______ ____
ROOT
ATOM      1  C   UNL     1      47.886   3.546  17.334  0.00  0.00    +0.000 C 
ENDROOT
BRANCH   1   2
ATOM      2  C   UNL     1      47.871   4.525  16.186  0.00  0.00    +0.000 A 
ATOM      3  C   UNL     1      47.183   4.208  15.011  0.00  0.00    +0.000 A 
ATOM      4  C   UNL     1      47.140   5.104  13.938  0.00  0.00    +0.000 A 
ATOM      5  C   UNL     1      47.796   6.340  14.012  0.00  0.00    +0.000 A 
ATOM      6  C   UNL     1      48.502   6.647  15.185  0.00  0.00    +0.000 A 
ATOM      7  C   UNL     1      48.546   5.749  16.258  0.00  0.00    +0.000 A 
BRANCH   5   8
ATOM      8  C   UNL     1      47.809   7.307  12.845  0.00  0.00    +0.000 C 
BRANCH   8   9
ATOM      9  C   UNL     1      47.012   6.825  11.633  0.00  0.00    +0.000 C 
BRANCH   9  10
ATOM     10  C   UNL     1      45.507   6.895  11.848  0.00  0.00    +0.000 C 
ATOM     11  O   UNL     1      44.983   7.826  12.461  0.00  0.00    +0.000 OA
ATOM     12  N   UNL     1      44.761   5.878  11.258  0.00  0.00    +0.000 N 
ATOM     13  C   UNL     1      43.303   5.972  11.245  0.00  0.00    +0.000 C 
ATOM     14  C   UNL     1      42.685   4.871  12.099  0.00  0.00    +0.000 C 
ATOM     15  C   UNL     1      43.196   3.496  11.668  0.00  0.00    +0.000 C 
ATOM     16  C   UNL     1      44.725   3.455  11.644  0.00  0.00    +0.000 C 
ATOM     17  C   UNL     1      45.303   4.595  10.807  0.00  0.00    +0.000 C 
ENDBRANCH   9  10
ENDBRANCH   8   9
ENDBRANCH   5   8
ENDBRANCH   1   2
BRANCH   1  20
ATOM     18  O   UNL     1      49.573   1.754  15.967  0.00  0.00    +0.000 OA
ATOM     19  C   UNL     1      49.988   2.326  16.971  0.00  0.00    +0.000 C 
ATOM     20  N   UNL     1      49.214   3.175  17.724  0.00  0.00    +0.000 N 
ATOM     21  H   UNL     1      49.665   3.796  18.386  0.00  0.00    +0.000 HD
BRANCH  19  22
ATOM     22  C   UNL     1      51.345   2.105  17.469  0.00  0.00    +0.000 A 
ATOM     23  C   UNL     1      51.844   0.827  17.684  0.00  0.00    +0.000 A 
ATOM     24  S   UNL     1      53.454   0.828  18.264  0.00  0.00    +0.000 S 
ATOM     25  C   UNL     1      53.531   2.531  18.217  0.00  0.00    +0.000 A 
ATOM     26  N   UNL     1      54.655   3.203  18.579  0.00  0.00    +0.000 NA
ATOM     27  C   UNL     1      54.570   4.489  18.470  0.00  0.00    +0.000 A 
ATOM     28  N   UNL     1      53.459   5.164  18.030  0.00  0.00    +0.000 N 
ATOM     29  C   UNL     1      52.293   4.542  17.717  0.00  0.00    +0.000 A 
ATOM     30  O   UNL     1      51.286   5.196  17.451  0.00  0.00    +0.000 OA
ATOM     31  C   UNL     1      52.342   3.087  17.788  0.00  0.00    +0.000 A 
ATOM     32  H   UNL     1      53.438   6.173  17.993  0.00  0.00    +0.000 HD
ENDBRANCH  19  22
ENDBRANCH   1  20
TORSDOF 6
ENDMDL
MODEL 8
REMARK VINA RESULT:    -6.903      3.684      9.185
REMARK INTER + INTRA:         -10.419
REMARK INTER:                  -9.063
REMARK INTRA:                  -1.356
REMARK UNBOUND:                -1.095
REMARK  Name = 
REMARK  6 active torsions:
REMARK  status: ('A' for Active; 'I' for Inactive)
REMARK    1  A    between atoms: C_2  and  C_21
REMARK    2  A    between atoms: N_3  and  C_4
REMARK    3  A    between atoms: C_4  and  C_5
REMARK    4  A    between atoms: C_8  and  C_9
REMARK    5  A    between atoms: C_9  and  C_10
REMARK    6  A    between atoms: C_10  and  C_11
REMARK                            x       y       z     vdW  Elec       q    Type
REMARK                         _______ _______ _______ _____ _____    ______ ____
ROOT
ATOM      1  C   UNL     1      47.135   3.463  16.850  0.00  0.00    +0.000 C 
ENDROOT
BRANCH   1   2
ATOM      2  C   UNL     1      48.582   3.481  17.274  0.00  0.00    +0.000 A 
ATOM      3  C   UNL     1      49.424   2.424  16.913  0.00  0.00    +0.000 A 
ATOM      4  C   UNL     1      50.775   2.423  17.280  0.00  0.00    +0.000 A 
ATOM      5  C   UNL     1      51.314   3.479  18.027  0.00  0.00    +0.000 A 
ATOM      6  C   UNL     1      50.462   4.528  18.403  0.00  0.00    +0.000 A 
ATOM      7  C   UNL     1      49.110   4.528  18.038  0.00  0.00    +0.000 A 
BRANCH   5   8
ATOM      8  C   UNL     1      52.760   3.477  18.480  0.00  0.00    +0.000 C 
BRANCH   8   9
ATOM      9  C   UNL     1      53.660   4.421  17.682  0.00  0.00    +0.000 C 
BRANCH   9  10
ATOM     10  C   UNL     1      53.679   5.836  18.242  0.00  0.00    +0.000 C 
ATOM     11  O   UNL     1      54.058   6.072  19.389  0.00  0.00    +0.000 OA
ATOM     12  N   UNL     1      53.303   6.844  17.358  0.00  0.00    +0.000 N 
ATOM     13  C   UNL     1      53.481   8.241  17.745  0.00  0.00    +0.000 C 
ATOM     14  C   UNL     1      52.132   8.935  17.892  0.00  0.00    +0.000 C 
ATOM     15  C   UNL     1      51.295   8.772  16.622  0.00  0.00    +0.000 C 
ATOM     16  C   UNL     1      51.177   7.300  16.222  0.00  0.00    +0.000 C 
ATOM     17  C   UNL     1      52.549   6.635  16.121  0.00  0.00    +0.000 C 
ENDBRANCH   9  10
ENDBRANCH   8   9
ENDBRANCH   5   8
ENDBRANCH   1   2
BRANCH   1  20
ATOM     18  O   UNL     1      47.220   3.140  14.055  0.00  0.00    +0.000 OA
ATOM     19  C   UNL     1      46.856   4.214  14.527  0.00  0.00    +0.000 C 
ATOM     20  N   UNL     1      46.834   4.471  15.876  0.00  0.00    +0.000 N 
ATOM     21  H   UNL     1      46.308   5.267  16.218  0.00  0.00    +0.000 HD
BRANCH  19  22
ATOM     22  C   UNL     1      46.456   5.328  13.668  0.00  0.00    +0.000 A 
ATOM     23  C   UNL     1      47.300   6.404  13.429  0.00  0.00    +0.000 A 
ATOM     24  S   UNL     1      46.609   7.577  12.392  0.00  0.00    +0.000 S 
ATOM     25  C   UNL     1      45.179   6.665  12.219  0.00  0.00    +0.000 A 
ATOM     26  N   UNL     1      44.152   7.092  11.439  0.00  0.00    +0.000 NA
ATOM     27  C   UNL     1      43.144   6.284  11.388  0.00  0.00    +0.000 A 
ATOM     28  N   UNL     1      43.070   5.084  12.049  0.00  0.00    +0.000 N 
ATOM     29  C   UNL     1      44.043   4.643  12.889  0.00  0.00    +0.000 A 
ATOM     30  O   UNL     1      43.878   3.624  13.558  0.00  0.00    +0.000 OA
ATOM     31  C   UNL     1      45.220   5.498  12.957  0.00  0.00    +0.000 A 
ATOM     32  H   UNL     1      42.244   4.505  11.998  0.00  0.00    +0.000 HD
ENDBRANCH  19  22
ENDBRANCH   1  20
TORSDOF 6
ENDMDL
MODEL 9
REMARK VINA RESULT:    -6.438      3.972      9.170
REMARK INTER + INTRA:          -9.791
REMARK INTER:                  -8.122
REMARK INTRA:                  -1.669
REMARK UNBOUND:                -1.095
REMARK  Name = 
REMARK  6 active torsions:
REMARK  status: ('A' for Active; 'I' for Inactive)
REMARK    1  A    between atoms: C_2  and  C_21
REMARK    2  A    between atoms: N_3  and  C_4
REMARK    3  A    between atoms: C_4  and  C_5
REMARK    4  A    between atoms: C_8  and  C_9
REMARK    5  A    between atoms: C_9  and  C_10
REMARK    6  A    between atoms: C_10  and  C_11
REMARK                            x       y       z     vdW  Elec       q    Type
REMARK                         _______ _______ _______ _____ _____    ______ ____
ROOT
ATOM      1  C   UNL     1      47.240   3.374  16.945  0.00  0.00    +0.000 C 
ENDROOT
BRANCH   1   2
ATOM      2  C   UNL     1      48.706   3.460  17.289  0.00  0.00    +0.000 A 
ATOM      3  C   UNL     1      49.542   2.367  17.044  0.00  0.00    +0.000 A 
ATOM      4  C   UNL     1      50.909   2.425  17.340  0.00  0.00    +0.000 A 
ATOM      5  C   UNL     1      51.471   3.581  17.898  0.00  0.00    +0.000 A 
ATOM      6  C   UNL     1      50.626   4.669  18.160  0.00  0.00    +0.000 A 
ATOM      7  C   UNL     1      49.258   4.610  17.866  0.00  0.00    +0.000 A 
BRANCH   5   8
ATOM      8  C   UNL     1      52.937   3.652  18.275  0.00  0.00    +0.000 C 
BRANCH   8   9
ATOM      9  C   UNL     1      53.772   4.536  17.348  0.00  0.00    +0.000 C 
BRANCH   9  10
ATOM     10  C   UNL     1      54.097   5.892  17.956  0.00  0.00    +0.000 C 
ATOM     11  O   UNL     1      54.699   5.995  19.025  0.00  0.00    +0.000 OA
ATOM     12  N   UNL     1      53.726   7.002  17.200  0.00  0.00    +0.000 N 
ATOM     13  C   UNL     1      54.173   8.330  17.610  0.00  0.00    +0.000 C 
ATOM     14  C   UNL     1      52.987   9.191  18.028  0.00  0.00    +0.000 C 
ATOM     15  C   UNL     1      51.928   9.234  16.926  0.00  0.00    +0.000 C 
ATOM     16  C   UNL     1      51.527   7.824  16.489  0.00  0.00    +0.000 C 
ATOM     17  C   UNL     1      52.747   6.985  16.112  0.00  0.00    +0.000 C 
ENDBRANCH   9  10
ENDBRANCH   8   9
ENDBRANCH   5   8
ENDBRANCH   1   2
BRANCH   1  20
ATOM     18  O   UNL     1      47.326   3.006  14.155  0.00  0.00    +0.000 OA
ATOM     19  C   UNL     1      46.881   4.055  14.611  0.00  0.00    +0.000 C 
ATOM     20  N   UNL     1      46.850   4.335  15.955  0.00  0.00    +0.000 N 
ATOM     21  H   UNL     1      46.264   5.093  16.288  0.00  0.00    +0.000 HD
BRANCH  19  22
ATOM     22  C   UNL     1      46.384   5.117  13.737  0.00  0.00    +0.000 A 
ATOM     23  C   UNL     1      45.163   5.012  13.082  0.00  0.00    +0.000 A 
ATOM     24  S   UNL     1      44.801   6.381  12.122  0.00  0.00    +0.000 S 
ATOM     25  C   UNL     1      46.251   7.155  12.577  0.00  0.00    +0.000 A 
ATOM     26  N   UNL     1      46.572   8.393  12.116  0.00  0.00    +0.000 NA
ATOM     27  C   UNL     1      47.692   8.859  12.566  0.00  0.00    +0.000 A 
ATOM     28  N   UNL     1      48.520   8.197  13.436  0.00  0.00    +0.000 N 
ATOM     29  C   UNL     1      48.274   6.935  13.874  0.00  0.00    +0.000 A 
ATOM     30  O   UNL     1      49.108   6.334  14.551  0.00  0.00    +0.000 OA
ATOM     31  C   UNL     1      47.007   6.373  13.427  0.00  0.00    +0.000 A 
ATOM     32  H   UNL     1      49.400   8.597  13.731  0.00  0.00    +0.000 HD
ENDBRANCH  19  22
ENDBRANCH   1  20
TORSDOF 6
ENDMDL
