MODEL 1
REMARK VINA RESULT:    -7.634      0.000      0.000
REMARK INTER + INTRA:         -14.814
REMARK INTER:                 -12.766
REMARK INTRA:                  -2.048
REMARK UNBOUND:                -2.048
REMARK  Name = 
REMARK  12 active torsions:
REMARK  status: ('A' for Active; 'I' for Inactive)
REMARK    1  A    between atoms: N_1  and  C_2
REMARK    2  A    between atoms: C_2  and  C_3
REMARK    3  A    between atoms: C_3  and  N_4
REMARK    4  A    between atoms: N_4  and  C_5
REMARK    5  A    between atoms: C_5  and  C_6
REMARK    6  A    between atoms: C_6  and  N_7
REMARK    7  A    between atoms: C_6  and  C_29
REMARK    8  A    between atoms: N_7  and  C_8
REMARK    9  A    between atoms: C_8  and  C_9
REMARK   10  A    between atoms: C_12  and  C_13
REMARK   11  A    between atoms: C_13  and  N_14
REMARK   12  A    between atoms: C_15  and  C_17
REMARK                            x       y       z     vdW  Elec       q    Type
REMARK                         _______ _______ _______ _____ _____    ______ ____
ROOT
ATOM      1  C   UNL     1      45.582   6.739  11.147  0.00  0.00    +0.000 A 
ATOM      2  C   UNL     1      46.968   6.620  11.150  0.00  0.00    +0.000 A 
ATOM      3  C   UNL     1      47.703   7.271  12.140  0.00  0.00    +0.000 A 
ATOM      4  C   UNL     1      47.038   8.036  13.101  0.00  0.00    +0.000 A 
ATOM      5  C   UNL     1      45.659   8.150  12.983  0.00  0.00    +0.000 A 
ATOM      6  N   UNL     1      44.923   7.527  12.038  0.00  0.00    +0.000 NA
ENDROOT
BRANCH   1   7
ATOM      7  C   UNL     1      44.738   5.990  10.125  0.00  0.00    +0.000 C 
BRANCH   7   8
ATOM      8  N   UNL     1      45.557   5.189   9.194  0.00  0.00    +0.000 NA
ATOM      9  H   UNL     1      45.793   5.761   8.386  0.00  0.00    +0.000 HD
BRANCH   8  10
ATOM     10  C   UNL     1      44.854   3.990   8.680  0.00  0.00    +0.000 C 
BRANCH  10  11
ATOM     11  C   UNL     1      45.763   3.034   7.906  0.00  0.00    +0.000 A 
ATOM     12  C   UNL     1      46.440   3.469   6.773  0.00  0.00    +0.000 A 
ATOM     13  C   UNL     1      47.293   2.580   6.121  0.00  0.00    +0.000 A 
ATOM     14  C   UNL     1      47.461   1.295   6.626  0.00  0.00    +0.000 A 
ATOM     15  C   UNL     1      46.763   0.945   7.765  0.00  0.00    +0.000 A 
ATOM     16  N   UNL     1      45.922   1.778   8.406  0.00  0.00    +0.000 NA
ENDBRANCH  10  11
BRANCH  10  17
ATOM     17  C   UNL     1      44.063   3.196   9.763  0.00  0.00    +0.000 C 
BRANCH  17  18
ATOM     18  N   UNL     1      44.807   2.950  11.020  0.00  0.00    +0.000 NA
ATOM     19  H   UNL     1      45.258   2.036  10.923  0.00  0.00    +0.000 HD
BRANCH  18  20
ATOM     20  C   UNL     1      43.848   2.780  12.133  0.00  0.00    +0.000 C 
BRANCH  20  21
ATOM     21  C   UNL     1      43.604   4.092  12.913  0.00  0.00    +0.000 C 
BRANCH  21  22
ATOM     22  N   UNL     1      44.827   4.523  13.603  0.00  0.00    +0.000 NA
ATOM     23  H   UNL     1      44.993   3.905  14.397  0.00  0.00    +0.000 HD
ATOM     24  H   UNL     1      44.671   5.452  13.993  0.00  0.00    +0.000 HD
ENDBRANCH  21  22
ENDBRANCH  20  21
ENDBRANCH  18  20
ENDBRANCH  17  18
ENDBRANCH  10  17
ENDBRANCH   8  10
ENDBRANCH   7   8
ENDBRANCH   1   7
BRANCH   4  25
ATOM     25  C   UNL     1      47.767   8.738  14.205  0.00  0.00    +0.000 C 
BRANCH  25  26
ATOM     26  N   UNL     1      47.998   7.858  15.322  0.00  0.00    +0.000 N 
ATOM     27  C   UNL     1      49.188   7.193  15.461  0.00  0.00    +0.000 C 
ATOM     28  O   UNL     1      50.115   7.346  14.669  0.00  0.00    +0.000 OA
ATOM     29  H   UNL     1      47.186   7.543  15.843  0.00  0.00    +0.000 HD
BRANCH  27  30
ATOM     30  C   UNL     1      49.322   6.333  16.642  0.00  0.00    +0.000 A 
ATOM     31  C   UNL     1      50.227   6.675  17.638  0.00  0.00    +0.000 A 
ATOM     32  S   UNL     1      50.227   5.599  18.961  0.00  0.00    +0.000 S 
ATOM     33  C   UNL     1      49.050   4.611  18.226  0.00  0.00    +0.000 A 
ATOM     34  N   UNL     1      48.608   3.479  18.836  0.00  0.00    +0.000 NA
ATOM     35  C   UNL     1      47.736   2.813  18.156  0.00  0.00    +0.000 A 
ATOM     36  N   UNL     1      47.261   3.180  16.923  0.00  0.00    +0.000 N 
ATOM     37  C   UNL     1      47.653   4.333  16.284  0.00  0.00    +0.000 A 
ATOM     38  O   UNL     1      47.170   4.662  15.208  0.00  0.00    +0.000 OA
ATOM     39  C   UNL     1      48.647   5.109  17.001  0.00  0.00    +0.000 A 
ATOM     40  H   UNL     1      46.565   2.620  16.449  0.00  0.00    +0.000 HD
ENDBRANCH  27  30
ENDBRANCH  25  26
ENDBRANCH   4  25
TORSDOF 12
ENDMDL
MODEL 2
REMARK VINA RESULT:    -7.224      2.773      4.087
REMARK INTER + INTRA:         -14.129
REMARK INTER:                 -12.661
REMARK INTRA:                  -1.468
REMARK UNBOUND:                -2.048
REMARK  Name = 
REMARK  12 active torsions:
REMARK  status: ('A' for Active; 'I' for Inactive)
REMARK    1  A    between atoms: N_1  and  C_2
REMARK    2  A    between atoms: C_2  and  C_3
REMARK    3  A    between atoms: C_3  and  N_4
REMARK    4  A    between atoms: N_4  and  C_5
REMARK    5  A    between atoms: C_5  and  C_6
REMARK    6  A    between atoms: C_6  and  N_7
REMARK    7  A    between atoms: C_6  and  C_29
REMARK    8  A    between atoms: N_7  and  C_8
REMARK    9  A    between atoms: C_8  and  C_9
REMARK   10  A    between atoms: C_12  and  C_13
REMARK   11  A    between atoms: C_13  and  N_14
REMARK   12  A    between atoms: C_15  and  C_17
REMARK                            x       y       z     vdW  Elec       q    Type
REMARK                         _______ _______ _______ _____ _____    ______ ____
ROOT
ATOM      1  C   UNL     1      46.824   4.474  14.041  0.00  0.00    +0.000 A 
ATOM      2  C   UNL     1      47.489   5.677  13.824  0.00  0.00    +0.000 A 
ATOM      3  C   UNL     1      48.184   6.268  14.877  0.00  0.00    +0.000 A 
ATOM      4  C   UNL     1      48.195   5.650  16.130  0.00  0.00    +0.000 A 
ATOM      5  C   UNL     1      47.452   4.485  16.272  0.00  0.00    +0.000 A 
ATOM      6  N   UNL     1      46.774   3.889  15.268  0.00  0.00    +0.000 NA
ENDROOT
BRANCH   1   7
ATOM      7  C   UNL     1      46.109   3.762  12.902  0.00  0.00    +0.000 C 
BRANCH   7   8
ATOM      8  N   UNL     1      44.726   4.238  12.717  0.00  0.00    +0.000 NA
ATOM      9  H   UNL     1      44.107   3.435  12.634  0.00  0.00    +0.000 HD
BRANCH   8  10
ATOM     10  C   UNL     1      44.544   5.048  11.488  0.00  0.00    +0.000 C 
BRANCH  10  11
ATOM     11  C   UNL     1      44.801   4.266  10.198  0.00  0.00    +0.000 A 
ATOM     12  C   UNL     1      45.573   4.817   9.183  0.00  0.00    +0.000 A 
ATOM     13  C   UNL     1      45.819   4.055   8.042  0.00  0.00    +0.000 A 
ATOM     14  C   UNL     1      45.308   2.765   7.954  0.00  0.00    +0.000 A 
ATOM     15  C   UNL     1      44.561   2.285   9.013  0.00  0.00    +0.000 A 
ATOM     16  N   UNL     1      44.296   3.004  10.120  0.00  0.00    +0.000 NA
ENDBRANCH  10  11
BRANCH  10  17
ATOM     17  C   UNL     1      43.168   5.772  11.394  0.00  0.00    +0.000 C 
BRANCH  17  18
ATOM     18  N   UNL     1      43.247   7.224  11.111  0.00  0.00    +0.000 NA
ATOM     19  H   UNL     1      43.253   7.327  10.092  0.00  0.00    +0.000 HD
BRANCH  18  20
ATOM     20  C   UNL     1      44.564   7.738  11.549  0.00  0.00    +0.000 C 
BRANCH  20  21
ATOM     21  C   UNL     1      44.705   9.263  11.342  0.00  0.00    +0.000 C 
BRANCH  21  22
ATOM     22  N   UNL     1      44.504   9.981  12.608  0.00  0.00    +0.000 NA
ATOM     23  H   UNL     1      45.156  10.765  12.649  0.00  0.00    +0.000 HD
ATOM     24  H   UNL     1      44.756   9.360  13.377  0.00  0.00    +0.000 HD
ENDBRANCH  21  22
ENDBRANCH  20  21
ENDBRANCH  18  20
ENDBRANCH  17  18
ENDBRANCH  10  17
ENDBRANCH   8  10
ENDBRANCH   7   8
ENDBRANCH   1   7
BRANCH   4  25
ATOM     25  C   UNL     1      48.945   6.220  17.294  0.00  0.00    +0.000 C 
BRANCH  25  26
ATOM     26  N   UNL     1      49.969   5.315  17.750  0.00  0.00    +0.000 N 
ATOM     27  C   UNL     1      51.256   5.418  17.291  0.00  0.00    +0.000 C 
ATOM     28  O   UNL     1      51.599   6.302  16.509  0.00  0.00    +0.000 OA
ATOM     29  H   UNL     1      49.667   4.456  18.200  0.00  0.00    +0.000 HD
BRANCH  27  30
ATOM     30  C   UNL     1      52.222   4.455  17.832  0.00  0.00    +0.000 A 
ATOM     31  C   UNL     1      53.368   4.918  18.466  0.00  0.00    +0.000 A 
ATOM     32  S   UNL     1      54.360   3.672  19.076  0.00  0.00    +0.000 S 
ATOM     33  C   UNL     1      53.317   2.470  18.472  0.00  0.00    +0.000 A 
ATOM     34  N   UNL     1      53.602   1.151  18.636  0.00  0.00    +0.000 NA
ATOM     35  C   UNL     1      52.739   0.350  18.105  0.00  0.00    +0.000 A 
ATOM     36  N   UNL     1      51.613   0.748  17.432  0.00  0.00    +0.000 N 
ATOM     37  C   UNL     1      51.268   2.070  17.271  0.00  0.00    +0.000 A 
ATOM     38  O   UNL     1      50.228   2.394  16.712  0.00  0.00    +0.000 OA
ATOM     39  C   UNL     1      52.216   3.012  17.834  0.00  0.00    +0.000 A 
ATOM     40  H   UNL     1      50.968   0.067  17.052  0.00  0.00    +0.000 HD
ENDBRANCH  27  30
ENDBRANCH  25  26
ENDBRANCH   4  25
TORSDOF 12
ENDMDL
MODEL 3
REMARK VINA RESULT:    -6.891      1.596      2.022
REMARK INTER + INTRA:         -13.572
REMARK INTER:                 -12.313
REMARK INTRA:                  -1.259
REMARK UNBOUND:                -2.048
REMARK  Name = 
REMARK  12 active torsions:
REMARK  status: ('A' for Active; 'I' for Inactive)
REMARK    1  A    between atoms: N_1  and  C_2
REMARK    2  A    between atoms: C_2  and  C_3
REMARK    3  A    between atoms: C_3  and  N_4
REMARK    4  A    between atoms: N_4  and  C_5
REMARK    5  A    between atoms: C_5  and  C_6
REMARK    6  A    between atoms: C_6  and  N_7
REMARK    7  A    between atoms: C_6  and  C_29
REMARK    8  A    between atoms: N_7  and  C_8
REMARK    9  A    between atoms: C_8  and  C_9
REMARK   10  A    between atoms: C_12  and  C_13
REMARK   11  A    between atoms: C_13  and  N_14
REMARK   12  A    between atoms: C_15  and  C_17
REMARK                            x       y       z     vdW  Elec       q    Type
REMARK                         _______ _______ _______ _____ _____    ______ ____
ROOT
ATOM      1  C   UNL     1      46.321   6.780  11.363  0.00  0.00    +0.000 A 
ATOM      2  C   UNL     1      47.702   6.877  11.507  0.00  0.00    +0.000 A 
ATOM      3  C   UNL     1      48.224   7.662  12.532  0.00  0.00    +0.000 A 
ATOM      4  C   UNL     1      47.357   8.344  13.390  0.00  0.00    +0.000 A 
ATOM      5  C   UNL     1      45.996   8.239  13.133  0.00  0.00    +0.000 A 
ATOM      6  N   UNL     1      45.463   7.482  12.150  0.00  0.00    +0.000 NA
ENDROOT
BRANCH   1   7
ATOM      7  C   UNL     1      45.710   5.880  10.299  0.00  0.00    +0.000 C 
BRANCH   7   8
ATOM      8  N   UNL     1      44.288   5.584  10.557  0.00  0.00    +0.000 NA
ATOM      9  H   UNL     1      44.094   5.731  11.545  0.00  0.00    +0.000 HD
BRANCH   8  10
ATOM     10  C   UNL     1      43.917   4.181  10.252  0.00  0.00    +0.000 C 
BRANCH  10  11
ATOM     11  C   UNL     1      44.842   3.513   9.233  0.00  0.00    +0.000 A 
ATOM     12  C   UNL     1      45.176   2.170   9.361  0.00  0.00    +0.000 A 
ATOM     13  C   UNL     1      45.986   1.587   8.388  0.00  0.00    +0.000 A 
ATOM     14  C   UNL     1      46.422   2.350   7.310  0.00  0.00    +0.000 A 
ATOM     15  C   UNL     1      46.034   3.675   7.249  0.00  0.00    +0.000 A 
ATOM     16  N   UNL     1      45.264   4.267   8.181  0.00  0.00    +0.000 NA
ENDBRANCH  10  11
BRANCH  10  17
ATOM     17  C   UNL     1      43.775   3.268  11.506  0.00  0.00    +0.000 C 
BRANCH  17  18
ATOM     18  N   UNL     1      44.459   3.770  12.720  0.00  0.00    +0.000 NA
ATOM     19  H   UNL     1      44.564   4.782  12.605  0.00  0.00    +0.000 HD
BRANCH  18  20
ATOM     20  C   UNL     1      45.844   3.250  12.755  0.00  0.00    +0.000 C 
BRANCH  20  21
ATOM     21  C   UNL     1      46.765   4.075  13.682  0.00  0.00    +0.000 C 
BRANCH  21  22
ATOM     22  N   UNL     1      47.465   3.201  14.634  0.00  0.00    +0.000 NA
ATOM     23  H   UNL     1      47.029   3.297  15.551  0.00  0.00    +0.000 HD
ATOM     24  H   UNL     1      48.423   3.534  14.737  0.00  0.00    +0.000 HD
ENDBRANCH  21  22
ENDBRANCH  20  21
ENDBRANCH  18  20
ENDBRANCH  17  18
ENDBRANCH  10  17
ENDBRANCH   8  10
ENDBRANCH   7   8
ENDBRANCH   1   7
BRANCH   4  25
ATOM     25  C   UNL     1      47.855   9.181  14.527  0.00  0.00    +0.000 C 
BRANCH  25  26
ATOM     26  N   UNL     1      47.875   8.434  15.758  0.00  0.00    +0.000 N 
ATOM     27  C   UNL     1      48.819   8.686  16.719  0.00  0.00    +0.000 C 
ATOM     28  O   UNL     1      49.656   9.576  16.591  0.00  0.00    +0.000 OA
ATOM     29  H   UNL     1      47.357   7.561  15.783  0.00  0.00    +0.000 HD
BRANCH  27  30
ATOM     30  C   UNL     1      48.740   7.877  17.940  0.00  0.00    +0.000 A 
ATOM     31  C   UNL     1      48.679   8.507  19.176  0.00  0.00    +0.000 A 
ATOM     32  S   UNL     1      48.545   7.426  20.488  0.00  0.00    +0.000 S 
ATOM     33  C   UNL     1      48.611   6.075  19.453  0.00  0.00    +0.000 A 
ATOM     34  N   UNL     1      48.566   4.811  19.951  0.00  0.00    +0.000 NA
ATOM     35  C   UNL     1      48.652   3.883  19.057  0.00  0.00    +0.000 A 
ATOM     36  N   UNL     1      48.771   4.106  17.709  0.00  0.00    +0.000 N 
ATOM     37  C   UNL     1      48.786   5.367  17.158  0.00  0.00    +0.000 A 
ATOM     38  O   UNL     1      48.839   5.532  15.946  0.00  0.00    +0.000 OA
ATOM     39  C   UNL     1      48.711   6.445  18.125  0.00  0.00    +0.000 A 
ATOM     40  H   UNL     1      48.818   3.333  17.058  0.00  0.00    +0.000 HD
ENDBRANCH  27  30
ENDBRANCH  25  26
ENDBRANCH   4  25
TORSDOF 12
ENDMDL
MODEL 4
REMARK VINA RESULT:    -6.732      2.886      8.462
REMARK INTER + INTRA:         -13.306
REMARK INTER:                 -11.658
REMARK INTRA:                  -1.648
REMARK UNBOUND:                -2.048
REMARK  Name = 
REMARK  12 active torsions:
REMARK  status: ('A' for Active; 'I' for Inactive)
REMARK    1  A    between atoms: N_1  and  C_2
REMARK    2  A    between atoms: C_2  and  C_3
REMARK    3  A    between atoms: C_3  and  N_4
REMARK    4  A    between atoms: N_4  and  C_5
REMARK    5  A    between atoms: C_5  and  C_6
REMARK    6  A    between atoms: C_6  and  N_7
REMARK    7  A    between atoms: C_6  and  C_29
REMARK    8  A    between atoms: N_7  and  C_8
REMARK    9  A    between atoms: C_8  and  C_9
REMARK   10  A    between atoms: C_12  and  C_13
REMARK   11  A    between atoms: C_13  and  N_14
REMARK   12  A    between atoms: C_15  and  C_17
REMARK                            x       y       z     vdW  Elec       q    Type
REMARK                         _______ _______ _______ _____ _____    ______ ____
ROOT
ATOM      1  C   UNL     1      49.422   7.803  15.599  0.00  0.00    +0.000 A 
ATOM      2  C   UNL     1      48.447   8.781  15.430  0.00  0.00    +0.000 A 
ATOM      3  C   UNL     1      47.738   8.833  14.231  0.00  0.00    +0.000 A 
ATOM      4  C   UNL     1      48.024   7.912  13.220  0.00  0.00    +0.000 A 
ATOM      5  C   UNL     1      49.056   7.012  13.452  0.00  0.00    +0.000 A 
ATOM      6  N   UNL     1      49.755   6.937  14.604  0.00  0.00    +0.000 NA
ENDROOT
BRANCH   1   7
ATOM      7  C   UNL     1      50.172   7.670  16.917  0.00  0.00    +0.000 C 
BRANCH   7   8
ATOM      8  N   UNL     1      49.321   7.142  18.000  0.00  0.00    +0.000 NA
ATOM      9  H   UNL     1      49.758   7.349  18.895  0.00  0.00    +0.000 HD
BRANCH   8  10
ATOM     10  C   UNL     1      49.142   5.671  17.940  0.00  0.00    +0.000 C 
BRANCH  10  11
ATOM     11  C   UNL     1      50.390   4.888  18.350  0.00  0.00    +0.000 A 
ATOM     12  C   UNL     1      50.857   3.843  17.561  0.00  0.00    +0.000 A 
ATOM     13  C   UNL     1      52.021   3.182  17.946  0.00  0.00    +0.000 A 
ATOM     14  C   UNL     1      52.696   3.591  19.091  0.00  0.00    +0.000 A 
ATOM     15  C   UNL     1      52.175   4.647  19.813  0.00  0.00    +0.000 A 
ATOM     16  N   UNL     1      51.045   5.294  19.472  0.00  0.00    +0.000 NA
ENDBRANCH  10  11
BRANCH  10  17
ATOM     17  C   UNL     1      47.910   5.142  18.734  0.00  0.00    +0.000 C 
BRANCH  17  18
ATOM     18  N   UNL     1      46.748   4.763  17.897  0.00  0.00    +0.000 NA
ATOM     19  H   UNL     1      46.099   4.255  18.504  0.00  0.00    +0.000 HD
BRANCH  18  20
ATOM     20  C   UNL     1      47.175   3.769  16.886  0.00  0.00    +0.000 C 
BRANCH  20  21
ATOM     21  C   UNL     1      47.154   4.337  15.449  0.00  0.00    +0.000 C 
BRANCH  21  22
ATOM     22  N   UNL     1      47.345   3.266  14.462  0.00  0.00    +0.000 NA
ATOM     23  H   UNL     1      47.304   2.366  14.941  0.00  0.00    +0.000 HD
ATOM     24  H   UNL     1      48.286   3.342  14.077  0.00  0.00    +0.000 HD
ENDBRANCH  21  22
ENDBRANCH  20  21
ENDBRANCH  18  20
ENDBRANCH  17  18
ENDBRANCH  10  17
ENDBRANCH   8  10
ENDBRANCH   7   8
ENDBRANCH   1   7
BRANCH   4  25
ATOM     25  C   UNL     1      47.279   7.898  11.921  0.00  0.00    +0.000 C 
BRANCH  25  26
ATOM     26  N   UNL     1      46.663   6.618  11.684  0.00  0.00    +0.000 N 
ATOM     27  C   UNL     1      45.299   6.481  11.693  0.00  0.00    +0.000 C 
ATOM     28  O   UNL     1      44.550   7.440  11.862  0.00  0.00    +0.000 OA
ATOM     29  H   UNL     1      47.248   5.794  11.776  0.00  0.00    +0.000 HD
BRANCH  27  30
ATOM     30  C   UNL     1      44.776   5.137  11.427  0.00  0.00    +0.000 A 
ATOM     31  C   UNL     1      44.038   4.483  12.405  0.00  0.00    +0.000 A 
ATOM     32  S   UNL     1      43.466   2.951  11.921  0.00  0.00    +0.000 S 
ATOM     33  C   UNL     1      44.225   3.088  10.403  0.00  0.00    +0.000 A 
ATOM     34  N   UNL     1      44.145   2.084   9.490  0.00  0.00    +0.000 NA
ATOM     35  C   UNL     1      44.789   2.309   8.393  0.00  0.00    +0.000 A 
ATOM     36  N   UNL     1      45.498   3.452   8.124  0.00  0.00    +0.000 N 
ATOM     37  C   UNL     1      45.577   4.507   9.003  0.00  0.00    +0.000 A 
ATOM     38  O   UNL     1      46.173   5.536   8.713  0.00  0.00    +0.000 OA
ATOM     39  C   UNL     1      44.885   4.294  10.260  0.00  0.00    +0.000 A 
ATOM     40  H   UNL     1      45.969   3.573   7.236  0.00  0.00    +0.000 HD
ENDBRANCH  27  30
ENDBRANCH  25  26
ENDBRANCH   4  25
TORSDOF 12
ENDMDL
MODEL 5
REMARK VINA RESULT:    -6.699      3.148      8.582
REMARK INTER + INTRA:         -13.251
REMARK INTER:                 -11.519
REMARK INTRA:                  -1.732
REMARK UNBOUND:                -2.048
REMARK  Name = 
REMARK  12 active torsions:
REMARK  status: ('A' for Active; 'I' for Inactive)
REMARK    1  A    between atoms: N_1  and  C_2
REMARK    2  A    between atoms: C_2  and  C_3
REMARK    3  A    between atoms: C_3  and  N_4
REMARK    4  A    between atoms: N_4  and  C_5
REMARK    5  A    between atoms: C_5  and  C_6
REMARK    6  A    between atoms: C_6  and  N_7
REMARK    7  A    between atoms: C_6  and  C_29
REMARK    8  A    between atoms: N_7  and  C_8
REMARK    9  A    between atoms: C_8  and  C_9
REMARK   10  A    between atoms: C_12  and  C_13
REMARK   11  A    between atoms: C_13  and  N_14
REMARK   12  A    between atoms: C_15  and  C_17
REMARK                            x       y       z     vdW  Elec       q    Type
REMARK                         _______ _______ _______ _____ _____    ______ ____
ROOT
ATOM      1  C   UNL     1      50.210   7.447  14.810  0.00  0.00    +0.000 A 
ATOM      2  C   UNL     1      50.378   8.462  13.874  0.00  0.00    +0.000 A 
ATOM      3  C   UNL     1      49.433   8.617  12.862  0.00  0.00    +0.000 A 
ATOM      4  C   UNL     1      48.342   7.747  12.799  0.00  0.00    +0.000 A 
ATOM      5  C   UNL     1      48.288   6.724  13.736  0.00  0.00    +0.000 A 
ATOM      6  N   UNL     1      49.186   6.555  14.730  0.00  0.00    +0.000 NA
ENDROOT
BRANCH   1   7
ATOM      7  C   UNL     1      51.182   7.287  15.970  0.00  0.00    +0.000 C 
BRANCH   7   8
ATOM      8  N   UNL     1      51.446   5.873  16.296  0.00  0.00    +0.000 NA
ATOM      9  H   UNL     1      50.985   5.283  15.606  0.00  0.00    +0.000 HD
BRANCH   8  10
ATOM     10  C   UNL     1      50.921   5.470  17.623  0.00  0.00    +0.000 C 
BRANCH  10  11
ATOM     11  C   UNL     1      49.618   4.671  17.547  0.00  0.00    +0.000 A 
ATOM     12  C   UNL     1      48.421   5.236  17.973  0.00  0.00    +0.000 A 
ATOM     13  C   UNL     1      47.250   4.493  17.848  0.00  0.00    +0.000 A 
ATOM     14  C   UNL     1      47.300   3.221  17.288  0.00  0.00    +0.000 A 
ATOM     15  C   UNL     1      48.527   2.737  16.876  0.00  0.00    +0.000 A 
ATOM     16  N   UNL     1      49.676   3.428  16.998  0.00  0.00    +0.000 NA
ENDBRANCH  10  11
BRANCH  10  17
ATOM     17  C   UNL     1      51.948   4.709  18.514  0.00  0.00    +0.000 C 
BRANCH  17  18
ATOM     18  N   UNL     1      52.846   3.788  17.780  0.00  0.00    +0.000 NA
ATOM     19  H   UNL     1      52.408   3.609  16.872  0.00  0.00    +0.000 HD
BRANCH  18  20
ATOM     20  C   UNL     1      52.860   2.473  18.458  0.00  0.00    +0.000 C 
BRANCH  20  21
ATOM     21  C   UNL     1      52.561   1.304  17.492  0.00  0.00    +0.000 C 
BRANCH  21  22
ATOM     22  N   UNL     1      51.627   0.348  18.103  0.00  0.00    +0.000 NA
ATOM     23  H   UNL     1      52.102  -0.135  18.865  0.00  0.00    +0.000 HD
ATOM     24  H   UNL     1      51.394  -0.365  17.413  0.00  0.00    +0.000 HD
ENDBRANCH  21  22
ENDBRANCH  20  21
ENDBRANCH  18  20
ENDBRANCH  17  18
ENDBRANCH  10  17
ENDBRANCH   8  10
ENDBRANCH   7   8
ENDBRANCH   1   7
BRANCH   4  25
ATOM     25  C   UNL     1      47.279   7.877  11.752  0.00  0.00    +0.000 C 
BRANCH  25  26
ATOM     26  N   UNL     1      46.649   6.610  11.485  0.00  0.00    +0.000 N 
ATOM     27  C   UNL     1      45.306   6.432  11.692  0.00  0.00    +0.000 C 
ATOM     28  O   UNL     1      44.581   7.348  12.072  0.00  0.00    +0.000 OA
ATOM     29  H   UNL     1      47.252   5.797  11.399  0.00  0.00    +0.000 HD
BRANCH  27  30
ATOM     30  C   UNL     1      44.765   5.106  11.375  0.00  0.00    +0.000 A 
ATOM     31  C   UNL     1      43.998   4.436  12.318  0.00  0.00    +0.000 A 
ATOM     32  S   UNL     1      43.409   2.930  11.776  0.00  0.00    +0.000 S 
ATOM     33  C   UNL     1      44.198   3.101  10.276  0.00  0.00    +0.000 A 
ATOM     34  N   UNL     1      44.119   2.127   9.331  0.00  0.00    +0.000 NA
ATOM     35  C   UNL     1      44.786   2.375   8.253  0.00  0.00    +0.000 A 
ATOM     36  N   UNL     1      45.520   3.513   8.033  0.00  0.00    +0.000 N 
ATOM     37  C   UNL     1      45.600   4.539   8.947  0.00  0.00    +0.000 A 
ATOM     38  O   UNL     1      46.219   5.566   8.699  0.00  0.00    +0.000 OA
ATOM     39  C   UNL     1      44.881   4.299  10.184  0.00  0.00    +0.000 A 
ATOM     40  H   UNL     1      46.008   3.653   7.158  0.00  0.00    +0.000 HD
ENDBRANCH  27  30
ENDBRANCH  25  26
ENDBRANCH   4  25
TORSDOF 12
ENDMDL
MODEL 6
REMARK VINA RESULT:    -6.478      3.240      5.728
REMARK INTER + INTRA:         -12.881
REMARK INTER:                 -11.045
REMARK INTRA:                  -1.836
REMARK UNBOUND:                -2.048
REMARK  Name = 
REMARK  12 active torsions:
REMARK  status: ('A' for Active; 'I' for Inactive)
REMARK    1  A    between atoms: N_1  and  C_2
REMARK    2  A    between atoms: C_2  and  C_3
REMARK    3  A    between atoms: C_3  and  N_4
REMARK    4  A    between atoms: N_4  and  C_5
REMARK    5  A    between atoms: C_5  and  C_6
REMARK    6  A    between atoms: C_6  and  N_7
REMARK    7  A    between atoms: C_6  and  C_29
REMARK    8  A    between atoms: N_7  and  C_8
REMARK    9  A    between atoms: C_8  and  C_9
REMARK   10  A    between atoms: C_12  and  C_13
REMARK   11  A    between atoms: C_13  and  N_14
REMARK   12  A    between atoms: C_15  and  C_17
REMARK                            x       y       z     vdW  Elec       q    Type
REMARK                         _______ _______ _______ _____ _____    ______ ____
ROOT
ATOM      1  C   UNL     1      47.164   4.535  15.170  0.00  0.00    +0.000 A 
ATOM      2  C   UNL     1      47.958   5.647  15.434  0.00  0.00    +0.000 A 
ATOM      3  C   UNL     1      48.542   5.782  16.692  0.00  0.00    +0.000 A 
ATOM      4  C   UNL     1      48.313   4.807  17.666  0.00  0.00    +0.000 A 
ATOM      5  C   UNL     1      47.457   3.764  17.335  0.00  0.00    +0.000 A 
ATOM      6  N   UNL     1      46.883   3.608  16.123  0.00  0.00    +0.000 NA
ENDROOT
BRANCH   1   7
ATOM      7  C   UNL     1      46.564   4.317  13.789  0.00  0.00    +0.000 C 
BRANCH   7   8
ATOM      8  N   UNL     1      47.041   5.305  12.803  0.00  0.00    +0.000 NA
ATOM      9  H   UNL     1      47.587   6.016  13.284  0.00  0.00    +0.000 HD
BRANCH   8  10
ATOM     10  C   UNL     1      45.941   6.011  12.102  0.00  0.00    +0.000 C 
BRANCH  10  11
ATOM     11  C   UNL     1      46.103   7.532  12.088  0.00  0.00    +0.000 A 
ATOM     12  C   UNL     1      47.355   8.108  12.266  0.00  0.00    +0.000 A 
ATOM     13  C   UNL     1      47.469   9.495  12.203  0.00  0.00    +0.000 A 
ATOM     14  C   UNL     1      46.339  10.265  11.946  0.00  0.00    +0.000 A 
ATOM     15  C   UNL     1      45.133   9.616  11.767  0.00  0.00    +0.000 A 
ATOM     16  N   UNL     1      44.993   8.279  11.836  0.00  0.00    +0.000 NA
ENDBRANCH  10  11
BRANCH  10  17
ATOM     17  C   UNL     1      45.670   5.502  10.655  0.00  0.00    +0.000 C 
BRANCH  17  18
ATOM     18  N   UNL     1      44.259   5.603  10.215  0.00  0.00    +0.000 NA
ATOM     19  H   UNL     1      43.937   6.542  10.466  0.00  0.00    +0.000 HD
BRANCH  18  20
ATOM     20  C   UNL     1      43.424   4.689  11.025  0.00  0.00    +0.000 C 
BRANCH  20  21
ATOM     21  C   UNL     1      42.343   5.437  11.839  0.00  0.00    +0.000 C 
BRANCH  21  22
ATOM     22  N   UNL     1      42.649   5.394  13.275  0.00  0.00    +0.000 NA
ATOM     23  H   UNL     1      41.938   4.836  13.747  0.00  0.00    +0.000 HD
ATOM     24  H   UNL     1      42.569   6.338  13.653  0.00  0.00    +0.000 HD
ENDBRANCH  21  22
ENDBRANCH  20  21
ENDBRANCH  18  20
ENDBRANCH  17  18
ENDBRANCH  10  17
ENDBRANCH   8  10
ENDBRANCH   7   8
ENDBRANCH   1   7
BRANCH   4  25
ATOM     25  C   UNL     1      48.933   4.879  19.027  0.00  0.00    +0.000 C 
BRANCH  25  26
ATOM     26  N   UNL     1      50.127   4.078  19.102  0.00  0.00    +0.000 N 
ATOM     27  C   UNL     1      51.358   4.619  18.834  0.00  0.00    +0.000 C 
ATOM     28  O   UNL     1      51.498   5.808  18.560  0.00  0.00    +0.000 OA
ATOM     29  H   UNL     1      50.014   3.068  19.095  0.00  0.00    +0.000 HD
BRANCH  27  30
ATOM     30  C   UNL     1      52.509   3.718  18.954  0.00  0.00    +0.000 A 
ATOM     31  C   UNL     1      53.601   4.100  19.721  0.00  0.00    +0.000 A 
ATOM     32  S   UNL     1      54.832   2.922  19.793  0.00  0.00    +0.000 S 
ATOM     33  C   UNL     1      53.968   1.878  18.762  0.00  0.00    +0.000 A 
ATOM     34  N   UNL     1      54.484   0.676  18.394  0.00  0.00    +0.000 NA
ATOM     35  C   UNL     1      53.735  -0.001  17.588  0.00  0.00    +0.000 A 
ATOM     36  N   UNL     1      52.513   0.413  17.124  0.00  0.00    +0.000 N 
ATOM     37  C   UNL     1      51.937   1.605  17.496  0.00  0.00    +0.000 A 
ATOM     38  O   UNL     1      50.820   1.923  17.107  0.00  0.00    +0.000 OA
ATOM     39  C   UNL     1      52.749   2.412  18.387  0.00  0.00    +0.000 A 
ATOM     40  H   UNL     1      51.968  -0.174  16.505  0.00  0.00    +0.000 HD
ENDBRANCH  27  30
ENDBRANCH  25  26
ENDBRANCH   4  25
TORSDOF 12
ENDMDL
MODEL 7
REMARK VINA RESULT:    -6.279      3.473      8.269
REMARK INTER + INTRA:         -12.549
REMARK INTER:                 -10.004
REMARK INTRA:                  -2.545
REMARK UNBOUND:                -2.048
REMARK  Name = 
REMARK  12 active torsions:
REMARK  status: ('A' for Active; 'I' for Inactive)
REMARK    1  A    between atoms: N_1  and  C_2
REMARK    2  A    between atoms: C_2  and  C_3
REMARK    3  A    between atoms: C_3  and  N_4
REMARK    4  A    between atoms: N_4  and  C_5
REMARK    5  A    between atoms: C_5  and  C_6
REMARK    6  A    between atoms: C_6  and  N_7
REMARK    7  A    between atoms: C_6  and  C_29
REMARK    8  A    between atoms: N_7  and  C_8
REMARK    9  A    between atoms: C_8  and  C_9
REMARK   10  A    between atoms: C_12  and  C_13
REMARK   11  A    between atoms: C_13  and  N_14
REMARK   12  A    between atoms: C_15  and  C_17
REMARK                            x       y       z     vdW  Elec       q    Type
REMARK                         _______ _______ _______ _____ _____    ______ ____
ROOT
ATOM      1  C   UNL     1      50.562   7.397  17.404  0.00  0.00    +0.000 A 
ATOM      2  C   UNL     1      50.583   6.903  16.103  0.00  0.00    +0.000 A 
ATOM      3  C   UNL     1      49.800   7.522  15.130  0.00  0.00    +0.000 A 
ATOM      4  C   UNL     1      49.006   8.617  15.477  0.00  0.00    +0.000 A 
ATOM      5  C   UNL     1      48.999   9.002  16.812  0.00  0.00    +0.000 A 
ATOM      6  N   UNL     1      49.751   8.424  17.773  0.00  0.00    +0.000 NA
ENDROOT
BRANCH   1   7
ATOM      7  C   UNL     1      51.453   6.793  18.480  0.00  0.00    +0.000 C 
BRANCH   7   8
ATOM      8  N   UNL     1      50.697   5.967  19.441  0.00  0.00    +0.000 NA
ATOM      9  H   UNL     1      51.102   6.082  20.367  0.00  0.00    +0.000 HD
BRANCH   8  10
ATOM     10  C   UNL     1      50.742   4.518  19.130  0.00  0.00    +0.000 C 
BRANCH  10  11
ATOM     11  C   UNL     1      49.545   4.031  18.311  0.00  0.00    +0.000 A 
ATOM     12  C   UNL     1      48.345   4.732  18.334  0.00  0.00    +0.000 A 
ATOM     13  C   UNL     1      47.292   4.281  17.541  0.00  0.00    +0.000 A 
ATOM     14  C   UNL     1      47.470   3.161  16.736  0.00  0.00    +0.000 A 
ATOM     15  C   UNL     1      48.698   2.529  16.759  0.00  0.00    +0.000 A 
ATOM     16  N   UNL     1      49.728   2.935  17.526  0.00  0.00    +0.000 NA
ENDBRANCH  10  11
BRANCH  10  17
ATOM     17  C   UNL     1      52.064   4.049  18.452  0.00  0.00    +0.000 C 
BRANCH  17  18
ATOM     18  N   UNL     1      52.595   2.759  18.952  0.00  0.00    +0.000 NA
ATOM     19  H   UNL     1      53.276   2.983  19.683  0.00  0.00    +0.000 HD
BRANCH  18  20
ATOM     20  C   UNL     1      53.387   2.108  17.885  0.00  0.00    +0.000 C 
BRANCH  20  21
ATOM     21  C   UNL     1      52.940   0.652  17.618  0.00  0.00    +0.000 C 
BRANCH  21  22
ATOM     22  N   UNL     1      51.543   0.453  18.028  0.00  0.00    +0.000 NA
ATOM     23  H   UNL     1      51.529  -0.058  18.911  0.00  0.00    +0.000 HD
ATOM     24  H   UNL     1      51.086  -0.148  17.343  0.00  0.00    +0.000 HD
ENDBRANCH  21  22
ENDBRANCH  20  21
ENDBRANCH  18  20
ENDBRANCH  17  18
ENDBRANCH  10  17
ENDBRANCH   8  10
ENDBRANCH   7   8
ENDBRANCH   1   7
BRANCH   4  25
ATOM     25  C   UNL     1      48.164   9.342  14.473  0.00  0.00    +0.000 C 
BRANCH  25  26
ATOM     26  N   UNL     1      47.079   8.518  14.006  0.00  0.00    +0.000 N 
ATOM     27  C   UNL     1      47.131   7.913  12.777  0.00  0.00    +0.000 C 
ATOM     28  O   UNL     1      48.112   8.014  12.044  0.00  0.00    +0.000 OA
ATOM     29  H   UNL     1      46.185   8.610  14.479  0.00  0.00    +0.000 HD
BRANCH  27  30
ATOM     30  C   UNL     1      45.979   7.085  12.407  0.00  0.00    +0.000 A 
ATOM     31  C   UNL     1      44.877   7.675  11.803  0.00  0.00    +0.000 A 
ATOM     32  S   UNL     1      43.646   6.568  11.396  0.00  0.00    +0.000 S 
ATOM     33  C   UNL     1      44.523   5.266  12.055  0.00  0.00    +0.000 A 
ATOM     34  N   UNL     1      44.012   4.007  12.051  0.00  0.00    +0.000 NA
ATOM     35  C   UNL     1      44.771   3.122  12.607  0.00  0.00    +0.000 A 
ATOM     36  N   UNL     1      45.999   3.382  13.159  0.00  0.00    +0.000 N 
ATOM     37  C   UNL     1      46.570   4.634  13.155  0.00  0.00    +0.000 A 
ATOM     38  O   UNL     1      47.692   4.825  13.607  0.00  0.00    +0.000 OA
ATOM     39  C   UNL     1      45.747   5.668  12.557  0.00  0.00    +0.000 A 
ATOM     40  H   UNL     1      46.552   2.639  13.566  0.00  0.00    +0.000 HD
ENDBRANCH  27  30
ENDBRANCH  25  26
ENDBRANCH   4  25
TORSDOF 12
ENDMDL
MODEL 8
REMARK VINA RESULT:    -6.260      4.876      6.835
REMARK INTER + INTRA:         -12.517
REMARK INTER:                 -10.309
REMARK INTRA:                  -2.208
REMARK UNBOUND:                -2.048
REMARK  Name = 
REMARK  12 active torsions:
REMARK  status: ('A' for Active; 'I' for Inactive)
REMARK    1  A    between atoms: N_1  and  C_2
REMARK    2  A    between atoms: C_2  and  C_3
REMARK    3  A    between atoms: C_3  and  N_4
REMARK    4  A    between atoms: N_4  and  C_5
REMARK    5  A    between atoms: C_5  and  C_6
REMARK    6  A    between atoms: C_6  and  N_7
REMARK    7  A    between atoms: C_6  and  C_29
REMARK    8  A    between atoms: N_7  and  C_8
REMARK    9  A    between atoms: C_8  and  C_9
REMARK   10  A    between atoms: C_12  and  C_13
REMARK   11  A    between atoms: C_13  and  N_14
REMARK   12  A    between atoms: C_15  and  C_17
REMARK                            x       y       z     vdW  Elec       q    Type
REMARK                         _______ _______ _______ _____ _____    ______ ____
ROOT
ATOM      1  C   UNL     1      46.811   7.579  12.599  0.00  0.00    +0.000 A 
ATOM      2  C   UNL     1      47.426   7.086  11.452  0.00  0.00    +0.000 A 
ATOM      3  C   UNL     1      48.783   7.329  11.251  0.00  0.00    +0.000 A 
ATOM      4  C   UNL     1      49.499   8.069  12.195  0.00  0.00    +0.000 A 
ATOM      5  C   UNL     1      48.790   8.575  13.277  0.00  0.00    +0.000 A 
ATOM      6  N   UNL     1      47.478   8.351  13.499  0.00  0.00    +0.000 NA
ENDROOT
BRANCH   1   7
ATOM      7  C   UNL     1      45.348   7.278  12.889  0.00  0.00    +0.000 C 
BRANCH   7   8
ATOM      8  N   UNL     1      44.633   6.758  11.708  0.00  0.00    +0.000 NA
ATOM      9  H   UNL     1      43.788   7.306  11.566  0.00  0.00    +0.000 HD
BRANCH   8  10
ATOM     10  C   UNL     1      44.208   5.345  11.857  0.00  0.00    +0.000 C 
BRANCH  10  11
ATOM     11  C   UNL     1      44.508   4.485  10.628  0.00  0.00    +0.000 A 
ATOM     12  C   UNL     1      45.330   4.966   9.615  0.00  0.00    +0.000 A 
ATOM     13  C   UNL     1      45.613   4.136   8.533  0.00  0.00    +0.000 A 
ATOM     14  C   UNL     1      45.088   2.849   8.499  0.00  0.00    +0.000 A 
ATOM     15  C   UNL     1      44.290   2.441   9.551  0.00  0.00    +0.000 A 
ATOM     16  N   UNL     1      43.989   3.227  10.602  0.00  0.00    +0.000 NA
ENDBRANCH  10  11
BRANCH  10  17
ATOM     17  C   UNL     1      44.758   4.641  13.133  0.00  0.00    +0.000 C 
BRANCH  17  18
ATOM     18  N   UNL     1      45.741   3.563  12.873  0.00  0.00    +0.000 NA
ATOM     19  H   UNL     1      45.401   2.729  13.360  0.00  0.00    +0.000 HD
BRANCH  18  20
ATOM     20  C   UNL     1      47.019   3.893  13.540  0.00  0.00    +0.000 C 
BRANCH  20  21
ATOM     21  C   UNL     1      46.815   4.581  14.910  0.00  0.00    +0.000 C 
BRANCH  21  22
ATOM     22  N   UNL     1      47.897   5.538  15.179  0.00  0.00    +0.000 NA
ATOM     23  H   UNL     1      48.583   5.480  14.427  0.00  0.00    +0.000 HD
ATOM     24  H   UNL     1      48.381   5.250  16.030  0.00  0.00    +0.000 HD
ENDBRANCH  21  22
ENDBRANCH  20  21
ENDBRANCH  18  20
ENDBRANCH  17  18
ENDBRANCH  10  17
ENDBRANCH   8  10
ENDBRANCH   7   8
ENDBRANCH   1   7
BRANCH   4  25
ATOM     25  C   UNL     1      50.964   8.342  12.050  0.00  0.00    +0.000 C 
BRANCH  25  26
ATOM     26  N   UNL     1      51.419   8.066  10.712  0.00  0.00    +0.000 N 
ATOM     27  C   UNL     1      52.513   8.707  10.193  0.00  0.00    +0.000 C 
ATOM     28  O   UNL     1      53.170   9.508  10.853  0.00  0.00    +0.000 OA
ATOM     29  H   UNL     1      50.770   7.598  10.086  0.00  0.00    +0.000 HD
BRANCH  27  30
ATOM     30  C   UNL     1      52.898   8.341   8.826  0.00  0.00    +0.000 A 
ATOM     31  C   UNL     1      52.895   9.310   7.831  0.00  0.00    +0.000 A 
ATOM     32  S   UNL     1      53.411   8.731   6.312  0.00  0.00    +0.000 S 
ATOM     33  C   UNL     1      53.612   7.153   6.921  0.00  0.00    +0.000 A 
ATOM     34  N   UNL     1      54.022   6.140   6.112  0.00  0.00    +0.000 NA
ATOM     35  C   UNL     1      54.106   4.992   6.698  0.00  0.00    +0.000 A 
ATOM     36  N   UNL     1      53.824   4.768   8.021  0.00  0.00    +0.000 N 
ATOM     37  C   UNL     1      53.438   5.769   8.883  0.00  0.00    +0.000 A 
ATOM     38  O   UNL     1      53.245   5.547  10.072  0.00  0.00    +0.000 OA
ATOM     39  C   UNL     1      53.311   7.076   8.268  0.00  0.00    +0.000 A 
ATOM     40  H   UNL     1      53.925   3.845   8.423  0.00  0.00    +0.000 HD
ENDBRANCH  27  30
ENDBRANCH  25  26
ENDBRANCH   4  25
TORSDOF 12
ENDMDL
MODEL 9
REMARK VINA RESULT:    -6.162      5.638      7.878
REMARK INTER + INTRA:         -12.352
REMARK INTER:                 -11.066
REMARK INTRA:                  -1.287
REMARK UNBOUND:                -2.048
REMARK  Name = 
REMARK  12 active torsions:
REMARK  status: ('A' for Active; 'I' for Inactive)
REMARK    1  A    between atoms: N_1  and  C_2
REMARK    2  A    between atoms: C_2  and  C_3
REMARK    3  A    between atoms: C_3  and  N_4
REMARK    4  A    between atoms: N_4  and  C_5
REMARK    5  A    between atoms: C_5  and  C_6
REMARK    6  A    between atoms: C_6  and  N_7
REMARK    7  A    between atoms: C_6  and  C_29
REMARK    8  A    between atoms: N_7  and  C_8
REMARK    9  A    between atoms: C_8  and  C_9
REMARK   10  A    between atoms: C_12  and  C_13
REMARK   11  A    between atoms: C_13  and  N_14
REMARK   12  A    between atoms: C_15  and  C_17
REMARK                            x       y       z     vdW  Elec       q    Type
REMARK                         _______ _______ _______ _____ _____    ______ ____
ROOT
ATOM      1  C   UNL     1      48.804   3.125  16.635  0.00  0.00    +0.000 A 
ATOM      2  C   UNL     1      49.367   4.149  17.391  0.00  0.00    +0.000 A 
ATOM      3  C   UNL     1      50.637   3.970  17.936  0.00  0.00    +0.000 A 
ATOM      4  C   UNL     1      51.316   2.768  17.724  0.00  0.00    +0.000 A 
ATOM      5  C   UNL     1      50.653   1.779  17.010  0.00  0.00    +0.000 A 
ATOM      6  N   UNL     1      49.425   1.927  16.467  0.00  0.00    +0.000 NA
ENDROOT
BRANCH   1   7
ATOM      7  C   UNL     1      47.450   3.306  15.966  0.00  0.00    +0.000 C 
BRANCH   7   8
ATOM      8  N   UNL     1      47.541   3.301  14.493  0.00  0.00    +0.000 NA
ATOM      9  H   UNL     1      48.480   3.580  14.219  0.00  0.00    +0.000 HD
BRANCH   8  10
ATOM     10  C   UNL     1      46.606   4.252  13.846  0.00  0.00    +0.000 C 
BRANCH  10  11
ATOM     11  C   UNL     1      47.294   5.493  13.274  0.00  0.00    +0.000 A 
ATOM     12  C   UNL     1      46.790   6.119  12.141  0.00  0.00    +0.000 A 
ATOM     13  C   UNL     1      47.421   7.271  11.677  0.00  0.00    +0.000 A 
ATOM     14  C   UNL     1      48.519   7.776  12.363  0.00  0.00    +0.000 A 
ATOM     15  C   UNL     1      48.951   7.103  13.490  0.00  0.00    +0.000 A 
ATOM     16  N   UNL     1      48.369   5.980  13.952  0.00  0.00    +0.000 NA
ENDBRANCH  10  11
BRANCH  10  17
ATOM     17  C   UNL     1      45.694   3.613  12.756  0.00  0.00    +0.000 C 
BRANCH  17  18
ATOM     18  N   UNL     1      44.243   3.664  13.051  0.00  0.00    +0.000 NA
ATOM     19  H   UNL     1      44.053   2.923  13.732  0.00  0.00    +0.000 HD
BRANCH  18  20
ATOM     20  C   UNL     1      43.482   3.270  11.845  0.00  0.00    +0.000 C 
BRANCH  20  21
ATOM     21  C   UNL     1      44.106   3.822  10.542  0.00  0.00    +0.000 C 
BRANCH  21  22
ATOM     22  N   UNL     1      43.472   5.091  10.158  0.00  0.00    +0.000 NA
ATOM     23  H   UNL     1      42.560   4.892   9.746  0.00  0.00    +0.000 HD
ATOM     24  H   UNL     1      44.030   5.523   9.421  0.00  0.00    +0.000 HD
ENDBRANCH  21  22
ENDBRANCH  20  21
ENDBRANCH  18  20
ENDBRANCH  17  18
ENDBRANCH  10  17
ENDBRANCH   8  10
ENDBRANCH   7   8
ENDBRANCH   1   7
BRANCH   4  25
ATOM     25  C   UNL     1      52.694   2.525  18.260  0.00  0.00    +0.000 C 
BRANCH  25  26
ATOM     26  N   UNL     1      53.107   1.163  18.044  0.00  0.00    +0.000 N 
ATOM     27  C   UNL     1      54.277   0.876  17.391  0.00  0.00    +0.000 C 
ATOM     28  O   UNL     1      55.036   1.759  17.000  0.00  0.00    +0.000 OA
ATOM     29  H   UNL     1      52.401   0.439  18.145  0.00  0.00    +0.000 HD
BRANCH  27  30
ATOM     30  C   UNL     1      54.609  -0.544  17.237  0.00  0.00    +0.000 A 
ATOM     31  C   UNL     1      54.704  -1.092  15.964  0.00  0.00    +0.000 A 
ATOM     32  S   UNL     1      55.142  -2.740  15.960  0.00  0.00    +0.000 S 
ATOM     33  C   UNL     1      55.173  -2.792  17.662  0.00  0.00    +0.000 A 
ATOM     34  N   UNL     1      55.465  -3.945  18.320  0.00  0.00    +0.000 NA
ATOM     35  C   UNL     1      55.427  -3.848  19.607  0.00  0.00    +0.000 A 
ATOM     36  N   UNL     1      55.132  -2.700  20.296  0.00  0.00    +0.000 N 
ATOM     37  C   UNL     1      54.865  -1.502  19.672  0.00  0.00    +0.000 A 
ATOM     38  O   UNL     1      54.659  -0.481  20.315  0.00  0.00    +0.000 OA
ATOM     39  C   UNL     1      54.877  -1.564  18.223  0.00  0.00    +0.000 A 
ATOM     40  H   UNL     1      55.135  -2.687  21.307  0.00  0.00    +0.000 HD
ENDBRANCH  27  30
ENDBRANCH  25  26
ENDBRANCH   4  25
TORSDOF 12
ENDMDL
