MODEL 1
REMARK VINA RESULT:    -7.634      0.000      0.000
REMARK INTER + INTRA:         -11.173
REMARK INTER:                 -10.534
REMARK INTRA:                  -0.639
REMARK UNBOUND:                -0.639
REMARK  Name = 
REMARK  7 active torsions:
REMARK  status: ('A' for Active; 'I' for Inactive)
REMARK    1  A    between atoms: N_1  and  C_2
REMARK    2  A    between atoms: C_2  and  C_3
REMARK    3  A    between atoms: C_3  and  C_4
REMARK    4  A    between atoms: C_7  and  O_8
REMARK    5  A    between atoms: O_8  and  C_9
REMARK    6  A    between atoms: C_9  and  C_10
REMARK    7  A    between atoms: C_12  and  C_13
REMARK                            x       y       z     vdW  Elec       q    Type
REMARK                         _______ _______ _______ _____ _____    ______ ____
ROOT
ATOM      1  O   UNL     1      43.535   4.489  10.109  0.00  0.00    +0.000 OA
ENDROOT
BRANCH   1   5
ATOM      2  C   UNL     1      46.169   2.173   7.950  0.00  0.00    +0.000 A 
ATOM      3  C   UNL     1      46.182   3.563   7.805  0.00  0.00    +0.000 A 
ATOM      4  C   UNL     1      45.284   4.339   8.537  0.00  0.00    +0.000 A 
ATOM      5  C   UNL     1      44.424   3.698   9.412  0.00  0.00    +0.000 A 
ATOM      6  N   UNL     1      44.383   2.359   9.578  0.00  0.00    +0.000 NA
ATOM      7  C   UNL     1      45.252   1.631   8.844  0.00  0.00    +0.000 A 
BRANCH   2   8
ATOM      8  C   UNL     1      47.124   1.289   7.195  0.00  0.00    +0.000 C 
BRANCH   8   9
ATOM      9  C   UNL     1      48.322   2.075   6.652  0.00  0.00    +0.000 C 
BRANCH   9  10
ATOM     10  N   UNL     1      48.411   1.952   5.200  0.00  0.00    +0.000 NA
ATOM     11  H   UNL     1      48.165   2.844   4.771  0.00  0.00    +0.000 HD
ATOM     12  H   UNL     1      47.720   1.279   4.867  0.00  0.00    +0.000 HD
ENDBRANCH   9  10
ENDBRANCH   8   9
ENDBRANCH   2   8
ENDBRANCH   1   5
BRANCH   1  13
ATOM     13  C   UNL     1      43.454   4.107  11.485  0.00  0.00    +0.000 C 
BRANCH  13  14
ATOM     14  C   UNL     1      44.672   4.625  12.218  0.00  0.00    +0.000 A 
ATOM     15  C   UNL     1      44.941   5.993  12.241  0.00  0.00    +0.000 A 
ATOM     16  C   UNL     1      46.062   6.460  12.938  0.00  0.00    +0.000 A 
ATOM     17  C   UNL     1      46.874   5.529  13.594  0.00  0.00    +0.000 A 
ATOM     18  C   UNL     1      46.535   4.190  13.524  0.00  0.00    +0.000 A 
ATOM     19  N   UNL     1      45.458   3.723  12.857  0.00  0.00    +0.000 NA
BRANCH  16  20
ATOM     20  C   UNL     1      46.401   7.925  12.986  0.00  0.00    +0.000 C 
ATOM     21  F   UNL     1      46.980   8.391  11.845  0.00  0.00    +0.000 F 
ATOM     22  F   UNL     1      45.304   8.705  13.193  0.00  0.00    +0.000 F 
ATOM     23  F   UNL     1      47.266   8.223  13.995  0.00  0.00    +0.000 F 
ENDBRANCH  16  20
ENDBRANCH  13  14
ENDBRANCH   1  13
TORSDOF 7
ENDMDL
MODEL 2
REMARK VINA RESULT:    -7.533      0.638      1.326
REMARK INTER + INTRA:         -11.034
REMARK INTER:                 -10.523
REMARK INTRA:                  -0.511
REMARK UNBOUND:                -0.639
REMARK  Name = 
REMARK  7 active torsions:
REMARK  status: ('A' for Active; 'I' for Inactive)
REMARK    1  A    between atoms: N_1  and  C_2
REMARK    2  A    between atoms: C_2  and  C_3
REMARK    3  A    between atoms: C_3  and  C_4
REMARK    4  A    between atoms: C_7  and  O_8
REMARK    5  A    between atoms: O_8  and  C_9
REMARK    6  A    between atoms: C_9  and  C_10
REMARK    7  A    between atoms: C_12  and  C_13
REMARK                            x       y       z     vdW  Elec       q    Type
REMARK                         _______ _______ _______ _____ _____    ______ ____
ROOT
ATOM      1  O   UNL     1      43.617   4.691  10.012  0.00  0.00    +0.000 OA
ENDROOT
BRANCH   1   5
ATOM      2  C   UNL     1      46.174   2.240   7.909  0.00  0.00    +0.000 A 
ATOM      3  C   UNL     1      45.280   1.688   8.833  0.00  0.00    +0.000 A 
ATOM      4  C   UNL     1      44.422   2.527   9.542  0.00  0.00    +0.000 A 
ATOM      5  C   UNL     1      44.465   3.885   9.282  0.00  0.00    +0.000 A 
ATOM      6  N   UNL     1      45.314   4.452   8.399  0.00  0.00    +0.000 NA
ATOM      7  C   UNL     1      46.147   3.619   7.737  0.00  0.00    +0.000 A 
BRANCH   2   8
ATOM      8  C   UNL     1      47.113   1.381   7.107  0.00  0.00    +0.000 C 
BRANCH   8   9
ATOM      9  C   UNL     1      48.319   2.175   6.598  0.00  0.00    +0.000 C 
BRANCH   9  10
ATOM     10  N   UNL     1      48.356   2.187   5.138  0.00  0.00    +0.000 NA
ATOM     11  H   UNL     1      49.012   2.902   4.823  0.00  0.00    +0.000 HD
ATOM     12  H   UNL     1      47.444   2.460   4.771  0.00  0.00    +0.000 HD
ENDBRANCH   9  10
ENDBRANCH   8   9
ENDBRANCH   2   8
ENDBRANCH   1   5
BRANCH   1  13
ATOM     13  C   UNL     1      43.469   4.224  11.356  0.00  0.00    +0.000 C 
BRANCH  13  14
ATOM     14  C   UNL     1      44.660   4.674  12.173  0.00  0.00    +0.000 A 
ATOM     15  C   UNL     1      45.010   6.024  12.208  0.00  0.00    +0.000 A 
ATOM     16  C   UNL     1      46.104   6.429  12.982  0.00  0.00    +0.000 A 
ATOM     17  C   UNL     1      46.807   5.457  13.702  0.00  0.00    +0.000 A 
ATOM     18  C   UNL     1      46.392   4.140  13.616  0.00  0.00    +0.000 A 
ATOM     19  N   UNL     1      45.341   3.733  12.874  0.00  0.00    +0.000 NA
BRANCH  16  20
ATOM     20  C   UNL     1      46.527   7.870  13.047  0.00  0.00    +0.000 C 
ATOM     21  F   UNL     1      47.494   8.116  13.974  0.00  0.00    +0.000 F 
ATOM     22  F   UNL     1      47.026   8.319  11.861  0.00  0.00    +0.000 F 
ATOM     23  F   UNL     1      45.493   8.701  13.355  0.00  0.00    +0.000 F 
ENDBRANCH  16  20
ENDBRANCH  13  14
ENDBRANCH   1  13
TORSDOF 7
ENDMDL
MODEL 3
REMARK VINA RESULT:    -7.403      1.843      2.416
REMARK INTER + INTRA:         -10.854
REMARK INTER:                 -10.214
REMARK INTRA:                  -0.640
REMARK UNBOUND:                -0.639
REMARK  Name = 
REMARK  7 active torsions:
REMARK  status: ('A' for Active; 'I' for Inactive)
REMARK    1  A    between atoms: N_1  and  C_2
REMARK    2  A    between atoms: C_2  and  C_3
REMARK    3  A    between atoms: C_3  and  C_4
REMARK    4  A    between atoms: C_7  and  O_8
REMARK    5  A    between atoms: O_8  and  C_9
REMARK    6  A    between atoms: C_9  and  C_10
REMARK    7  A    between atoms: C_12  and  C_13
REMARK                            x       y       z     vdW  Elec       q    Type
REMARK                         _______ _______ _______ _____ _____    ______ ____
ROOT
ATOM      1  O   UNL     1      43.356   4.536   9.919  0.00  0.00    +0.000 OA
ENDROOT
BRANCH   1   5
ATOM      2  C   UNL     1      46.136   2.203   7.971  0.00  0.00    +0.000 A 
ATOM      3  C   UNL     1      46.157   3.592   7.813  0.00  0.00    +0.000 A 
ATOM      4  C   UNL     1      45.210   4.373   8.474  0.00  0.00    +0.000 A 
ATOM      5  C   UNL     1      44.292   3.740   9.293  0.00  0.00    +0.000 A 
ATOM      6  N   UNL     1      44.241   2.402   9.468  0.00  0.00    +0.000 NA
ATOM      7  C   UNL     1      45.159   1.668   8.803  0.00  0.00    +0.000 A 
BRANCH   2   8
ATOM      8  C   UNL     1      47.142   1.314   7.292  0.00  0.00    +0.000 C 
BRANCH   8   9
ATOM      9  C   UNL     1      48.303   2.117   6.696  0.00  0.00    +0.000 C 
BRANCH   9  10
ATOM     10  N   UNL     1      48.380   1.925   5.250  0.00  0.00    +0.000 NA
ATOM     11  H   UNL     1      48.544   2.825   4.800  0.00  0.00    +0.000 HD
ATOM     12  H   UNL     1      47.483   1.592   4.897  0.00  0.00    +0.000 HD
ENDBRANCH   9  10
ENDBRANCH   8   9
ENDBRANCH   2   8
ENDBRANCH   1   5
BRANCH   1  13
ATOM     13  C   UNL     1      43.289   4.269  11.323  0.00  0.00    +0.000 C 
BRANCH  13  14
ATOM     14  C   UNL     1      44.400   5.017  12.026  0.00  0.00    +0.000 A 
ATOM     15  C   UNL     1      45.145   4.384  13.020  0.00  0.00    +0.000 A 
ATOM     16  C   UNL     1      46.182   5.083  13.649  0.00  0.00    +0.000 A 
ATOM     17  C   UNL     1      46.437   6.399  13.250  0.00  0.00    +0.000 A 
ATOM     18  C   UNL     1      45.653   6.952  12.253  0.00  0.00    +0.000 A 
ATOM     19  N   UNL     1      44.650   6.292  11.637  0.00  0.00    +0.000 NA
BRANCH  16  20
ATOM     20  C   UNL     1      47.010   4.449  14.733  0.00  0.00    +0.000 C 
ATOM     21  F   UNL     1      46.354   4.326  15.921  0.00  0.00    +0.000 F 
ATOM     22  F   UNL     1      47.424   3.194  14.404  0.00  0.00    +0.000 F 
ATOM     23  F   UNL     1      48.142   5.157  15.002  0.00  0.00    +0.000 F 
ENDBRANCH  16  20
ENDBRANCH  13  14
ENDBRANCH   1  13
TORSDOF 7
ENDMDL
MODEL 4
REMARK VINA RESULT:    -7.186      1.417      1.998
REMARK INTER + INTRA:         -10.555
REMARK INTER:                  -9.959
REMARK INTRA:                  -0.596
REMARK UNBOUND:                -0.639
REMARK  Name = 
REMARK  7 active torsions:
REMARK  status: ('A' for Active; 'I' for Inactive)
REMARK    1  A    between atoms: N_1  and  C_2
REMARK    2  A    between atoms: C_2  and  C_3
REMARK    3  A    between atoms: C_3  and  C_4
REMARK    4  A    between atoms: C_7  and  O_8
REMARK    5  A    between atoms: O_8  and  C_9
REMARK    6  A    between atoms: C_9  and  C_10
REMARK    7  A    between atoms: C_12  and  C_13
REMARK                            x       y       z     vdW  Elec       q    Type
REMARK                         _______ _______ _______ _____ _____    ______ ____
ROOT
ATOM      1  O   UNL     1      43.204   4.437  10.291  0.00  0.00    +0.000 OA
ENDROOT
BRANCH   1   5
ATOM      2  C   UNL     1      45.994   2.337   8.107  0.00  0.00    +0.000 A 
ATOM      3  C   UNL     1      45.955   3.733   8.031  0.00  0.00    +0.000 A 
ATOM      4  C   UNL     1      45.005   4.434   8.771  0.00  0.00    +0.000 A 
ATOM      5  C   UNL     1      44.145   3.718   9.584  0.00  0.00    +0.000 A 
ATOM      6  N   UNL     1      44.153   2.371   9.682  0.00  0.00    +0.000 NA
ATOM      7  C   UNL     1      45.073   1.715   8.942  0.00  0.00    +0.000 A 
BRANCH   2   8
ATOM      8  C   UNL     1      47.007   1.531   7.340  0.00  0.00    +0.000 C 
BRANCH   8   9
ATOM      9  C   UNL     1      48.052   2.423   6.663  0.00  0.00    +0.000 C 
BRANCH   9  10
ATOM     10  N   UNL     1      48.501   1.834   5.404  0.00  0.00    +0.000 NA
ATOM     11  H   UNL     1      48.065   2.329   4.626  0.00  0.00    +0.000 HD
ATOM     12  H   UNL     1      48.180   0.868   5.339  0.00  0.00    +0.000 HD
ENDBRANCH   9  10
ENDBRANCH   8   9
ENDBRANCH   2   8
ENDBRANCH   1   5
BRANCH   1  13
ATOM     13  C   UNL     1      43.513   4.485  11.687  0.00  0.00    +0.000 C 
BRANCH  13  14
ATOM     14  C   UNL     1      44.430   5.658  11.953  0.00  0.00    +0.000 A 
ATOM     15  C   UNL     1      45.602   5.473  12.687  0.00  0.00    +0.000 A 
ATOM     16  C   UNL     1      46.450   6.564  12.911  0.00  0.00    +0.000 A 
ATOM     17  C   UNL     1      46.090   7.807  12.381  0.00  0.00    +0.000 A 
ATOM     18  C   UNL     1      44.913   7.905  11.661  0.00  0.00    +0.000 A 
ATOM     19  N   UNL     1      44.084   6.864  11.437  0.00  0.00    +0.000 NA
BRANCH  16  20
ATOM     20  C   UNL     1      47.720   6.419  13.703  0.00  0.00    +0.000 C 
ATOM     21  F   UNL     1      48.038   7.523  14.434  0.00  0.00    +0.000 F 
ATOM     22  F   UNL     1      47.664   5.387  14.590  0.00  0.00    +0.000 F 
ATOM     23  F   UNL     1      48.800   6.171  12.911  0.00  0.00    +0.000 F 
ENDBRANCH  16  20
ENDBRANCH  13  14
ENDBRANCH   1  13
TORSDOF 7
ENDMDL
MODEL 5
REMARK VINA RESULT:    -6.782      1.725      2.332
REMARK INTER + INTRA:          -9.998
REMARK INTER:                  -9.433
REMARK INTRA:                  -0.565
REMARK UNBOUND:                -0.639
REMARK  Name = 
REMARK  7 active torsions:
REMARK  status: ('A' for Active; 'I' for Inactive)
REMARK    1  A    between atoms: N_1  and  C_2
REMARK    2  A    between atoms: C_2  and  C_3
REMARK    3  A    between atoms: C_3  and  C_4
REMARK    4  A    between atoms: C_7  and  O_8
REMARK    5  A    between atoms: O_8  and  C_9
REMARK    6  A    between atoms: C_9  and  C_10
REMARK    7  A    between atoms: C_12  and  C_13
REMARK                            x       y       z     vdW  Elec       q    Type
REMARK                         _______ _______ _______ _____ _____    ______ ____
ROOT
ATOM      1  O   UNL     1      43.904   4.945  10.495  0.00  0.00    +0.000 OA
ENDROOT
BRANCH   1   5
ATOM      2  C   UNL     1      46.041   2.435   8.025  0.00  0.00    +0.000 A 
ATOM      3  C   UNL     1      46.160   3.821   7.883  0.00  0.00    +0.000 A 
ATOM      4  C   UNL     1      45.429   4.662   8.722  0.00  0.00    +0.000 A 
ATOM      5  C   UNL     1      44.628   4.088   9.692  0.00  0.00    +0.000 A 
ATOM      6  N   UNL     1      44.488   2.756   9.858  0.00  0.00    +0.000 NA
ATOM      7  C   UNL     1      45.194   1.964   9.022  0.00  0.00    +0.000 A 
BRANCH   2   8
ATOM      8  C   UNL     1      46.815   1.482   7.157  0.00  0.00    +0.000 C 
BRANCH   8   9
ATOM      9  C   UNL     1      48.178   2.054   6.754  0.00  0.00    +0.000 C 
BRANCH   9  10
ATOM     10  N   UNL     1      48.374   1.965   5.310  0.00  0.00    +0.000 NA
ATOM     11  H   UNL     1      48.983   2.724   5.005  0.00  0.00    +0.000 HD
ATOM     12  H   UNL     1      47.484   2.108   4.831  0.00  0.00    +0.000 HD
ENDBRANCH   9  10
ENDBRANCH   8   9
ENDBRANCH   2   8
ENDBRANCH   1   5
BRANCH   1  13
ATOM     13  C   UNL     1      44.408   4.969  11.833  0.00  0.00    +0.000 C 
BRANCH  13  14
ATOM     14  C   UNL     1      45.033   6.319  12.106  0.00  0.00    +0.000 A 
ATOM     15  C   UNL     1      44.492   7.466  11.527  0.00  0.00    +0.000 A 
ATOM     16  C   UNL     1      45.070   8.712  11.802  0.00  0.00    +0.000 A 
ATOM     17  C   UNL     1      46.175   8.759  12.658  0.00  0.00    +0.000 A 
ATOM     18  C   UNL     1      46.648   7.574  13.194  0.00  0.00    +0.000 A 
ATOM     19  N   UNL     1      46.103   6.366  12.938  0.00  0.00    +0.000 NA
BRANCH  16  20
ATOM     20  C   UNL     1      44.529   9.977  11.196  0.00  0.00    +0.000 C 
ATOM     21  F   UNL     1      43.709  10.676  12.029  0.00  0.00    +0.000 F 
ATOM     22  F   UNL     1      45.516  10.843  10.832  0.00  0.00    +0.000 F 
ATOM     23  F   UNL     1      43.804   9.743  10.067  0.00  0.00    +0.000 F 
ENDBRANCH  16  20
ENDBRANCH  13  14
ENDBRANCH   1  13
TORSDOF 7
ENDMDL
MODEL 6
REMARK VINA RESULT:    -6.739      3.239      6.172
REMARK INTER + INTRA:          -9.939
REMARK INTER:                  -9.189
REMARK INTRA:                  -0.750
REMARK UNBOUND:                -0.639
REMARK  Name = 
REMARK  7 active torsions:
REMARK  status: ('A' for Active; 'I' for Inactive)
REMARK    1  A    between atoms: N_1  and  C_2
REMARK    2  A    between atoms: C_2  and  C_3
REMARK    3  A    between atoms: C_3  and  C_4
REMARK    4  A    between atoms: C_7  and  O_8
REMARK    5  A    between atoms: O_8  and  C_9
REMARK    6  A    between atoms: C_9  and  C_10
REMARK    7  A    between atoms: C_12  and  C_13
REMARK                            x       y       z     vdW  Elec       q    Type
REMARK                         _______ _______ _______ _____ _____    ______ ____
ROOT
ATOM      1  O   UNL     1      43.585   5.077  12.071  0.00  0.00    +0.000 OA
ENDROOT
BRANCH   1   5
ATOM      2  C   UNL     1      47.189   6.326  13.625  0.00  0.00    +0.000 A 
ATOM      3  C   UNL     1      46.402   7.215  12.886  0.00  0.00    +0.000 A 
ATOM      4  C   UNL     1      45.186   6.781  12.361  0.00  0.00    +0.000 A 
ATOM      5  C   UNL     1      44.784   5.483  12.618  0.00  0.00    +0.000 A 
ATOM      6  N   UNL     1      45.517   4.598  13.327  0.00  0.00    +0.000 NA
ATOM      7  C   UNL     1      46.699   5.039  13.810  0.00  0.00    +0.000 A 
BRANCH   2   8
ATOM      8  C   UNL     1      48.503   6.745  14.226  0.00  0.00    +0.000 C 
BRANCH   8   9
ATOM      9  C   UNL     1      49.240   7.756  13.342  0.00  0.00    +0.000 C 
BRANCH   9  10
ATOM     10  N   UNL     1      49.955   7.080  12.262  0.00  0.00    +0.000 NA
ATOM     11  H   UNL     1      50.915   7.422  12.228  0.00  0.00    +0.000 HD
ATOM     12  H   UNL     1      49.537   7.324  11.364  0.00  0.00    +0.000 HD
ENDBRANCH   9  10
ENDBRANCH   8   9
ENDBRANCH   2   8
ENDBRANCH   1   5
BRANCH   1  13
ATOM     13  C   UNL     1      43.542   5.311  10.660  0.00  0.00    +0.000 C 
BRANCH  13  14
ATOM     14  C   UNL     1      44.165   4.134   9.941  0.00  0.00    +0.000 A 
ATOM     15  C   UNL     1      45.135   4.351   8.963  0.00  0.00    +0.000 A 
ATOM     16  C   UNL     1      45.716   3.252   8.319  0.00  0.00    +0.000 A 
ATOM     17  C   UNL     1      45.302   1.968   8.687  0.00  0.00    +0.000 A 
ATOM     18  C   UNL     1      44.337   1.840   9.671  0.00  0.00    +0.000 A 
ATOM     19  N   UNL     1      43.767   2.889  10.301  0.00  0.00    +0.000 NA
BRANCH  16  20
ATOM     20  C   UNL     1      46.759   3.431   7.250  0.00  0.00    +0.000 C 
ATOM     21  F   UNL     1      47.773   2.525   7.317  0.00  0.00    +0.000 F 
ATOM     22  F   UNL     1      46.242   3.321   5.995  0.00  0.00    +0.000 F 
ATOM     23  F   UNL     1      47.350   4.658   7.304  0.00  0.00    +0.000 F 
ENDBRANCH  16  20
ENDBRANCH  13  14
ENDBRANCH   1  13
TORSDOF 7
ENDMDL
MODEL 7
REMARK VINA RESULT:    -6.648      3.447      6.715
REMARK INTER + INTRA:          -9.813
REMARK INTER:                  -9.410
REMARK INTRA:                  -0.402
REMARK UNBOUND:                -0.639
REMARK  Name = 
REMARK  7 active torsions:
REMARK  status: ('A' for Active; 'I' for Inactive)
REMARK    1  A    between atoms: N_1  and  C_2
REMARK    2  A    between atoms: C_2  and  C_3
REMARK    3  A    between atoms: C_3  and  C_4
REMARK    4  A    between atoms: C_7  and  O_8
REMARK    5  A    between atoms: O_8  and  C_9
REMARK    6  A    between atoms: C_9  and  C_10
REMARK    7  A    between atoms: C_12  and  C_13
REMARK                            x       y       z     vdW  Elec       q    Type
REMARK                         _______ _______ _______ _____ _____    ______ ____
ROOT
ATOM      1  O   UNL     1      45.474   6.198  11.008  0.00  0.00    +0.000 OA
ENDROOT
BRANCH   1   5
ATOM      2  C   UNL     1      47.259   5.253  14.598  0.00  0.00    +0.000 A 
ATOM      3  C   UNL     1      47.787   6.276  13.804  0.00  0.00    +0.000 A 
ATOM      4  C   UNL     1      47.177   6.586  12.588  0.00  0.00    +0.000 A 
ATOM      5  C   UNL     1      46.044   5.881  12.223  0.00  0.00    +0.000 A 
ATOM      6  N   UNL     1      45.507   4.888  12.963  0.00  0.00    +0.000 NA
ATOM      7  C   UNL     1      46.126   4.597  14.128  0.00  0.00    +0.000 A 
BRANCH   2   8
ATOM      8  C   UNL     1      47.868   4.886  15.923  0.00  0.00    +0.000 C 
BRANCH   8   9
ATOM      9  C   UNL     1      47.598   3.424  16.291  0.00  0.00    +0.000 C 
BRANCH   9  10
ATOM     10  N   UNL     1      46.724   3.334  17.458  0.00  0.00    +0.000 NA
ATOM     11  H   UNL     1      46.181   4.193  17.540  0.00  0.00    +0.000 HD
ATOM     12  H   UNL     1      47.286   3.273  18.308  0.00  0.00    +0.000 HD
ENDBRANCH   9  10
ENDBRANCH   8   9
ENDBRANCH   2   8
ENDBRANCH   1   5
BRANCH   1  13
ATOM     13  C   UNL     1      44.265   5.466  10.785  0.00  0.00    +0.000 C 
BRANCH  13  14
ATOM     14  C   UNL     1      44.574   4.231   9.968  0.00  0.00    +0.000 A 
ATOM     15  C   UNL     1      45.491   4.301   8.920  0.00  0.00    +0.000 A 
ATOM     16  C   UNL     1      45.781   3.146   8.184  0.00  0.00    +0.000 A 
ATOM     17  C   UNL     1      45.139   1.954   8.534  0.00  0.00    +0.000 A 
ATOM     18  C   UNL     1      44.246   1.969   9.591  0.00  0.00    +0.000 A 
ATOM     19  N   UNL     1      43.955   3.073  10.310  0.00  0.00    +0.000 NA
BRANCH  16  20
ATOM     20  C   UNL     1      46.755   3.171   7.038  0.00  0.00    +0.000 C 
ATOM     21  F   UNL     1      46.207   2.807   5.846  0.00  0.00    +0.000 F 
ATOM     22  F   UNL     1      47.292   4.407   6.839  0.00  0.00    +0.000 F 
ATOM     23  F   UNL     1      47.810   2.334   7.237  0.00  0.00    +0.000 F 
ENDBRANCH  16  20
ENDBRANCH  13  14
ENDBRANCH   1  13
TORSDOF 7
ENDMDL
MODEL 8
REMARK VINA RESULT:    -6.185      3.789      5.051
REMARK INTER + INTRA:          -9.174
REMARK INTER:                  -8.766
REMARK INTRA:                  -0.408
REMARK UNBOUND:                -0.639
REMARK  Name = 
REMARK  7 active torsions:
REMARK  status: ('A' for Active; 'I' for Inactive)
REMARK    1  A    between atoms: N_1  and  C_2
REMARK    2  A    between atoms: C_2  and  C_3
REMARK    3  A    between atoms: C_3  and  C_4
REMARK    4  A    between atoms: C_7  and  O_8
REMARK    5  A    between atoms: O_8  and  C_9
REMARK    6  A    between atoms: C_9  and  C_10
REMARK    7  A    between atoms: C_12  and  C_13
REMARK                            x       y       z     vdW  Elec       q    Type
REMARK                         _______ _______ _______ _____ _____    ______ ____
ROOT
ATOM      1  O   UNL     1      45.626   4.325  14.036  0.00  0.00    +0.000 OA
ENDROOT
BRANCH   1   5
ATOM      2  C   UNL     1      44.972   4.232   9.970  0.00  0.00    +0.000 A 
ATOM      3  C   UNL     1      44.836   3.063  10.725  0.00  0.00    +0.000 A 
ATOM      4  C   UNL     1      45.063   3.104  12.101  0.00  0.00    +0.000 A 
ATOM      5  C   UNL     1      45.389   4.319  12.677  0.00  0.00    +0.000 A 
ATOM      6  N   UNL     1      45.529   5.466  11.980  0.00  0.00    +0.000 NA
ATOM      7  C   UNL     1      45.320   5.395  10.647  0.00  0.00    +0.000 A 
BRANCH   2   8
ATOM      8  C   UNL     1      44.726   4.248   8.486  0.00  0.00    +0.000 C 
BRANCH   8   9
ATOM      9  C   UNL     1      45.749   3.396   7.729  0.00  0.00    +0.000 C 
BRANCH   9  10
ATOM     10  N   UNL     1      46.758   4.237   7.092  0.00  0.00    +0.000 NA
ATOM     11  H   UNL     1      46.509   4.381   6.113  0.00  0.00    +0.000 HD
ATOM     12  H   UNL     1      47.657   3.755   7.086  0.00  0.00    +0.000 HD
ENDBRANCH   9  10
ENDBRANCH   8   9
ENDBRANCH   2   8
ENDBRANCH   1   5
BRANCH   1  13
ATOM     13  C   UNL     1      46.872   4.951  14.353  0.00  0.00    +0.000 C 
BRANCH  13  14
ATOM     14  C   UNL     1      47.494   4.248  15.539  0.00  0.00    +0.000 A 
ATOM     15  C   UNL     1      47.610   4.912  16.760  0.00  0.00    +0.000 A 
ATOM     16  C   UNL     1      48.172   4.243  17.854  0.00  0.00    +0.000 A 
ATOM     17  C   UNL     1      48.595   2.922  17.681  0.00  0.00    +0.000 A 
ATOM     18  C   UNL     1      48.440   2.334  16.438  0.00  0.00    +0.000 A 
ATOM     19  N   UNL     1      47.901   2.965  15.374  0.00  0.00    +0.000 NA
BRANCH  16  20
ATOM     20  C   UNL     1      48.327   4.918  19.189  0.00  0.00    +0.000 C 
ATOM     21  F   UNL     1      48.591   4.057  20.210  0.00  0.00    +0.000 F 
ATOM     22  F   UNL     1      49.341   5.827  19.197  0.00  0.00    +0.000 F 
ATOM     23  F   UNL     1      47.209   5.603  19.557  0.00  0.00    +0.000 F 
ENDBRANCH  16  20
ENDBRANCH  13  14
ENDBRANCH   1  13
TORSDOF 7
ENDMDL
MODEL 9
REMARK VINA RESULT:    -6.101      4.384      8.027
REMARK INTER + INTRA:          -9.058
REMARK INTER:                  -8.718
REMARK INTRA:                  -0.340
REMARK UNBOUND:                -0.639
REMARK  Name = 
REMARK  7 active torsions:
REMARK  status: ('A' for Active; 'I' for Inactive)
REMARK    1  A    between atoms: N_1  and  C_2
REMARK    2  A    between atoms: C_2  and  C_3
REMARK    3  A    between atoms: C_3  and  C_4
REMARK    4  A    between atoms: C_7  and  O_8
REMARK    5  A    between atoms: O_8  and  C_9
REMARK    6  A    between atoms: C_9  and  C_10
REMARK    7  A    between atoms: C_12  and  C_13
REMARK                            x       y       z     vdW  Elec       q    Type
REMARK                         _______ _______ _______ _____ _____    ______ ____
ROOT
ATOM      1  O   UNL     1      47.085   3.525  14.460  0.00  0.00    +0.000 OA
ENDROOT
BRANCH   1   5
ATOM      2  C   UNL     1      49.238   4.288  17.888  0.00  0.00    +0.000 A 
ATOM      3  C   UNL     1      49.015   2.969  17.483  0.00  0.00    +0.000 A 
ATOM      4  C   UNL     1      48.282   2.721  16.323  0.00  0.00    +0.000 A 
ATOM      5  C   UNL     1      47.822   3.802  15.592  0.00  0.00    +0.000 A 
ATOM      6  N   UNL     1      48.018   5.088  15.952  0.00  0.00    +0.000 NA
ATOM      7  C   UNL     1      48.717   5.300  17.089  0.00  0.00    +0.000 A 
BRANCH   2   8
ATOM      8  C   UNL     1      50.033   4.613  19.122  0.00  0.00    +0.000 C 
BRANCH   8   9
ATOM      9  C   UNL     1      49.130   4.999  20.298  0.00  0.00    +0.000 C 
BRANCH   9  10
ATOM     10  N   UNL     1      48.338   3.856  20.745  0.00  0.00    +0.000 NA
ATOM     11  H   UNL     1      48.755   3.468  21.590  0.00  0.00    +0.000 HD
ATOM     12  H   UNL     1      48.377   3.114  20.045  0.00  0.00    +0.000 HD
ENDBRANCH   9  10
ENDBRANCH   8   9
ENDBRANCH   2   8
ENDBRANCH   1   5
BRANCH   1  13
ATOM     13  C   UNL     1      46.471   4.702  13.928  0.00  0.00    +0.000 C 
BRANCH  13  14
ATOM     14  C   UNL     1      45.466   4.305  12.869  0.00  0.00    +0.000 A 
ATOM     15  C   UNL     1      45.793   4.425  11.519  0.00  0.00    +0.000 A 
ATOM     16  C   UNL     1      44.860   4.036  10.550  0.00  0.00    +0.000 A 
ATOM     17  C   UNL     1      43.627   3.533  10.977  0.00  0.00    +0.000 A 
ATOM     18  C   UNL     1      43.383   3.443  12.336  0.00  0.00    +0.000 A 
ATOM     19  N   UNL     1      44.271   3.813  13.282  0.00  0.00    +0.000 NA
BRANCH  16  20
ATOM     20  C   UNL     1      45.161   4.154   9.082  0.00  0.00    +0.000 C 
ATOM     21  F   UNL     1      44.052   4.303   8.306  0.00  0.00    +0.000 F 
ATOM     22  F   UNL     1      45.959   5.221   8.798  0.00  0.00    +0.000 F 
ATOM     23  F   UNL     1      45.813   3.061   8.597  0.00  0.00    +0.000 F 
ENDBRANCH  16  20
ENDBRANCH  13  14
ENDBRANCH   1  13
TORSDOF 7
ENDMDL
