MODEL 1
REMARK VINA RESULT:    -7.268      0.000      0.000
REMARK INTER + INTRA:         -10.097
REMARK INTER:                  -9.393
REMARK INTRA:                  -0.704
REMARK UNBOUND:                -0.704
REMARK  Name = 
REMARK  7 active torsions:
REMARK  status: ('A' for Active; 'I' for Inactive)
REMARK    1  A    between atoms: C_1  and  O_2
REMARK    2  A    between atoms: O_2  and  C_3
REMARK    3  A    between atoms: C_7  and  C_8
REMARK    4  A    between atoms: C_12  and  C_13
REMARK    5  A    between atoms: C_13  and  N_14
REMARK    6  A    between atoms: C_19  and  O_20
REMARK    7  A    between atoms: O_20  and  C_21
REMARK                            x       y       z     vdW  Elec       q    Type
REMARK                         _______ _______ _______ _____ _____    ______ ____
ROOT
ATOM      1  C   UNL     1      45.887   6.283  11.999  0.00  0.00    +0.000 A 
ATOM      2  C   UNL     1      45.267   7.543  12.077  0.00  0.00    +0.000 A 
ATOM      3  C   UNL     1      45.785   8.562  12.881  0.00  0.00    +0.000 A 
ATOM      4  C   UNL     1      46.917   8.336  13.660  0.00  0.00    +0.000 A 
ATOM      5  C   UNL     1      47.538   7.085  13.643  0.00  0.00    +0.000 A 
ATOM      6  C   UNL     1      47.040   6.089  12.786  0.00  0.00    +0.000 A 
ENDROOT
BRANCH   1  11
ATOM      7  C   UNL     1      45.189   4.134   8.918  0.00  0.00    +0.000 A 
ATOM      8  C   UNL     1      44.468   3.081   9.474  0.00  0.00    +0.000 A 
ATOM      9  C   UNL     1      44.175   3.086  10.835  0.00  0.00    +0.000 A 
ATOM     10  C   UNL     1      44.610   4.138  11.646  0.00  0.00    +0.000 A 
ATOM     11  C   UNL     1      45.363   5.204  11.124  0.00  0.00    +0.000 A 
ATOM     12  C   UNL     1      45.623   5.183   9.741  0.00  0.00    +0.000 A 
BRANCH   7  14
ATOM     13  C   UNL     1      46.564   3.395   7.127  0.00  0.00    +0.000 C 
ATOM     14  O   UNL     1      45.539   4.260   7.600  0.00  0.00    +0.000 OA
ENDBRANCH   7  14
ENDBRANCH   1  11
BRANCH   5  15
ATOM     15  C   UNL     1      48.698   6.784  14.564  0.00  0.00    +0.000 C 
BRANCH  15  16
ATOM     16  N   UNL     1      48.336   7.033  15.952  0.00  0.00    +0.000 N 
ATOM     17  C   UNL     1      48.424   5.877  16.756  0.00  0.00    +0.000 A 
ATOM     18  C   UNL     1      48.096   5.949  18.115  0.00  0.00    +0.000 A 
ATOM     19  N   UNL     1      48.169   4.896  18.969  0.00  0.00    +0.000 NA
ATOM     20  C   UNL     1      48.610   3.746  18.411  0.00  0.00    +0.000 A 
ATOM     21  C   UNL     1      48.953   3.655  17.070  0.00  0.00    +0.000 A 
ATOM     22  N   UNL     1      48.868   4.714  16.229  0.00  0.00    +0.000 NA
ATOM     23  H   UNL     1      47.412   7.443  16.036  0.00  0.00    +0.000 HD
BRANCH  21  24
ATOM     24  O   UNL     1      49.388   2.434  16.604  0.00  0.00    +0.000 OA
ATOM     25  C   UNL     1      50.593   1.995  17.224  0.00  0.00    +0.000 C 
ENDBRANCH  21  24
ENDBRANCH  15  16
ENDBRANCH   5  15
TORSDOF 5
ENDMDL
MODEL 2
REMARK VINA RESULT:    -6.749      1.371      1.850
REMARK INTER + INTRA:          -9.426
REMARK INTER:                  -8.677
REMARK INTRA:                  -0.748
REMARK UNBOUND:                -0.704
REMARK  Name = 
REMARK  7 active torsions:
REMARK  status: ('A' for Active; 'I' for Inactive)
REMARK    1  A    between atoms: C_1  and  O_2
REMARK    2  A    between atoms: O_2  and  C_3
REMARK    3  A    between atoms: C_7  and  C_8
REMARK    4  A    between atoms: C_12  and  C_13
REMARK    5  A    between atoms: C_13  and  N_14
REMARK    6  A    between atoms: C_19  and  O_20
REMARK    7  A    between atoms: O_20  and  C_21
REMARK                            x       y       z     vdW  Elec       q    Type
REMARK                         _______ _______ _______ _____ _____    ______ ____
ROOT
ATOM      1  C   UNL     1      46.856   6.406  12.389  0.00  0.00    +0.000 A 
ATOM      2  C   UNL     1      47.582   7.078  11.390  0.00  0.00    +0.000 A 
ATOM      3  C   UNL     1      48.820   7.669  11.661  0.00  0.00    +0.000 A 
ATOM      4  C   UNL     1      49.347   7.637  12.950  0.00  0.00    +0.000 A 
ATOM      5  C   UNL     1      48.636   7.017  13.980  0.00  0.00    +0.000 A 
ATOM      6  C   UNL     1      47.420   6.378  13.680  0.00  0.00    +0.000 A 
ENDROOT
BRANCH   1  11
ATOM      7  C   UNL     1      44.180   4.223  10.755  0.00  0.00    +0.000 A 
ATOM      8  C   UNL     1      43.110   4.396  11.630  0.00  0.00    +0.000 A 
ATOM      9  C   UNL     1      43.242   5.249  12.723  0.00  0.00    +0.000 A 
ATOM     10  C   UNL     1      44.445   5.921  12.952  0.00  0.00    +0.000 A 
ATOM     11  C   UNL     1      45.555   5.749  12.105  0.00  0.00    +0.000 A 
ATOM     12  C   UNL     1      45.384   4.900  10.995  0.00  0.00    +0.000 A 
BRANCH   7  14
ATOM     13  C   UNL     1      44.726   3.990   8.455  0.00  0.00    +0.000 C 
ATOM     14  O   UNL     1      44.185   3.425   9.643  0.00  0.00    +0.000 OA
ENDBRANCH   7  14
ENDBRANCH   1  11
BRANCH   5  15
ATOM     15  C   UNL     1      49.134   7.070  15.406  0.00  0.00    +0.000 C 
BRANCH  15  16
ATOM     16  N   UNL     1      48.122   6.576  16.328  0.00  0.00    +0.000 N 
ATOM     17  C   UNL     1      48.470   5.337  16.908  0.00  0.00    +0.000 A 
ATOM     18  C   UNL     1      47.593   4.722  17.808  0.00  0.00    +0.000 A 
ATOM     19  N   UNL     1      47.849   3.543  18.431  0.00  0.00    +0.000 NA
ATOM     20  C   UNL     1      49.048   2.995  18.129  0.00  0.00    +0.000 A 
ATOM     21  C   UNL     1      49.938   3.593  17.250  0.00  0.00    +0.000 A 
ATOM     22  N   UNL     1      49.664   4.768  16.632  0.00  0.00    +0.000 NA
ATOM     23  H   UNL     1      47.209   6.509  15.890  0.00  0.00    +0.000 HD
BRANCH  21  24
ATOM     24  O   UNL     1      51.132   2.948  17.011  0.00  0.00    +0.000 OA
ATOM     25  C   UNL     1      51.110   1.574  17.389  0.00  0.00    +0.000 C 
ENDBRANCH  21  24
ENDBRANCH  15  16
ENDBRANCH   5  15
TORSDOF 5
ENDMDL
MODEL 3
REMARK VINA RESULT:    -6.723      1.417      2.139
REMARK INTER + INTRA:          -9.392
REMARK INTER:                  -8.652
REMARK INTRA:                  -0.740
REMARK UNBOUND:                -0.704
REMARK  Name = 
REMARK  7 active torsions:
REMARK  status: ('A' for Active; 'I' for Inactive)
REMARK    1  A    between atoms: C_1  and  O_2
REMARK    2  A    between atoms: O_2  and  C_3
REMARK    3  A    between atoms: C_7  and  C_8
REMARK    4  A    between atoms: C_12  and  C_13
REMARK    5  A    between atoms: C_13  and  N_14
REMARK    6  A    between atoms: C_19  and  O_20
REMARK    7  A    between atoms: O_20  and  C_21
REMARK                            x       y       z     vdW  Elec       q    Type
REMARK                         _______ _______ _______ _____ _____    ______ ____
ROOT
ATOM      1  C   UNL     1      46.075   6.636  11.474  0.00  0.00    +0.000 A 
ATOM      2  C   UNL     1      45.244   7.735  11.756  0.00  0.00    +0.000 A 
ATOM      3  C   UNL     1      45.685   8.797  12.551  0.00  0.00    +0.000 A 
ATOM      4  C   UNL     1      46.957   8.771  13.117  0.00  0.00    +0.000 A 
ATOM      5  C   UNL     1      47.798   7.677  12.896  0.00  0.00    +0.000 A 
ATOM      6  C   UNL     1      47.362   6.644  12.048  0.00  0.00    +0.000 A 
ENDROOT
BRANCH   1  11
ATOM      7  C   UNL     1      44.322   3.462  10.269  0.00  0.00    +0.000 A 
ATOM      8  C   UNL     1      44.674   3.446   8.922  0.00  0.00    +0.000 A 
ATOM      9  C   UNL     1      45.511   4.438   8.414  0.00  0.00    +0.000 A 
ATOM     10  C   UNL     1      45.986   5.454   9.248  0.00  0.00    +0.000 A 
ATOM     11  C   UNL     1      45.628   5.517  10.606  0.00  0.00    +0.000 A 
ATOM     12  C   UNL     1      44.803   4.487  11.096  0.00  0.00    +0.000 A 
BRANCH   7  14
ATOM     13  C   UNL     1      43.363   2.700  12.304  0.00  0.00    +0.000 C 
ATOM     14  O   UNL     1      43.518   2.551  10.899  0.00  0.00    +0.000 OA
ENDBRANCH   7  14
ENDBRANCH   1  11
BRANCH   5  15
ATOM     15  C   UNL     1      49.135   7.576  13.592  0.00  0.00    +0.000 C 
BRANCH  15  16
ATOM     16  N   UNL     1      49.046   8.063  14.961  0.00  0.00    +0.000 N 
ATOM     17  C   UNL     1      48.747   7.040  15.887  0.00  0.00    +0.000 A 
ATOM     18  C   UNL     1      48.614   7.350  17.245  0.00  0.00    +0.000 A 
ATOM     19  N   UNL     1      48.348   6.432  18.210  0.00  0.00    +0.000 NA
ATOM     20  C   UNL     1      48.234   5.162  17.762  0.00  0.00    +0.000 A 
ATOM     21  C   UNL     1      48.374   4.829  16.423  0.00  0.00    +0.000 A 
ATOM     22  N   UNL     1      48.634   5.759  15.472  0.00  0.00    +0.000 NA
ATOM     23  H   UNL     1      48.376   8.819  15.052  0.00  0.00    +0.000 HD
BRANCH  21  24
ATOM     24  O   UNL     1      48.236   3.504  16.076  0.00  0.00    +0.000 OA
ATOM     25  C   UNL     1      48.770   2.611  17.050  0.00  0.00    +0.000 C 
ENDBRANCH  21  24
ENDBRANCH  15  16
ENDBRANCH   5  15
TORSDOF 5
ENDMDL
MODEL 4
REMARK VINA RESULT:    -6.593      3.306      7.685
REMARK INTER + INTRA:          -9.225
REMARK INTER:                  -8.422
REMARK INTRA:                  -0.803
REMARK UNBOUND:                -0.704
REMARK  Name = 
REMARK  7 active torsions:
REMARK  status: ('A' for Active; 'I' for Inactive)
REMARK    1  A    between atoms: C_1  and  O_2
REMARK    2  A    between atoms: O_2  and  C_3
REMARK    3  A    between atoms: C_7  and  C_8
REMARK    4  A    between atoms: C_12  and  C_13
REMARK    5  A    between atoms: C_13  and  N_14
REMARK    6  A    between atoms: C_19  and  O_20
REMARK    7  A    between atoms: O_20  and  C_21
REMARK                            x       y       z     vdW  Elec       q    Type
REMARK                         _______ _______ _______ _____ _____    ______ ____
ROOT
ATOM      1  C   UNL     1      47.915   6.217  14.017  0.00  0.00    +0.000 A 
ATOM      2  C   UNL     1      49.021   6.922  13.510  0.00  0.00    +0.000 A 
ATOM      3  C   UNL     1      48.963   7.581  12.278  0.00  0.00    +0.000 A 
ATOM      4  C   UNL     1      47.809   7.520  11.502  0.00  0.00    +0.000 A 
ATOM      5  C   UNL     1      46.703   6.794  11.950  0.00  0.00    +0.000 A 
ATOM      6  C   UNL     1      46.756   6.185  13.217  0.00  0.00    +0.000 A 
ENDROOT
BRANCH   1  11
ATOM      7  C   UNL     1      48.716   5.452  17.673  0.00  0.00    +0.000 A 
ATOM      8  C   UNL     1      47.938   4.317  17.895  0.00  0.00    +0.000 A 
ATOM      9  C   UNL     1      47.189   3.778  16.851  0.00  0.00    +0.000 A 
ATOM     10  C   UNL     1      47.205   4.378  15.589  0.00  0.00    +0.000 A 
ATOM     11  C   UNL     1      47.956   5.540  15.337  0.00  0.00    +0.000 A 
ATOM     12  C   UNL     1      48.722   6.046  16.404  0.00  0.00    +0.000 A 
BRANCH   7  14
ATOM     13  C   UNL     1      48.842   6.607  19.745  0.00  0.00    +0.000 C 
ATOM     14  O   UNL     1      49.502   6.078  18.602  0.00  0.00    +0.000 OA
ENDBRANCH   7  14
ENDBRANCH   1  11
BRANCH   5  15
ATOM     15  C   UNL     1      45.483   6.621  11.075  0.00  0.00    +0.000 C 
BRANCH  15  16
ATOM     16  N   UNL     1      45.850   6.070   9.778  0.00  0.00    +0.000 N 
ATOM     17  C   UNL     1      45.365   4.760   9.583  0.00  0.00    +0.000 A 
ATOM     18  C   UNL     1      45.644   4.086   8.389  0.00  0.00    +0.000 A 
ATOM     19  N   UNL     1      45.205   2.833   8.105  0.00  0.00    +0.000 NA
ATOM     20  C   UNL     1      44.443   2.270   9.070  0.00  0.00    +0.000 A 
ATOM     21  C   UNL     1      44.142   2.924  10.255  0.00  0.00    +0.000 A 
ATOM     22  N   UNL     1      44.594   4.173  10.526  0.00  0.00    +0.000 NA
ATOM     23  H   UNL     1      46.852   6.095   9.625  0.00  0.00    +0.000 HD
BRANCH  21  24
ATOM     24  O   UNL     1      43.360   2.258  11.172  0.00  0.00    +0.000 OA
ATOM     25  C   UNL     1      43.414   2.831  12.475  0.00  0.00    +0.000 C 
ENDBRANCH  21  24
ENDBRANCH  15  16
ENDBRANCH   5  15
TORSDOF 5
ENDMDL
MODEL 5
REMARK VINA RESULT:    -6.543      1.591      2.198
REMARK INTER + INTRA:          -9.161
REMARK INTER:                  -8.547
REMARK INTRA:                  -0.613
REMARK UNBOUND:                -0.704
REMARK  Name = 
REMARK  7 active torsions:
REMARK  status: ('A' for Active; 'I' for Inactive)
REMARK    1  A    between atoms: C_1  and  O_2
REMARK    2  A    between atoms: O_2  and  C_3
REMARK    3  A    between atoms: C_7  and  C_8
REMARK    4  A    between atoms: C_12  and  C_13
REMARK    5  A    between atoms: C_13  and  N_14
REMARK    6  A    between atoms: C_19  and  O_20
REMARK    7  A    between atoms: O_20  and  C_21
REMARK                            x       y       z     vdW  Elec       q    Type
REMARK                         _______ _______ _______ _____ _____    ______ ____
ROOT
ATOM      1  C   UNL     1      45.629   6.181  11.490  0.00  0.00    +0.000 A 
ATOM      2  C   UNL     1      44.990   7.432  11.426  0.00  0.00    +0.000 A 
ATOM      3  C   UNL     1      45.378   8.493  12.250  0.00  0.00    +0.000 A 
ATOM      4  C   UNL     1      46.392   8.319  13.189  0.00  0.00    +0.000 A 
ATOM      5  C   UNL     1      47.023   7.078  13.314  0.00  0.00    +0.000 A 
ATOM      6  C   UNL     1      46.661   6.039  12.439  0.00  0.00    +0.000 A 
ENDROOT
BRANCH   1  11
ATOM      7  C   UNL     1      45.365   3.915   8.425  0.00  0.00    +0.000 A 
ATOM      8  C   UNL     1      44.618   2.854   8.930  0.00  0.00    +0.000 A 
ATOM      9  C   UNL     1      44.167   2.891  10.248  0.00  0.00    +0.000 A 
ATOM     10  C   UNL     1      44.470   3.981  11.066  0.00  0.00    +0.000 A 
ATOM     11  C   UNL     1      45.246   5.057  10.599  0.00  0.00    +0.000 A 
ATOM     12  C   UNL     1      45.666   5.004   9.256  0.00  0.00    +0.000 A 
BRANCH   7  14
ATOM     13  C   UNL     1      46.885   3.091   6.797  0.00  0.00    +0.000 C 
ATOM     14  O   UNL     1      45.862   4.012   7.154  0.00  0.00    +0.000 OA
ENDBRANCH   7  14
ENDBRANCH   1  11
BRANCH   5  15
ATOM     15  C   UNL     1      48.045   6.836  14.401  0.00  0.00    +0.000 C 
BRANCH  15  16
ATOM     16  N   UNL     1      47.817   5.552  15.049  0.00  0.00    +0.000 N 
ATOM     17  C   UNL     1      48.241   5.536  16.395  0.00  0.00    +0.000 A 
ATOM     18  C   UNL     1      48.102   4.368  17.152  0.00  0.00    +0.000 A 
ATOM     19  N   UNL     1      48.463   4.264  18.458  0.00  0.00    +0.000 NA
ATOM     20  C   UNL     1      48.961   5.399  18.997  0.00  0.00    +0.000 A 
ATOM     21  C   UNL     1      49.095   6.571  18.269  0.00  0.00    +0.000 A 
ATOM     22  N   UNL     1      48.737   6.657  16.965  0.00  0.00    +0.000 NA
ATOM     23  H   UNL     1      48.251   4.788  14.540  0.00  0.00    +0.000 HD
BRANCH  21  24
ATOM     24  O   UNL     1      49.617   7.669  18.916  0.00  0.00    +0.000 OA
ATOM     25  C   UNL     1      48.636   8.656  19.224  0.00  0.00    +0.000 C 
ENDBRANCH  21  24
ENDBRANCH  15  16
ENDBRANCH   5  15
TORSDOF 5
ENDMDL
MODEL 6
REMARK VINA RESULT:    -6.340      1.796      2.362
REMARK INTER + INTRA:          -8.898
REMARK INTER:                  -8.148
REMARK INTRA:                  -0.750
REMARK UNBOUND:                -0.704
REMARK  Name = 
REMARK  7 active torsions:
REMARK  status: ('A' for Active; 'I' for Inactive)
REMARK    1  A    between atoms: C_1  and  O_2
REMARK    2  A    between atoms: O_2  and  C_3
REMARK    3  A    between atoms: C_7  and  C_8
REMARK    4  A    between atoms: C_12  and  C_13
REMARK    5  A    between atoms: C_13  and  N_14
REMARK    6  A    between atoms: C_19  and  O_20
REMARK    7  A    between atoms: O_20  and  C_21
REMARK                            x       y       z     vdW  Elec       q    Type
REMARK                         _______ _______ _______ _____ _____    ______ ____
ROOT
ATOM      1  C   UNL     1      46.766   6.409  12.435  0.00  0.00    +0.000 A 
ATOM      2  C   UNL     1      47.608   6.998  11.475  0.00  0.00    +0.000 A 
ATOM      3  C   UNL     1      48.827   7.583  11.834  0.00  0.00    +0.000 A 
ATOM      4  C   UNL     1      49.218   7.628  13.170  0.00  0.00    +0.000 A 
ATOM      5  C   UNL     1      48.389   7.093  14.159  0.00  0.00    +0.000 A 
ATOM      6  C   UNL     1      47.195   6.457  13.777  0.00  0.00    +0.000 A 
ENDROOT
BRANCH   1  11
ATOM      7  C   UNL     1      44.135   4.442  10.484  0.00  0.00    +0.000 A 
ATOM      8  C   UNL     1      43.082   4.411  11.395  0.00  0.00    +0.000 A 
ATOM      9  C   UNL     1      43.209   5.060  12.621  0.00  0.00    +0.000 A 
ATOM     10  C   UNL     1      44.391   5.730  12.945  0.00  0.00    +0.000 A 
ATOM     11  C   UNL     1      45.485   5.759  12.062  0.00  0.00    +0.000 A 
ATOM     12  C   UNL     1      45.318   5.116  10.820  0.00  0.00    +0.000 A 
BRANCH   7  14
ATOM     13  C   UNL     1      44.575   2.504   9.184  0.00  0.00    +0.000 C 
ATOM     14  O   UNL     1      44.143   3.857   9.247  0.00  0.00    +0.000 OA
ENDBRANCH   7  14
ENDBRANCH   1  11
BRANCH   5  15
ATOM     15  C   UNL     1      48.740   7.232  15.623  0.00  0.00    +0.000 C 
BRANCH  15  16
ATOM     16  N   UNL     1      50.183   7.182  15.817  0.00  0.00    +0.000 N 
ATOM     17  C   UNL     1      50.597   6.044  16.542  0.00  0.00    +0.000 A 
ATOM     18  C   UNL     1      51.954   5.857  16.823  0.00  0.00    +0.000 A 
ATOM     19  N   UNL     1      52.449   4.785  17.496  0.00  0.00    +0.000 NA
ATOM     20  C   UNL     1      51.519   3.877  17.870  0.00  0.00    +0.000 A 
ATOM     21  C   UNL     1      50.170   4.036  17.591  0.00  0.00    +0.000 A 
ATOM     22  N   UNL     1      49.693   5.115  16.924  0.00  0.00    +0.000 NA
ATOM     23  H   UNL     1      50.536   8.023  16.261  0.00  0.00    +0.000 HD
BRANCH  21  24
ATOM     24  O   UNL     1      49.309   3.051  18.021  0.00  0.00    +0.000 OA
ATOM     25  C   UNL     1      48.163   2.906  17.185  0.00  0.00    +0.000 C 
ENDBRANCH  21  24
ENDBRANCH  15  16
ENDBRANCH   5  15
TORSDOF 5
ENDMDL
MODEL 7
REMARK VINA RESULT:    -6.125      1.955      2.207
REMARK INTER + INTRA:          -8.620
REMARK INTER:                  -7.970
REMARK INTRA:                  -0.650
REMARK UNBOUND:                -0.704
REMARK  Name = 
REMARK  7 active torsions:
REMARK  status: ('A' for Active; 'I' for Inactive)
REMARK    1  A    between atoms: C_1  and  O_2
REMARK    2  A    between atoms: O_2  and  C_3
REMARK    3  A    between atoms: C_7  and  C_8
REMARK    4  A    between atoms: C_12  and  C_13
REMARK    5  A    between atoms: C_13  and  N_14
REMARK    6  A    between atoms: C_19  and  O_20
REMARK    7  A    between atoms: O_20  and  C_21
REMARK                            x       y       z     vdW  Elec       q    Type
REMARK                         _______ _______ _______ _____ _____    ______ ____
ROOT
ATOM      1  C   UNL     1      46.451   5.750  12.338  0.00  0.00    +0.000 A 
ATOM      2  C   UNL     1      46.898   6.704  11.407  0.00  0.00    +0.000 A 
ATOM      3  C   UNL     1      47.955   7.571  11.702  0.00  0.00    +0.000 A 
ATOM      4  C   UNL     1      48.568   7.533  12.952  0.00  0.00    +0.000 A 
ATOM      5  C   UNL     1      48.124   6.628  13.920  0.00  0.00    +0.000 A 
ATOM      6  C   UNL     1      47.099   5.724  13.589  0.00  0.00    +0.000 A 
ENDROOT
BRANCH   1  11
ATOM      7  C   UNL     1      44.236   3.258  10.471  0.00  0.00    +0.000 A 
ATOM      8  C   UNL     1      43.322   2.906  11.461  0.00  0.00    +0.000 A 
ATOM      9  C   UNL     1      43.398   3.503  12.717  0.00  0.00    +0.000 A 
ATOM     10  C   UNL     1      44.394   4.445  12.991  0.00  0.00    +0.000 A 
ATOM     11  C   UNL     1      45.350   4.804  12.025  0.00  0.00    +0.000 A 
ATOM     12  C   UNL     1      45.233   4.203  10.757  0.00  0.00    +0.000 A 
BRANCH   7  14
ATOM     13  C   UNL     1      45.469   2.098   8.805  0.00  0.00    +0.000 C 
ATOM     14  O   UNL     1      44.272   2.758   9.198  0.00  0.00    +0.000 OA
ENDBRANCH   7  14
ENDBRANCH   1  11
BRANCH   5  15
ATOM     15  C   UNL     1      48.698   6.647  15.318  0.00  0.00    +0.000 C 
BRANCH  15  16
ATOM     16  N   UNL     1      47.966   5.741  16.192  0.00  0.00    +0.000 N 
ATOM     17  C   UNL     1      48.672   5.432  17.374  0.00  0.00    +0.000 A 
ATOM     18  C   UNL     1      48.106   4.561  18.312  0.00  0.00    +0.000 A 
ATOM     19  N   UNL     1      48.700   4.222  19.485  0.00  0.00    +0.000 NA
ATOM     20  C   UNL     1      49.898   4.810  19.702  0.00  0.00    +0.000 A 
ATOM     21  C   UNL     1      50.471   5.685  18.792  0.00  0.00    +0.000 A 
ATOM     22  N   UNL     1      49.868   6.009  17.622  0.00  0.00    +0.000 NA
ATOM     23  H   UNL     1      47.699   4.886  15.714  0.00  0.00    +0.000 HD
BRANCH  21  24
ATOM     24  O   UNL     1      51.697   6.226  19.111  0.00  0.00    +0.000 OA
ATOM     25  C   UNL     1      52.783   5.338  18.860  0.00  0.00    +0.000 C 
ENDBRANCH  21  24
ENDBRANCH  15  16
ENDBRANCH   5  15
TORSDOF 5
ENDMDL
MODEL 8
REMARK VINA RESULT:    -6.059      2.213      3.429
REMARK INTER + INTRA:          -8.534
REMARK INTER:                  -7.831
REMARK INTRA:                  -0.703
REMARK UNBOUND:                -0.704
REMARK  Name = 
REMARK  7 active torsions:
REMARK  status: ('A' for Active; 'I' for Inactive)
REMARK    1  A    between atoms: C_1  and  O_2
REMARK    2  A    between atoms: O_2  and  C_3
REMARK    3  A    between atoms: C_7  and  C_8
REMARK    4  A    between atoms: C_12  and  C_13
REMARK    5  A    between atoms: C_13  and  N_14
REMARK    6  A    between atoms: C_19  and  O_20
REMARK    7  A    between atoms: O_20  and  C_21
REMARK                            x       y       z     vdW  Elec       q    Type
REMARK                         _______ _______ _______ _____ _____    ______ ____
ROOT
ATOM      1  C   UNL     1      48.188   6.564  13.449  0.00  0.00    +0.000 A 
ATOM      2  C   UNL     1      49.178   7.404  12.908  0.00  0.00    +0.000 A 
ATOM      3  C   UNL     1      50.214   7.913  13.697  0.00  0.00    +0.000 A 
ATOM      4  C   UNL     1      50.266   7.626  15.059  0.00  0.00    +0.000 A 
ATOM      5  C   UNL     1      49.277   6.831  15.644  0.00  0.00    +0.000 A 
ATOM      6  C   UNL     1      48.275   6.279  14.827  0.00  0.00    +0.000 A 
ENDROOT
BRANCH   1  11
ATOM      7  C   UNL     1      45.294   4.361  12.281  0.00  0.00    +0.000 A 
ATOM      8  C   UNL     1      44.946   4.976  11.081  0.00  0.00    +0.000 A 
ATOM      9  C   UNL     1      45.673   6.076  10.631  0.00  0.00    +0.000 A 
ATOM     10  C   UNL     1      46.740   6.571  11.384  0.00  0.00    +0.000 A 
ATOM     11  C   UNL     1      47.101   5.993  12.614  0.00  0.00    +0.000 A 
ATOM     12  C   UNL     1      46.365   4.868  13.030  0.00  0.00    +0.000 A 
BRANCH   7  14
ATOM     13  C   UNL     1      43.462   2.850  12.221  0.00  0.00    +0.000 C 
ATOM     14  O   UNL     1      44.674   3.273  12.834  0.00  0.00    +0.000 OA
ENDBRANCH   7  14
ENDBRANCH   1  11
BRANCH   5  15
ATOM     15  C   UNL     1      49.251   6.601  17.138  0.00  0.00    +0.000 C 
BRANCH  15  16
ATOM     16  N   UNL     1      50.593   6.359  17.649  0.00  0.00    +0.000 N 
ATOM     17  C   UNL     1      50.944   4.993  17.637  0.00  0.00    +0.000 A 
ATOM     18  C   UNL     1      52.199   4.594  18.110  0.00  0.00    +0.000 A 
ATOM     19  N   UNL     1      52.632   3.307  18.119  0.00  0.00    +0.000 NA
ATOM     20  C   UNL     1      51.755   2.413  17.611  0.00  0.00    +0.000 A 
ATOM     21  C   UNL     1      50.511   2.787  17.125  0.00  0.00    +0.000 A 
ATOM     22  N   UNL     1      50.091   4.076  17.129  0.00  0.00    +0.000 NA
ATOM     23  H   UNL     1      50.719   6.741  18.580  0.00  0.00    +0.000 HD
BRANCH  21  24
ATOM     24  O   UNL     1      49.693   1.795  16.632  0.00  0.00    +0.000 OA
ATOM     25  C   UNL     1      48.372   2.248  16.348  0.00  0.00    +0.000 C 
ENDBRANCH  21  24
ENDBRANCH  15  16
ENDBRANCH   5  15
TORSDOF 5
ENDMDL
MODEL 9
REMARK VINA RESULT:    -5.950      1.888      2.552
REMARK INTER + INTRA:          -8.393
REMARK INTER:                  -7.679
REMARK INTRA:                  -0.714
REMARK UNBOUND:                -0.704
REMARK  Name = 
REMARK  7 active torsions:
REMARK  status: ('A' for Active; 'I' for Inactive)
REMARK    1  A    between atoms: C_1  and  O_2
REMARK    2  A    between atoms: O_2  and  C_3
REMARK    3  A    between atoms: C_7  and  C_8
REMARK    4  A    between atoms: C_12  and  C_13
REMARK    5  A    between atoms: C_13  and  N_14
REMARK    6  A    between atoms: C_19  and  O_20
REMARK    7  A    between atoms: O_20  and  C_21
REMARK                            x       y       z     vdW  Elec       q    Type
REMARK                         _______ _______ _______ _____ _____    ______ ____
ROOT
ATOM      1  C   UNL     1      46.791   6.357  12.395  0.00  0.00    +0.000 A 
ATOM      2  C   UNL     1      47.507   7.027  11.388  0.00  0.00    +0.000 A 
ATOM      3  C   UNL     1      48.661   7.761  11.680  0.00  0.00    +0.000 A 
ATOM      4  C   UNL     1      49.108   7.877  12.994  0.00  0.00    +0.000 A 
ATOM      5  C   UNL     1      48.400   7.261  14.029  0.00  0.00    +0.000 A 
ATOM      6  C   UNL     1      47.274   6.479  13.713  0.00  0.00    +0.000 A 
ENDROOT
BRANCH   1  11
ATOM      7  C   UNL     1      44.213   4.259  10.511  0.00  0.00    +0.000 A 
ATOM      8  C   UNL     1      43.340   3.907  11.537  0.00  0.00    +0.000 A 
ATOM      9  C   UNL     1      43.564   4.380  12.828  0.00  0.00    +0.000 A 
ATOM     10  C   UNL     1      44.665   5.197  13.099  0.00  0.00    +0.000 A 
ATOM     11  C   UNL     1      45.582   5.550  12.093  0.00  0.00    +0.000 A 
ATOM     12  C   UNL     1      45.316   5.077  10.794  0.00  0.00    +0.000 A 
BRANCH   7  14
ATOM     13  C   UNL     1      45.263   4.051   8.391  0.00  0.00    +0.000 C 
ATOM     14  O   UNL     1      44.109   3.873   9.202  0.00  0.00    +0.000 OA
ENDBRANCH   7  14
ENDBRANCH   1  11
BRANCH   5  15
ATOM     15  C   UNL     1      48.801   7.467  15.471  0.00  0.00    +0.000 C 
BRANCH  15  16
ATOM     16  N   UNL     1      49.810   6.497  15.872  0.00  0.00    +0.000 N 
ATOM     17  C   UNL     1      49.537   5.911  17.127  0.00  0.00    +0.000 A 
ATOM     18  C   UNL     1      50.421   4.966  17.658  0.00  0.00    +0.000 A 
ATOM     19  N   UNL     1      50.232   4.335  18.846  0.00  0.00    +0.000 NA
ATOM     20  C   UNL     1      49.094   4.676  19.491  0.00  0.00    +0.000 A 
ATOM     21  C   UNL     1      48.197   5.600  18.976  0.00  0.00    +0.000 A 
ATOM     22  N   UNL     1      48.404   6.226  17.792  0.00  0.00    +0.000 NA
ATOM     23  H   UNL     1      50.743   6.897  15.872  0.00  0.00    +0.000 HD
BRANCH  21  24
ATOM     24  O   UNL     1      47.069   5.877  19.717  0.00  0.00    +0.000 OA
ATOM     25  C   UNL     1      47.361   6.295  21.047  0.00  0.00    +0.000 C 
ENDBRANCH  21  24
ENDBRANCH  15  16
ENDBRANCH   5  15
TORSDOF 5
ENDMDL
