MODEL 1
REMARK VINA RESULT:    -9.156      0.000      0.000
REMARK INTER + INTRA:         -12.428
REMARK INTER:                 -11.832
REMARK INTRA:                  -0.596
REMARK UNBOUND:                -0.596
REMARK  Name = 
REMARK  5 active torsions:
REMARK  status: ('A' for Active; 'I' for Inactive)
REMARK    1  A    between atoms: C_2  and  C_4
REMARK    2  A    between atoms: C_7  and  O_8
REMARK    3  A    between atoms: O_8  and  C_9
REMARK    4  A    between atoms: C_9  and  C_10
REMARK    5  A    between atoms: C_15  and  C_16
REMARK                            x       y       z     vdW  Elec       q    Type
REMARK                         _______ _______ _______ _____ _____    ______ ____
ROOT
ATOM      1  C   UNL     1      44.834   4.854  11.955  0.00  0.00    +0.000 A 
ATOM      2  C   UNL     1      45.430   3.851  12.731  0.00  0.00    +0.000 A 
ATOM      3  C   UNL     1      46.605   4.110  13.411  0.00  0.00    +0.000 A 
ATOM      4  F   UNL     1      47.162   3.147  14.156  0.00  0.00    +0.000 F 
ATOM      5  C   UNL     1      47.228   5.343  13.305  0.00  0.00    +0.000 A 
ATOM      6  C   UNL     1      46.704   6.346  12.473  0.00  0.00    +0.000 A 
ATOM      7  C   UNL     1      45.469   6.099  11.841  0.00  0.00    +0.000 A 
ENDROOT
BRANCH   6   8
ATOM      8  C   UNL     1      47.451   7.652  12.187  0.00  0.00    +0.000 C 
ATOM      9  C   UNL     1      48.943   7.545  12.572  0.00  0.00    +0.000 C 
ATOM     10  C   UNL     1      49.131   7.531  14.089  0.00  0.00    +0.000 C 
ATOM     11  C   UNL     1      48.408   8.692  14.774  0.00  0.00    +0.000 C 
ATOM     12  N   UNL     1      47.022   8.853  14.349  0.00  0.00    +0.000 NA
ATOM     13  C   UNL     1      46.883   8.911  12.888  0.00  0.00    +0.000 C 
ATOM     14  H   UNL     1      46.622   9.689  14.772  0.00  0.00    +0.000 HD
ENDBRANCH   6   8
BRANCH   1  15
ATOM     15  C   UNL     1      43.543   4.512  11.257  0.00  0.00    +0.000 C 
BRANCH  15  16
ATOM     16  O   UNL     1      43.604   4.662   9.838  0.00  0.00    +0.000 OA
BRANCH  16  20
ATOM     17  C   UNL     1      46.354   2.284   7.796  0.00  0.00    +0.000 A 
ATOM     18  C   UNL     1      45.470   1.668   8.684  0.00  0.00    +0.000 A 
ATOM     19  C   UNL     1      44.540   2.435   9.384  0.00  0.00    +0.000 A 
ATOM     20  C   UNL     1      44.488   3.821   9.212  0.00  0.00    +0.000 A 
ATOM     21  C   UNL     1      45.391   4.438   8.341  0.00  0.00    +0.000 A 
ATOM     22  C   UNL     1      46.329   3.674   7.640  0.00  0.00    +0.000 A 
BRANCH  17  24
ATOM     23  N   UNL     1      48.424   2.147   6.535  0.00  0.00    +0.000 N 
ATOM     24  C   UNL     1      47.338   1.480   7.029  0.00  0.00    +0.000 C 
ATOM     25  O   UNL     1      47.207   0.275   6.881  0.00  0.00    +0.000 OA
ATOM     26  H   UNL     1      49.140   1.578   6.100  0.00  0.00    +0.000 HD
ATOM     27  H   UNL     1      48.691   3.067   6.856  0.00  0.00    +0.000 HD
ENDBRANCH  17  24
ENDBRANCH  16  20
ENDBRANCH  15  16
ENDBRANCH   1  15
TORSDOF 5
ENDMDL
MODEL 2
REMARK VINA RESULT:    -8.511      2.017      2.807
REMARK INTER + INTRA:         -11.595
REMARK INTER:                 -10.754
REMARK INTRA:                  -0.840
REMARK UNBOUND:                -0.596
REMARK  Name = 
REMARK  5 active torsions:
REMARK  status: ('A' for Active; 'I' for Inactive)
REMARK    1  A    between atoms: C_2  and  C_4
REMARK    2  A    between atoms: C_7  and  O_8
REMARK    3  A    between atoms: O_8  and  C_9
REMARK    4  A    between atoms: C_9  and  C_10
REMARK    5  A    between atoms: C_15  and  C_16
REMARK                            x       y       z     vdW  Elec       q    Type
REMARK                         _______ _______ _______ _____ _____    ______ ____
ROOT
ATOM      1  C   UNL     1      44.898   5.999  11.868  0.00  0.00    +0.000 A 
ATOM      2  C   UNL     1      44.140   7.035  11.306  0.00  0.00    +0.000 A 
ATOM      3  C   UNL     1      44.553   8.346  11.442  0.00  0.00    +0.000 A 
ATOM      4  F   UNL     1      43.826   9.328  10.894  0.00  0.00    +0.000 F 
ATOM      5  C   UNL     1      45.693   8.658  12.165  0.00  0.00    +0.000 A 
ATOM      6  C   UNL     1      46.434   7.654  12.810  0.00  0.00    +0.000 A 
ATOM      7  C   UNL     1      46.046   6.315  12.607  0.00  0.00    +0.000 A 
ENDROOT
BRANCH   6   8
ATOM      8  C   UNL     1      47.591   7.969  13.764  0.00  0.00    +0.000 C 
ATOM      9  C   UNL     1      48.345   9.247  13.335  0.00  0.00    +0.000 C 
ATOM     10  C   UNL     1      49.178   9.009  12.076  0.00  0.00    +0.000 C 
ATOM     11  C   UNL     1      50.083   7.783  12.200  0.00  0.00    +0.000 C 
ATOM     12  N   UNL     1      49.394   6.593  12.689  0.00  0.00    +0.000 NA
ATOM     13  C   UNL     1      48.644   6.844  13.926  0.00  0.00    +0.000 C 
ATOM     14  H   UNL     1      50.063   5.837  12.832  0.00  0.00    +0.000 HD
ENDBRANCH   6   8
BRANCH   1  15
ATOM     15  C   UNL     1      44.401   4.591  11.664  0.00  0.00    +0.000 C 
BRANCH  15  16
ATOM     16  O   UNL     1      43.850   4.363  10.366  0.00  0.00    +0.000 OA
BRANCH  16  20
ATOM     17  C   UNL     1      46.483   2.490   7.730  0.00  0.00    +0.000 A 
ATOM     18  C   UNL     1      46.367   3.881   7.681  0.00  0.00    +0.000 A 
ATOM     19  C   UNL     1      45.493   4.537   8.547  0.00  0.00    +0.000 A 
ATOM     20  C   UNL     1      44.724   3.815   9.462  0.00  0.00    +0.000 A 
ATOM     21  C   UNL     1      44.822   2.420   9.492  0.00  0.00    +0.000 A 
ATOM     22  C   UNL     1      45.694   1.757   8.622  0.00  0.00    +0.000 A 
BRANCH  17  24
ATOM     23  N   UNL     1      48.514   2.480   6.401  0.00  0.00    +0.000 N 
ATOM     24  C   UNL     1      47.421   1.778   6.827  0.00  0.00    +0.000 C 
ATOM     25  O   UNL     1      47.249   0.611   6.512  0.00  0.00    +0.000 OA
ATOM     26  H   UNL     1      49.200   1.960   5.867  0.00  0.00    +0.000 HD
ATOM     27  H   UNL     1      48.818   3.337   6.842  0.00  0.00    +0.000 HD
ENDBRANCH  17  24
ENDBRANCH  16  20
ENDBRANCH  15  16
ENDBRANCH   1  15
TORSDOF 5
ENDMDL
MODEL 3
REMARK VINA RESULT:    -7.887      1.905      2.417
REMARK INTER + INTRA:         -10.788
REMARK INTER:                 -10.006
REMARK INTRA:                  -0.783
REMARK UNBOUND:                -0.596
REMARK  Name = 
REMARK  5 active torsions:
REMARK  status: ('A' for Active; 'I' for Inactive)
REMARK    1  A    between atoms: C_2  and  C_4
REMARK    2  A    between atoms: C_7  and  O_8
REMARK    3  A    between atoms: O_8  and  C_9
REMARK    4  A    between atoms: C_9  and  C_10
REMARK    5  A    between atoms: C_15  and  C_16
REMARK                            x       y       z     vdW  Elec       q    Type
REMARK                         _______ _______ _______ _____ _____    ______ ____
ROOT
ATOM      1  C   UNL     1      45.367   6.207  11.668  0.00  0.00    +0.000 A 
ATOM      2  C   UNL     1      44.437   7.250  11.571  0.00  0.00    +0.000 A 
ATOM      3  C   UNL     1      44.859   8.563  11.654  0.00  0.00    +0.000 A 
ATOM      4  F   UNL     1      43.963   9.553  11.553  0.00  0.00    +0.000 F 
ATOM      5  C   UNL     1      46.193   8.865  11.873  0.00  0.00    +0.000 A 
ATOM      6  C   UNL     1      47.143   7.846  12.054  0.00  0.00    +0.000 A 
ATOM      7  C   UNL     1      46.716   6.512  11.897  0.00  0.00    +0.000 A 
ENDROOT
BRANCH   6   8
ATOM      8  C   UNL     1      48.587   8.132  12.475  0.00  0.00    +0.000 C 
ATOM      9  C   UNL     1      49.127   7.038  13.423  0.00  0.00    +0.000 C 
ATOM     10  C   UNL     1      48.489   7.132  14.808  0.00  0.00    +0.000 C 
ATOM     11  C   UNL     1      48.578   8.542  15.395  0.00  0.00    +0.000 C 
ATOM     12  N   UNL     1      48.151   9.589  14.472  0.00  0.00    +0.000 NA
ATOM     13  C   UNL     1      48.819   9.498  13.168  0.00  0.00    +0.000 C 
ATOM     14  H   UNL     1      48.313  10.506  14.886  0.00  0.00    +0.000 HD
ENDBRANCH   6   8
BRANCH   1  15
ATOM     15  C   UNL     1      44.842   4.800  11.547  0.00  0.00    +0.000 C 
BRANCH  15  16
ATOM     16  O   UNL     1      44.224   4.526  10.289  0.00  0.00    +0.000 OA
BRANCH  16  20
ATOM     17  C   UNL     1      46.701   2.773   7.429  0.00  0.00    +0.000 A 
ATOM     18  C   UNL     1      46.022   1.942   8.322  0.00  0.00    +0.000 A 
ATOM     19  C   UNL     1      45.188   2.497   9.292  0.00  0.00    +0.000 A 
ATOM     20  C   UNL     1      45.030   3.882   9.385  0.00  0.00    +0.000 A 
ATOM     21  C   UNL     1      45.731   4.713   8.506  0.00  0.00    +0.000 A 
ATOM     22  C   UNL     1      46.572   4.162   7.534  0.00  0.00    +0.000 A 
BRANCH  17  24
ATOM     23  N   UNL     1      47.799   2.968   5.273  0.00  0.00    +0.000 N 
ATOM     24  C   UNL     1      47.579   2.197   6.380  0.00  0.00    +0.000 C 
ATOM     25  O   UNL     1      48.111   1.107   6.514  0.00  0.00    +0.000 OA
ATOM     26  H   UNL     1      48.475   2.614   4.607  0.00  0.00    +0.000 HD
ATOM     27  H   UNL     1      47.594   3.957   5.248  0.00  0.00    +0.000 HD
ENDBRANCH  17  24
ENDBRANCH  16  20
ENDBRANCH  15  16
ENDBRANCH   1  15
TORSDOF 5
ENDMDL
MODEL 4
REMARK VINA RESULT:    -7.315      2.087      2.869
REMARK INTER + INTRA:         -10.049
REMARK INTER:                  -9.154
REMARK INTRA:                  -0.895
REMARK UNBOUND:                -0.596
REMARK  Name = 
REMARK  5 active torsions:
REMARK  status: ('A' for Active; 'I' for Inactive)
REMARK    1  A    between atoms: C_2  and  C_4
REMARK    2  A    between atoms: C_7  and  O_8
REMARK    3  A    between atoms: O_8  and  C_9
REMARK    4  A    between atoms: C_9  and  C_10
REMARK    5  A    between atoms: C_15  and  C_16
REMARK                            x       y       z     vdW  Elec       q    Type
REMARK                         _______ _______ _______ _____ _____    ______ ____
ROOT
ATOM      1  C   UNL     1      44.919   4.165  12.478  0.00  0.00    +0.000 A 
ATOM      2  C   UNL     1      44.530   5.508  12.395  0.00  0.00    +0.000 A 
ATOM      3  C   UNL     1      45.340   6.496  12.922  0.00  0.00    +0.000 A 
ATOM      4  F   UNL     1      44.963   7.778  12.831  0.00  0.00    +0.000 F 
ATOM      5  C   UNL     1      46.521   6.173  13.572  0.00  0.00    +0.000 A 
ATOM      6  C   UNL     1      46.904   4.832  13.745  0.00  0.00    +0.000 A 
ATOM      7  C   UNL     1      46.110   3.837  13.142  0.00  0.00    +0.000 A 
ENDROOT
BRANCH   6   8
ATOM      8  C   UNL     1      48.101   4.424  14.608  0.00  0.00    +0.000 C 
ATOM      9  C   UNL     1      47.760   3.220  15.514  0.00  0.00    +0.000 C 
ATOM     10  C   UNL     1      46.819   3.623  16.649  0.00  0.00    +0.000 C 
ATOM     11  C   UNL     1      47.328   4.841  17.422  0.00  0.00    +0.000 C 
ATOM     12  N   UNL     1      47.734   5.951  16.566  0.00  0.00    +0.000 NA
ATOM     13  C   UNL     1      48.676   5.538  15.518  0.00  0.00    +0.000 C 
ATOM     14  H   UNL     1      48.142   6.695  17.131  0.00  0.00    +0.000 HD
ENDBRANCH   6   8
BRANCH   1  15
ATOM     15  C   UNL     1      44.000   3.141  11.864  0.00  0.00    +0.000 C 
BRANCH  15  16
ATOM     16  O   UNL     1      43.608   3.455  10.527  0.00  0.00    +0.000 OA
BRANCH  16  20
ATOM     17  C   UNL     1      46.368   2.617   7.515  0.00  0.00    +0.000 A 
ATOM     18  C   UNL     1      45.939   1.572   8.336  0.00  0.00    +0.000 A 
ATOM     19  C   UNL     1      45.020   1.819   9.354  0.00  0.00    +0.000 A 
ATOM     20  C   UNL     1      44.525   3.109   9.567  0.00  0.00    +0.000 A 
ATOM     21  C   UNL     1      44.974   4.158   8.760  0.00  0.00    +0.000 A 
ATOM     22  C   UNL     1      45.900   3.916   7.740  0.00  0.00    +0.000 A 
BRANCH  17  24
ATOM     23  N   UNL     1      47.341   3.270   5.389  0.00  0.00    +0.000 N 
ATOM     24  C   UNL     1      47.333   2.366   6.415  0.00  0.00    +0.000 C 
ATOM     25  O   UNL     1      48.109   1.425   6.444  0.00  0.00    +0.000 OA
ATOM     26  H   UNL     1      48.067   3.150   4.693  0.00  0.00    +0.000 HD
ATOM     27  H   UNL     1      46.909   4.180   5.460  0.00  0.00    +0.000 HD
ENDBRANCH  17  24
ENDBRANCH  16  20
ENDBRANCH  15  16
ENDBRANCH   1  15
TORSDOF 5
ENDMDL
MODEL 5
REMARK VINA RESULT:    -6.902      4.457      6.338
REMARK INTER + INTRA:          -9.515
REMARK INTER:                  -8.552
REMARK INTRA:                  -0.962
REMARK UNBOUND:                -0.596
REMARK  Name = 
REMARK  5 active torsions:
REMARK  status: ('A' for Active; 'I' for Inactive)
REMARK    1  A    between atoms: C_2  and  C_4
REMARK    2  A    between atoms: C_7  and  O_8
REMARK    3  A    between atoms: O_8  and  C_9
REMARK    4  A    between atoms: C_9  and  C_10
REMARK    5  A    between atoms: C_15  and  C_16
REMARK                            x       y       z     vdW  Elec       q    Type
REMARK                         _______ _______ _______ _____ _____    ______ ____
ROOT
ATOM      1  C   UNL     1      48.988   7.636  14.967  0.00  0.00    +0.000 A 
ATOM      2  C   UNL     1      48.450   8.855  15.401  0.00  0.00    +0.000 A 
ATOM      3  C   UNL     1      48.239   9.078  16.748  0.00  0.00    +0.000 A 
ATOM      4  F   UNL     1      47.733  10.249  17.153  0.00  0.00    +0.000 F 
ATOM      5  C   UNL     1      48.516   8.091  17.680  0.00  0.00    +0.000 A 
ATOM      6  C   UNL     1      48.980   6.828  17.277  0.00  0.00    +0.000 A 
ATOM      7  C   UNL     1      49.260   6.635  15.910  0.00  0.00    +0.000 A 
ENDROOT
BRANCH   6   8
ATOM      8  C   UNL     1      49.126   5.655  18.251  0.00  0.00    +0.000 C 
ATOM      9  C   UNL     1      49.535   4.358  17.517  0.00  0.00    +0.000 C 
ATOM     10  C   UNL     1      48.379   3.795  16.690  0.00  0.00    +0.000 C 
ATOM     11  C   UNL     1      47.095   3.650  17.509  0.00  0.00    +0.000 C 
ATOM     12  N   UNL     1      46.750   4.844  18.274  0.00  0.00    +0.000 NA
ATOM     13  C   UNL     1      47.867   5.330  19.093  0.00  0.00    +0.000 C 
ATOM     14  H   UNL     1      45.938   4.658  18.862  0.00  0.00    +0.000 HD
ENDBRANCH   6   8
BRANCH   1  15
ATOM     15  C   UNL     1      49.212   7.469  13.486  0.00  0.00    +0.000 C 
BRANCH  15  16
ATOM     16  O   UNL     1      48.852   6.176  12.996  0.00  0.00    +0.000 OA
BRANCH  16  20
ATOM     17  C   UNL     1      44.724   5.694  12.651  0.00  0.00    +0.000 A 
ATOM     18  C   UNL     1      45.432   4.815  13.473  0.00  0.00    +0.000 A 
ATOM     19  C   UNL     1      46.813   4.948  13.608  0.00  0.00    +0.000 A 
ATOM     20  C   UNL     1      47.501   5.951  12.921  0.00  0.00    +0.000 A 
ATOM     21  C   UNL     1      46.794   6.813  12.078  0.00  0.00    +0.000 A 
ATOM     22  C   UNL     1      45.409   6.682  11.935  0.00  0.00    +0.000 A 
BRANCH  17  24
ATOM     23  N   UNL     1      42.666   6.336  11.536  0.00  0.00    +0.000 N 
ATOM     24  C   UNL     1      43.251   5.577  12.510  0.00  0.00    +0.000 C 
ATOM     25  O   UNL     1      42.598   4.812  13.202  0.00  0.00    +0.000 OA
ATOM     26  H   UNL     1      41.678   6.179  11.378  0.00  0.00    +0.000 HD
ATOM     27  H   UNL     1      43.194   6.768  10.790  0.00  0.00    +0.000 HD
ENDBRANCH  17  24
ENDBRANCH  16  20
ENDBRANCH  15  16
ENDBRANCH   1  15
TORSDOF 5
ENDMDL
MODEL 6
REMARK VINA RESULT:    -6.777      5.398      8.008
REMARK INTER + INTRA:          -9.354
REMARK INTER:                  -8.683
REMARK INTRA:                  -0.671
REMARK UNBOUND:                -0.596
REMARK  Name = 
REMARK  5 active torsions:
REMARK  status: ('A' for Active; 'I' for Inactive)
REMARK    1  A    between atoms: C_2  and  C_4
REMARK    2  A    between atoms: C_7  and  O_8
REMARK    3  A    between atoms: O_8  and  C_9
REMARK    4  A    between atoms: C_9  and  C_10
REMARK    5  A    between atoms: C_15  and  C_16
REMARK                            x       y       z     vdW  Elec       q    Type
REMARK                         _______ _______ _______ _____ _____    ______ ____
ROOT
ATOM      1  C   UNL     1      47.145   4.914  14.909  0.00  0.00    +0.000 A 
ATOM      2  C   UNL     1      47.913   6.001  14.470  0.00  0.00    +0.000 A 
ATOM      3  C   UNL     1      47.681   6.554  13.225  0.00  0.00    +0.000 A 
ATOM      4  F   UNL     1      48.415   7.597  12.818  0.00  0.00    +0.000 F 
ATOM      5  C   UNL     1      46.720   6.020  12.382  0.00  0.00    +0.000 A 
ATOM      6  C   UNL     1      45.986   4.882  12.754  0.00  0.00    +0.000 A 
ATOM      7  C   UNL     1      46.178   4.369  14.052  0.00  0.00    +0.000 A 
ENDROOT
BRANCH   6   8
ATOM      8  C   UNL     1      45.047   4.154  11.787  0.00  0.00    +0.000 C 
ATOM      9  C   UNL     1      44.569   5.089  10.654  0.00  0.00    +0.000 C 
ATOM     10  C   UNL     1      43.569   6.125  11.167  0.00  0.00    +0.000 C 
ATOM     11  C   UNL     1      42.422   5.487  11.953  0.00  0.00    +0.000 C 
ATOM     12  N   UNL     1      42.865   4.536  12.968  0.00  0.00    +0.000 NA
ATOM     13  C   UNL     1      43.786   3.526  12.430  0.00  0.00    +0.000 C 
ATOM     14  H   UNL     1      42.059   4.083  13.396  0.00  0.00    +0.000 HD
ENDBRANCH   6   8
BRANCH   1  15
ATOM     15  C   UNL     1      47.436   4.375  16.286  0.00  0.00    +0.000 C 
BRANCH  15  16
ATOM     16  O   UNL     1      48.528   5.027  16.936  0.00  0.00    +0.000 OA
BRANCH  16  20
ATOM     17  C   UNL     1      51.689   2.403  17.650  0.00  0.00    +0.000 A 
ATOM     18  C   UNL     1      51.940   3.776  17.691  0.00  0.00    +0.000 A 
ATOM     19  C   UNL     1      50.905   4.680  17.454  0.00  0.00    +0.000 A 
ATOM     20  C   UNL     1      49.616   4.225  17.167  0.00  0.00    +0.000 A 
ATOM     21  C   UNL     1      49.373   2.850  17.102  0.00  0.00    +0.000 A 
ATOM     22  C   UNL     1      50.408   1.939  17.335  0.00  0.00    +0.000 A 
BRANCH  17  24
ATOM     23  N   UNL     1      52.403   0.123  18.078  0.00  0.00    +0.000 N 
ATOM     24  C   UNL     1      52.776   1.428  17.918  0.00  0.00    +0.000 C 
ATOM     25  O   UNL     1      53.948   1.766  17.954  0.00  0.00    +0.000 OA
ATOM     26  H   UNL     1      53.154  -0.551  18.161  0.00  0.00    +0.000 HD
ATOM     27  H   UNL     1      51.496  -0.223  17.799  0.00  0.00    +0.000 HD
ENDBRANCH  17  24
ENDBRANCH  16  20
ENDBRANCH  15  16
ENDBRANCH   1  15
TORSDOF 5
ENDMDL
MODEL 7
REMARK VINA RESULT:    -6.697      3.486      5.472
REMARK INTER + INTRA:          -9.250
REMARK INTER:                  -8.529
REMARK INTRA:                  -0.722
REMARK UNBOUND:                -0.596
REMARK  Name = 
REMARK  5 active torsions:
REMARK  status: ('A' for Active; 'I' for Inactive)
REMARK    1  A    between atoms: C_2  and  C_4
REMARK    2  A    between atoms: C_7  and  O_8
REMARK    3  A    between atoms: O_8  and  C_9
REMARK    4  A    between atoms: C_9  and  C_10
REMARK    5  A    between atoms: C_15  and  C_16
REMARK                            x       y       z     vdW  Elec       q    Type
REMARK                         _______ _______ _______ _____ _____    ______ ____
ROOT
ATOM      1  C   UNL     1      48.838   7.149  14.035  0.00  0.00    +0.000 A 
ATOM      2  C   UNL     1      50.087   7.768  14.178  0.00  0.00    +0.000 A 
ATOM      3  C   UNL     1      50.862   7.512  15.293  0.00  0.00    +0.000 A 
ATOM      4  F   UNL     1      52.057   8.103  15.417  0.00  0.00    +0.000 F 
ATOM      5  C   UNL     1      50.402   6.677  16.298  0.00  0.00    +0.000 A 
ATOM      6  C   UNL     1      49.122   6.101  16.228  0.00  0.00    +0.000 A 
ATOM      7  C   UNL     1      48.369   6.310  15.056  0.00  0.00    +0.000 A 
ENDROOT
BRANCH   6   8
ATOM      8  C   UNL     1      48.505   5.322  17.394  0.00  0.00    +0.000 C 
ATOM      9  C   UNL     1      49.593   4.682  18.284  0.00  0.00    +0.000 C 
ATOM     10  C   UNL     1      50.267   3.503  17.584  0.00  0.00    +0.000 C 
ATOM     11  C   UNL     1      49.255   2.492  17.042  0.00  0.00    +0.000 C 
ATOM     12  N   UNL     1      48.175   3.101  16.271  0.00  0.00    +0.000 NA
ATOM     13  C   UNL     1      47.518   4.198  16.993  0.00  0.00    +0.000 C 
ATOM     14  H   UNL     1      47.490   2.392  16.011  0.00  0.00    +0.000 HD
ENDBRANCH   6   8
BRANCH   1  15
ATOM     15  C   UNL     1      48.055   7.455  12.785  0.00  0.00    +0.000 C 
BRANCH  15  16
ATOM     16  O   UNL     1      46.640   7.442  12.979  0.00  0.00    +0.000 OA
BRANCH  16  20
ATOM     17  C   UNL     1      44.667   4.100  11.452  0.00  0.00    +0.000 A 
ATOM     18  C   UNL     1      45.208   5.023  10.555  0.00  0.00    +0.000 A 
ATOM     19  C   UNL     1      45.871   6.152  11.033  0.00  0.00    +0.000 A 
ATOM     20  C   UNL     1      45.995   6.375  12.407  0.00  0.00    +0.000 A 
ATOM     21  C   UNL     1      45.430   5.463  13.303  0.00  0.00    +0.000 A 
ATOM     22  C   UNL     1      44.760   4.331  12.829  0.00  0.00    +0.000 A 
BRANCH  17  24
ATOM     23  N   UNL     1      44.536   2.249   9.888  0.00  0.00    +0.000 N 
ATOM     24  C   UNL     1      43.973   2.884  10.959  0.00  0.00    +0.000 C 
ATOM     25  O   UNL     1      42.974   2.447  11.508  0.00  0.00    +0.000 OA
ATOM     26  H   UNL     1      44.116   1.367   9.618  0.00  0.00    +0.000 HD
ATOM     27  H   UNL     1      45.483   2.427   9.584  0.00  0.00    +0.000 HD
ENDBRANCH  17  24
ENDBRANCH  16  20
ENDBRANCH  15  16
ENDBRANCH   1  15
TORSDOF 5
ENDMDL
MODEL 8
REMARK VINA RESULT:    -6.623      4.930      7.729
REMARK INTER + INTRA:          -9.155
REMARK INTER:                  -8.921
REMARK INTRA:                  -0.234
REMARK UNBOUND:                -0.596
REMARK  Name = 
REMARK  5 active torsions:
REMARK  status: ('A' for Active; 'I' for Inactive)
REMARK    1  A    between atoms: C_2  and  C_4
REMARK    2  A    between atoms: C_7  and  O_8
REMARK    3  A    between atoms: O_8  and  C_9
REMARK    4  A    between atoms: C_9  and  C_10
REMARK    5  A    between atoms: C_15  and  C_16
REMARK                            x       y       z     vdW  Elec       q    Type
REMARK                         _______ _______ _______ _____ _____    ______ ____
ROOT
ATOM      1  C   UNL     1      46.647   5.014  14.014  0.00  0.00    +0.000 A 
ATOM      2  C   UNL     1      47.729   5.839  13.677  0.00  0.00    +0.000 A 
ATOM      3  C   UNL     1      47.673   6.621  12.539  0.00  0.00    +0.000 A 
ATOM      4  F   UNL     1      48.708   7.412  12.229  0.00  0.00    +0.000 F 
ATOM      5  C   UNL     1      46.571   6.572  11.700  0.00  0.00    +0.000 A 
ATOM      6  C   UNL     1      45.503   5.698  11.962  0.00  0.00    +0.000 A 
ATOM      7  C   UNL     1      45.537   4.958  13.161  0.00  0.00    +0.000 A 
ENDROOT
BRANCH   6   8
ATOM      8  C   UNL     1      44.355   5.480  10.972  0.00  0.00    +0.000 C 
ATOM      9  C   UNL     1      43.124   4.854  11.663  0.00  0.00    +0.000 C 
ATOM     10  C   UNL     1      43.368   3.387  12.019  0.00  0.00    +0.000 C 
ATOM     11  C   UNL     1      43.873   2.575  10.825  0.00  0.00    +0.000 C 
ATOM     12  N   UNL     1      44.981   3.205  10.114  0.00  0.00    +0.000 NA
ATOM     13  C   UNL     1      44.695   4.597   9.745  0.00  0.00    +0.000 C 
ATOM     14  H   UNL     1      45.215   2.663   9.284  0.00  0.00    +0.000 HD
ENDBRANCH   6   8
BRANCH   1  15
ATOM     15  C   UNL     1      46.766   4.204  15.280  0.00  0.00    +0.000 C 
BRANCH  15  16
ATOM     16  O   UNL     1      47.543   4.841  16.295  0.00  0.00    +0.000 OA
BRANCH  16  20
ATOM     17  C   UNL     1      50.838   2.543  17.414  0.00  0.00    +0.000 A 
ATOM     18  C   UNL     1      50.908   3.929  17.568  0.00  0.00    +0.000 A 
ATOM     19  C   UNL     1      49.825   4.726  17.201  0.00  0.00    +0.000 A 
ATOM     20  C   UNL     1      48.667   4.151  16.671  0.00  0.00    +0.000 A 
ATOM     21  C   UNL     1      48.609   2.766  16.494  0.00  0.00    +0.000 A 
ATOM     22  C   UNL     1      49.694   1.962  16.856  0.00  0.00    +0.000 A 
BRANCH  17  24
ATOM     23  N   UNL     1      51.693   0.361  18.047  0.00  0.00    +0.000 N 
ATOM     24  C   UNL     1      51.975   1.679  17.817  0.00  0.00    +0.000 C 
ATOM     25  O   UNL     1      53.114   2.112  17.899  0.00  0.00    +0.000 OA
ATOM     26  H   UNL     1      52.487  -0.243  18.224  0.00  0.00    +0.000 HD
ATOM     27  H   UNL     1      50.836  -0.075  17.739  0.00  0.00    +0.000 HD
ENDBRANCH  17  24
ENDBRANCH  16  20
ENDBRANCH  15  16
ENDBRANCH   1  15
TORSDOF 5
ENDMDL
MODEL 9
REMARK VINA RESULT:    -6.281      4.504      6.931
REMARK INTER + INTRA:          -8.713
REMARK INTER:                  -7.822
REMARK INTRA:                  -0.891
REMARK UNBOUND:                -0.596
REMARK  Name = 
REMARK  5 active torsions:
REMARK  status: ('A' for Active; 'I' for Inactive)
REMARK    1  A    between atoms: C_2  and  C_4
REMARK    2  A    between atoms: C_7  and  O_8
REMARK    3  A    between atoms: O_8  and  C_9
REMARK    4  A    between atoms: C_9  and  C_10
REMARK    5  A    between atoms: C_15  and  C_16
REMARK                            x       y       z     vdW  Elec       q    Type
REMARK                         _______ _______ _______ _____ _____    ______ ____
ROOT
ATOM      1  C   UNL     1      46.560   4.974  13.267  0.00  0.00    +0.000 A 
ATOM      2  C   UNL     1      45.234   5.224  12.890  0.00  0.00    +0.000 A 
ATOM      3  C   UNL     1      44.934   6.326  12.111  0.00  0.00    +0.000 A 
ATOM      4  F   UNL     1      43.664   6.552  11.748  0.00  0.00    +0.000 F 
ATOM      5  C   UNL     1      45.925   7.214  11.728  0.00  0.00    +0.000 A 
ATOM      6  C   UNL     1      47.253   7.040  12.155  0.00  0.00    +0.000 A 
ATOM      7  C   UNL     1      47.562   5.877  12.887  0.00  0.00    +0.000 A 
ENDROOT
BRANCH   6   8
ATOM      8  C   UNL     1      48.341   8.089  11.907  0.00  0.00    +0.000 C 
ATOM      9  C   UNL     1      49.583   7.834  12.789  0.00  0.00    +0.000 C 
ATOM     10  C   UNL     1      49.308   8.167  14.255  0.00  0.00    +0.000 C 
ATOM     11  C   UNL     1      48.715   9.566  14.432  0.00  0.00    +0.000 C 
ATOM     12  N   UNL     1      47.595   9.845  13.539  0.00  0.00    +0.000 NA
ATOM     13  C   UNL     1      47.910   9.560  12.134  0.00  0.00    +0.000 C 
ATOM     14  H   UNL     1      47.300  10.815  13.643  0.00  0.00    +0.000 HD
ENDBRANCH   6   8
BRANCH   1  15
ATOM     15  C   UNL     1      46.820   3.744  14.098  0.00  0.00    +0.000 C 
BRANCH  15  16
ATOM     16  O   UNL     1      46.643   3.953  15.500  0.00  0.00    +0.000 OA
BRANCH  16  20
ATOM     17  C   UNL     1      50.179   3.937  17.710  0.00  0.00    +0.000 A 
ATOM     18  C   UNL     1      49.581   2.714  17.400  0.00  0.00    +0.000 A 
ATOM     19  C   UNL     1      48.397   2.685  16.665  0.00  0.00    +0.000 A 
ATOM     20  C   UNL     1      47.796   3.872  16.239  0.00  0.00    +0.000 A 
ATOM     21  C   UNL     1      48.382   5.096  16.573  0.00  0.00    +0.000 A 
ATOM     22  C   UNL     1      49.568   5.132  17.314  0.00  0.00    +0.000 A 
BRANCH  17  24
ATOM     23  N   UNL     1      52.175   2.828  18.533  0.00  0.00    +0.000 N 
ATOM     24  C   UNL     1      51.450   3.985  18.477  0.00  0.00    +0.000 C 
ATOM     25  O   UNL     1      51.849   5.015  18.996  0.00  0.00    +0.000 OA
ATOM     26  H   UNL     1      53.086   2.891  18.971  0.00  0.00    +0.000 HD
ATOM     27  H   UNL     1      52.011   2.050  17.910  0.00  0.00    +0.000 HD
ENDBRANCH  17  24
ENDBRANCH  16  20
ENDBRANCH  15  16
ENDBRANCH   1  15
TORSDOF 5
ENDMDL
