MODEL 1
REMARK VINA RESULT:    -7.718      0.000      0.000
REMARK INTER + INTRA:         -10.853
REMARK INTER:                 -10.651
REMARK INTRA:                  -0.202
REMARK UNBOUND:                -0.202
REMARK  Name = 
REMARK  7 active torsions:
REMARK  status: ('A' for Active; 'I' for Inactive)
REMARK    1  A    between atoms: N_1  and  C_2
REMARK    2  A    between atoms: C_2  and  C_3
REMARK    3  A    between atoms: C_3  and  O_4
REMARK    4  A    between atoms: O_4  and  C_5
REMARK    5  A    between atoms: C_10  and  C_11
REMARK    6  A    between atoms: C_11  and  N_12
REMARK    7  A    between atoms: C_17  and  C_18
REMARK                            x       y       z     vdW  Elec       q    Type
REMARK                         _______ _______ _______ _____ _____    ______ ____
ROOT
ATOM      1  N   UNL     1      44.101   4.256  10.412  0.00  0.00    +0.000 N 
ATOM      2  C   UNL     1      43.901   3.114  11.157  0.00  0.00    +0.000 A 
ATOM      3  C   UNL     1      43.949   2.099  10.227  0.00  0.00    +0.000 A 
ATOM      4  C   UNL     1      44.918   2.497   9.307  0.00  0.00    +0.000 A 
ATOM      5  C   UNL     1      45.839   1.873   8.440  0.00  0.00    +0.000 A 
ATOM      6  C   UNL     1      46.650   2.687   7.640  0.00  0.00    +0.000 A 
ATOM      7  C   UNL     1      46.401   4.054   7.654  0.00  0.00    +0.000 A 
ATOM      8  N   UNL     1      45.532   4.727   8.478  0.00  0.00    +0.000 NA
ATOM      9  C   UNL     1      44.884   3.901   9.327  0.00  0.00    +0.000 A 
ENDROOT
BRANCH   6  10
ATOM     10  C   UNL     1      47.749   1.997   6.856  0.00  0.00    +0.000 C 
ATOM     11  N   UNL     1      48.638   2.776   6.184  0.00  0.00    +0.000 N 
ATOM     12  O   UNL     1      47.884   0.804   6.933  0.00  0.00    +0.000 OA
ATOM     13  H   UNL     1      48.641   3.761   6.082  0.00  0.00    +0.000 HD
ATOM     14  H   UNL     1      49.364   2.263   5.730  0.00  0.00    +0.000 HD
ENDBRANCH   6  10
BRANCH   1  15
ATOM     15  C   UNL     1      43.981   5.604  10.965  0.00  0.00    +0.000 C 
BRANCH  15  21
ATOM     16  C   UNL     1      45.582   7.360  11.938  0.00  0.00    +0.000 A 
ATOM     17  C   UNL     1      46.750   7.612  12.654  0.00  0.00    +0.000 A 
ATOM     18  C   UNL     1      47.464   6.571  13.252  0.00  0.00    +0.000 A 
ATOM     19  C   UNL     1      46.914   5.312  13.175  0.00  0.00    +0.000 A 
ATOM     20  N   UNL     1      45.811   5.000  12.475  0.00  0.00    +0.000 NA
ATOM     21  C   UNL     1      45.130   6.020  11.864  0.00  0.00    +0.000 A 
BRANCH  16  22
ATOM     22  O   UNL     1      44.832   8.324  11.312  0.00  0.00    +0.000 OA
BRANCH  22  23
ATOM     23  C   UNL     1      44.982   9.658  11.821  0.00  0.00    +0.000 C 
BRANCH  23  24
ATOM     24  C   UNL     1      43.927  10.578  11.198  0.00  0.00    +0.000 C 
BRANCH  24  25
ATOM     25  N   UNL     1      42.803  10.743  12.094  0.00  0.00    +0.000 NA
ATOM     26  H   UNL     1      43.117  11.188  12.942  0.00  0.00    +0.000 HD
ATOM     27  H   UNL     1      42.510   9.814  12.445  0.00  0.00    +0.000 HD
ENDBRANCH  24  25
ENDBRANCH  23  24
ENDBRANCH  22  23
ENDBRANCH  16  22
ENDBRANCH  15  21
ENDBRANCH   1  15
TORSDOF 7
ENDMDL
MODEL 2
REMARK VINA RESULT:    -7.495      2.198      3.756
REMARK INTER + INTRA:         -10.545
REMARK INTER:                 -10.324
REMARK INTRA:                  -0.221
REMARK UNBOUND:                -0.202
REMARK  Name = 
REMARK  7 active torsions:
REMARK  status: ('A' for Active; 'I' for Inactive)
REMARK    1  A    between atoms: N_1  and  C_2
REMARK    2  A    between atoms: C_2  and  C_3
REMARK    3  A    between atoms: C_3  and  O_4
REMARK    4  A    between atoms: O_4  and  C_5
REMARK    5  A    between atoms: C_10  and  C_11
REMARK    6  A    between atoms: C_11  and  N_12
REMARK    7  A    between atoms: C_17  and  C_18
REMARK                            x       y       z     vdW  Elec       q    Type
REMARK                         _______ _______ _______ _____ _____    ______ ____
ROOT
ATOM      1  N   UNL     1      44.008   4.508  12.050  0.00  0.00    +0.000 N 
ATOM      2  C   UNL     1      43.724   3.259  12.559  0.00  0.00    +0.000 A 
ATOM      3  C   UNL     1      43.391   2.516  11.449  0.00  0.00    +0.000 A 
ATOM      4  C   UNL     1      44.230   2.981  10.438  0.00  0.00    +0.000 A 
ATOM      5  C   UNL     1      44.826   2.462   9.269  0.00  0.00    +0.000 A 
ATOM      6  C   UNL     1      45.621   3.319   8.497  0.00  0.00    +0.000 A 
ATOM      7  C   UNL     1      45.660   4.660   8.859  0.00  0.00    +0.000 A 
ATOM      8  N   UNL     1      45.116   5.227   9.985  0.00  0.00    +0.000 NA
ATOM      9  C   UNL     1      44.485   4.323  10.763  0.00  0.00    +0.000 A 
ENDROOT
BRANCH   6  10
ATOM     10  C   UNL     1      46.390   2.690   7.352  0.00  0.00    +0.000 C 
ATOM     11  N   UNL     1      46.781   3.494   6.328  0.00  0.00    +0.000 N 
ATOM     12  O   UNL     1      46.737   1.539   7.421  0.00  0.00    +0.000 OA
ATOM     13  H   UNL     1      46.582   4.454   6.188  0.00  0.00    +0.000 HD
ATOM     14  H   UNL     1      47.325   3.030   5.633  0.00  0.00    +0.000 HD
ENDBRANCH   6  10
BRANCH   1  15
ATOM     15  C   UNL     1      44.269   5.675  12.891  0.00  0.00    +0.000 C 
BRANCH  15  21
ATOM     16  C   UNL     1      46.673   5.539  13.784  0.00  0.00    +0.000 A 
ATOM     17  C   UNL     1      47.931   6.134  13.858  0.00  0.00    +0.000 A 
ATOM     18  C   UNL     1      48.225   7.283  13.121  0.00  0.00    +0.000 A 
ATOM     19  C   UNL     1      47.253   7.740  12.262  0.00  0.00    +0.000 A 
ATOM     20  N   UNL     1      46.014   7.232  12.168  0.00  0.00    +0.000 NA
ATOM     21  C   UNL     1      45.718   6.122  12.916  0.00  0.00    +0.000 A 
BRANCH  16  22
ATOM     22  O   UNL     1      46.301   4.419  14.483  0.00  0.00    +0.000 OA
BRANCH  22  23
ATOM     23  C   UNL     1      47.317   3.839  15.316  0.00  0.00    +0.000 C 
BRANCH  23  24
ATOM     24  C   UNL     1      47.062   4.200  16.783  0.00  0.00    +0.000 C 
BRANCH  24  25
ATOM     25  N   UNL     1      46.622   3.037  17.523  0.00  0.00    +0.000 NA
ATOM     26  H   UNL     1      47.191   2.245  17.267  0.00  0.00    +0.000 HD
ATOM     27  H   UNL     1      45.692   2.743  17.173  0.00  0.00    +0.000 HD
ENDBRANCH  24  25
ENDBRANCH  23  24
ENDBRANCH  22  23
ENDBRANCH  16  22
ENDBRANCH  15  21
ENDBRANCH   1  15
TORSDOF 7
ENDMDL
MODEL 3
REMARK VINA RESULT:    -6.904      4.438      7.185
REMARK INTER + INTRA:          -9.729
REMARK INTER:                  -9.177
REMARK INTRA:                  -0.552
REMARK UNBOUND:                -0.202
REMARK  Name = 
REMARK  7 active torsions:
REMARK  status: ('A' for Active; 'I' for Inactive)
REMARK    1  A    between atoms: N_1  and  C_2
REMARK    2  A    between atoms: C_2  and  C_3
REMARK    3  A    between atoms: C_3  and  O_4
REMARK    4  A    between atoms: O_4  and  C_5
REMARK    5  A    between atoms: C_10  and  C_11
REMARK    6  A    between atoms: C_11  and  N_12
REMARK    7  A    between atoms: C_17  and  C_18
REMARK                            x       y       z     vdW  Elec       q    Type
REMARK                         _______ _______ _______ _____ _____    ______ ____
ROOT
ATOM      1  N   UNL     1      47.467   4.749  14.836  0.00  0.00    +0.000 N 
ATOM      2  C   UNL     1      47.811   6.083  14.803  0.00  0.00    +0.000 A 
ATOM      3  C   UNL     1      47.880   6.375  13.459  0.00  0.00    +0.000 A 
ATOM      4  C   UNL     1      46.864   5.623  12.873  0.00  0.00    +0.000 A 
ATOM      5  C   UNL     1      46.020   5.725  11.747  0.00  0.00    +0.000 A 
ATOM      6  C   UNL     1      45.109   4.689  11.508  0.00  0.00    +0.000 A 
ATOM      7  C   UNL     1      45.189   3.562  12.318  0.00  0.00    +0.000 A 
ATOM      8  N   UNL     1      45.975   3.402  13.432  0.00  0.00    +0.000 NA
ATOM      9  C   UNL     1      46.726   4.492  13.695  0.00  0.00    +0.000 A 
ENDROOT
BRANCH   6  10
ATOM     10  C   UNL     1      44.097   4.910  10.401  0.00  0.00    +0.000 C 
ATOM     11  N   UNL     1      44.459   4.583   9.132  0.00  0.00    +0.000 N 
ATOM     12  O   UNL     1      42.975   5.253  10.671  0.00  0.00    +0.000 OA
ATOM     13  H   UNL     1      45.337   4.263   8.804  0.00  0.00    +0.000 HD
ATOM     14  H   UNL     1      43.732   4.706   8.459  0.00  0.00    +0.000 HD
ENDBRANCH   6  10
BRANCH   1  15
ATOM     15  C   UNL     1      47.426   3.963  16.068  0.00  0.00    +0.000 C 
BRANCH  15  21
ATOM     16  C   UNL     1      49.249   4.650  17.740  0.00  0.00    +0.000 A 
ATOM     17  C   UNL     1      49.552   5.216  18.977  0.00  0.00    +0.000 A 
ATOM     18  C   UNL     1      48.553   5.788  19.768  0.00  0.00    +0.000 A 
ATOM     19  C   UNL     1      47.288   5.844  19.232  0.00  0.00    +0.000 A 
ATOM     20  N   UNL     1      46.926   5.291  18.063  0.00  0.00    +0.000 NA
ATOM     21  C   UNL     1      47.904   4.703  17.303  0.00  0.00    +0.000 A 
BRANCH  16  22
ATOM     22  O   UNL     1      50.169   4.059  16.911  0.00  0.00    +0.000 OA
BRANCH  22  23
ATOM     23  C   UNL     1      51.175   3.266  17.561  0.00  0.00    +0.000 C 
BRANCH  23  24
ATOM     24  C   UNL     1      50.955   1.783  17.249  0.00  0.00    +0.000 C 
BRANCH  24  25
ATOM     25  N   UNL     1      50.000   1.625  16.173  0.00  0.00    +0.000 NA
ATOM     26  H   UNL     1      50.421   1.086  15.432  0.00  0.00    +0.000 HD
ATOM     27  H   UNL     1      49.859   2.540  15.708  0.00  0.00    +0.000 HD
ENDBRANCH  24  25
ENDBRANCH  23  24
ENDBRANCH  22  23
ENDBRANCH  16  22
ENDBRANCH  15  21
ENDBRANCH   1  15
TORSDOF 7
ENDMDL
MODEL 4
REMARK VINA RESULT:    -6.849      3.850      7.692
REMARK INTER + INTRA:          -9.653
REMARK INTER:                  -9.109
REMARK INTRA:                  -0.545
REMARK UNBOUND:                -0.202
REMARK  Name = 
REMARK  7 active torsions:
REMARK  status: ('A' for Active; 'I' for Inactive)
REMARK    1  A    between atoms: N_1  and  C_2
REMARK    2  A    between atoms: C_2  and  C_3
REMARK    3  A    between atoms: C_3  and  O_4
REMARK    4  A    between atoms: O_4  and  C_5
REMARK    5  A    between atoms: C_10  and  C_11
REMARK    6  A    between atoms: C_11  and  N_12
REMARK    7  A    between atoms: C_17  and  C_18
REMARK                            x       y       z     vdW  Elec       q    Type
REMARK                         _______ _______ _______ _____ _____    ______ ____
ROOT
ATOM      1  N   UNL     1      46.996   4.837  13.805  0.00  0.00    +0.000 N 
ATOM      2  C   UNL     1      47.888   5.778  13.340  0.00  0.00    +0.000 A 
ATOM      3  C   UNL     1      48.132   6.574  14.437  0.00  0.00    +0.000 A 
ATOM      4  C   UNL     1      48.125   5.703  15.525  0.00  0.00    +0.000 A 
ATOM      5  C   UNL     1      48.733   5.630  16.796  0.00  0.00    +0.000 A 
ATOM      6  C   UNL     1      48.421   4.539  17.617  0.00  0.00    +0.000 A 
ATOM      7  C   UNL     1      47.427   3.671  17.181  0.00  0.00    +0.000 A 
ATOM      8  N   UNL     1      46.805   3.677  15.957  0.00  0.00    +0.000 NA
ATOM      9  C   UNL     1      47.253   4.665  15.155  0.00  0.00    +0.000 A 
ENDROOT
BRANCH   6  10
ATOM     10  C   UNL     1      49.223   4.394  18.895  0.00  0.00    +0.000 C 
ATOM     11  N   UNL     1      48.644   3.748  19.941  0.00  0.00    +0.000 N 
ATOM     12  O   UNL     1      50.375   4.742  18.924  0.00  0.00    +0.000 OA
ATOM     13  H   UNL     1      47.722   3.394  20.013  0.00  0.00    +0.000 HD
ATOM     14  H   UNL     1      49.241   3.642  20.733  0.00  0.00    +0.000 HD
ENDBRANCH   6  10
BRANCH   1  15
ATOM     15  C   UNL     1      46.336   3.862  12.939  0.00  0.00    +0.000 C 
BRANCH  15  21
ATOM     16  C   UNL     1      44.399   3.914  11.253  0.00  0.00    +0.000 A 
ATOM     17  C   UNL     1      43.163   4.454  10.905  0.00  0.00    +0.000 A 
ATOM     18  C   UNL     1      42.484   5.311  11.774  0.00  0.00    +0.000 A 
ATOM     19  C   UNL     1      43.047   5.521  13.011  0.00  0.00    +0.000 A 
ATOM     20  N   UNL     1      44.248   5.056  13.395  0.00  0.00    +0.000 NA
ATOM     21  C   UNL     1      44.926   4.240  12.527  0.00  0.00    +0.000 A 
BRANCH  16  22
ATOM     22  O   UNL     1      45.134   3.077  10.452  0.00  0.00    +0.000 OA
BRANCH  22  23
ATOM     23  C   UNL     1      44.657   2.925   9.107  0.00  0.00    +0.000 C 
BRANCH  23  24
ATOM     24  C   UNL     1      45.640   3.572   8.126  0.00  0.00    +0.000 C 
BRANCH  24  25
ATOM     25  N   UNL     1      45.742   4.994   8.374  0.00  0.00    +0.000 NA
ATOM     26  H   UNL     1      46.269   5.146   9.220  0.00  0.00    +0.000 HD
ATOM     27  H   UNL     1      44.812   5.360   8.642  0.00  0.00    +0.000 HD
ENDBRANCH  24  25
ENDBRANCH  23  24
ENDBRANCH  22  23
ENDBRANCH  16  22
ENDBRANCH  15  21
ENDBRANCH   1  15
TORSDOF 7
ENDMDL
MODEL 5
REMARK VINA RESULT:    -6.704      4.539      7.084
REMARK INTER + INTRA:          -9.453
REMARK INTER:                  -8.682
REMARK INTRA:                  -0.770
REMARK UNBOUND:                -0.202
REMARK  Name = 
REMARK  7 active torsions:
REMARK  status: ('A' for Active; 'I' for Inactive)
REMARK    1  A    between atoms: N_1  and  C_2
REMARK    2  A    between atoms: C_2  and  C_3
REMARK    3  A    between atoms: C_3  and  O_4
REMARK    4  A    between atoms: O_4  and  C_5
REMARK    5  A    between atoms: C_10  and  C_11
REMARK    6  A    between atoms: C_11  and  N_12
REMARK    7  A    between atoms: C_17  and  C_18
REMARK                            x       y       z     vdW  Elec       q    Type
REMARK                         _______ _______ _______ _____ _____    ______ ____
ROOT
ATOM      1  N   UNL     1      48.344   7.224  13.790  0.00  0.00    +0.000 N 
ATOM      2  C   UNL     1      47.759   8.418  13.430  0.00  0.00    +0.000 A 
ATOM      3  C   UNL     1      46.914   8.075  12.398  0.00  0.00    +0.000 A 
ATOM      4  C   UNL     1      46.416   6.819  12.741  0.00  0.00    +0.000 A 
ATOM      5  C   UNL     1      45.238   6.076  12.515  0.00  0.00    +0.000 A 
ATOM      6  C   UNL     1      45.157   4.786  13.053  0.00  0.00    +0.000 A 
ATOM      7  C   UNL     1      46.296   4.270  13.660  0.00  0.00    +0.000 A 
ATOM      8  N   UNL     1      47.466   4.938  13.922  0.00  0.00    +0.000 NA
ATOM      9  C   UNL     1      47.430   6.222  13.509  0.00  0.00    +0.000 A 
ENDROOT
BRANCH   6  10
ATOM     10  C   UNL     1      43.817   4.085  12.948  0.00  0.00    +0.000 C 
ATOM     11  N   UNL     1      43.812   2.765  12.621  0.00  0.00    +0.000 N 
ATOM     12  O   UNL     1      42.810   4.663  13.263  0.00  0.00    +0.000 OA
ATOM     13  H   UNL     1      44.578   2.188  12.378  0.00  0.00    +0.000 HD
ATOM     14  H   UNL     1      42.903   2.353  12.618  0.00  0.00    +0.000 HD
ENDBRANCH   6  10
BRANCH   1  15
ATOM     15  C   UNL     1      49.435   7.127  14.758  0.00  0.00    +0.000 C 
BRANCH  15  21
ATOM     16  C   UNL     1      48.829   6.205  17.076  0.00  0.00    +0.000 A 
ATOM     17  C   UNL     1      48.273   6.456  18.329  0.00  0.00    +0.000 A 
ATOM     18  C   UNL     1      47.884   7.747  18.695  0.00  0.00    +0.000 A 
ATOM     19  C   UNL     1      48.157   8.758  17.803  0.00  0.00    +0.000 A 
ATOM     20  N   UNL     1      48.661   8.577  16.571  0.00  0.00    +0.000 NA
ATOM     21  C   UNL     1      49.013   7.304  16.203  0.00  0.00    +0.000 A 
BRANCH  16  22
ATOM     22  O   UNL     1      49.224   4.966  16.637  0.00  0.00    +0.000 OA
BRANCH  22  23
ATOM     23  C   UNL     1      48.953   3.874  17.528  0.00  0.00    +0.000 C 
BRANCH  23  24
ATOM     24  C   UNL     1      47.920   2.930  16.903  0.00  0.00    +0.000 C 
BRANCH  24  25
ATOM     25  N   UNL     1      46.684   2.960  17.655  0.00  0.00    +0.000 NA
ATOM     26  H   UNL     1      46.363   3.913  17.728  0.00  0.00    +0.000 HD
ATOM     27  H   UNL     1      46.885   2.733  18.646  0.00  0.00    +0.000 HD
ENDBRANCH  24  25
ENDBRANCH  23  24
ENDBRANCH  22  23
ENDBRANCH  16  22
ENDBRANCH  15  21
ENDBRANCH   1  15
TORSDOF 7
ENDMDL
MODEL 6
REMARK VINA RESULT:    -6.571      4.380      6.680
REMARK INTER + INTRA:          -9.270
REMARK INTER:                  -8.513
REMARK INTRA:                  -0.757
REMARK UNBOUND:                -0.202
REMARK  Name = 
REMARK  7 active torsions:
REMARK  status: ('A' for Active; 'I' for Inactive)
REMARK    1  A    between atoms: N_1  and  C_2
REMARK    2  A    between atoms: C_2  and  C_3
REMARK    3  A    between atoms: C_3  and  O_4
REMARK    4  A    between atoms: O_4  and  C_5
REMARK    5  A    between atoms: C_10  and  C_11
REMARK    6  A    between atoms: C_11  and  N_12
REMARK    7  A    between atoms: C_17  and  C_18
REMARK                            x       y       z     vdW  Elec       q    Type
REMARK                         _______ _______ _______ _____ _____    ______ ____
ROOT
ATOM      1  N   UNL     1      47.437   4.860  14.969  0.00  0.00    +0.000 N 
ATOM      2  C   UNL     1      47.852   6.171  14.895  0.00  0.00    +0.000 A 
ATOM      3  C   UNL     1      48.019   6.391  13.546  0.00  0.00    +0.000 A 
ATOM      4  C   UNL     1      47.002   5.662  12.933  0.00  0.00    +0.000 A 
ATOM      5  C   UNL     1      46.235   5.748  11.752  0.00  0.00    +0.000 A 
ATOM      6  C   UNL     1      45.286   4.748  11.504  0.00  0.00    +0.000 A 
ATOM      7  C   UNL     1      45.258   3.662  12.371  0.00  0.00    +0.000 A 
ATOM      8  N   UNL     1      45.964   3.519  13.539  0.00  0.00    +0.000 NA
ATOM      9  C   UNL     1      46.754   4.583  13.797  0.00  0.00    +0.000 A 
ENDROOT
BRANCH   6  10
ATOM     10  C   UNL     1      44.358   4.964  10.326  0.00  0.00    +0.000 C 
ATOM     11  N   UNL     1      44.868   4.811   9.075  0.00  0.00    +0.000 N 
ATOM     12  O   UNL     1      43.182   5.147  10.512  0.00  0.00    +0.000 OA
ATOM     13  H   UNL     1      45.805   4.628   8.810  0.00  0.00    +0.000 HD
ATOM     14  H   UNL     1      44.195   4.917   8.347  0.00  0.00    +0.000 HD
ENDBRANCH   6  10
BRANCH   1  15
ATOM     15  C   UNL     1      47.279   4.140  16.232  0.00  0.00    +0.000 C 
BRANCH  15  21
ATOM     16  C   UNL     1      49.427   4.188  17.638  0.00  0.00    +0.000 A 
ATOM     17  C   UNL     1      50.653   3.592  17.926  0.00  0.00    +0.000 A 
ATOM     18  C   UNL     1      51.013   2.376  17.342  0.00  0.00    +0.000 A 
ATOM     19  C   UNL     1      50.073   1.761  16.548  0.00  0.00    +0.000 A 
ATOM     20  N   UNL     1      48.890   2.297  16.207  0.00  0.00    +0.000 NA
ATOM     21  C   UNL     1      48.551   3.506  16.759  0.00  0.00    +0.000 A 
BRANCH  16  22
ATOM     22  O   UNL     1      49.004   5.385  18.160  0.00  0.00    +0.000 OA
BRANCH  22  23
ATOM     23  C   UNL     1      48.446   5.326  19.481  0.00  0.00    +0.000 C 
BRANCH  23  24
ATOM     24  C   UNL     1      47.207   6.224  19.568  0.00  0.00    +0.000 C 
BRANCH  24  25
ATOM     25  N   UNL     1      47.255   7.255  18.553  0.00  0.00    +0.000 NA
ATOM     26  H   UNL     1      47.992   7.041  17.898  0.00  0.00    +0.000 HD
ATOM     27  H   UNL     1      47.604   8.132  18.977  0.00  0.00    +0.000 HD
ENDBRANCH  24  25
ENDBRANCH  23  24
ENDBRANCH  22  23
ENDBRANCH  16  22
ENDBRANCH  15  21
ENDBRANCH   1  15
TORSDOF 7
ENDMDL
MODEL 7
REMARK VINA RESULT:    -6.220      5.138      7.968
REMARK INTER + INTRA:          -8.786
REMARK INTER:                  -8.411
REMARK INTRA:                  -0.375
REMARK UNBOUND:                -0.202
REMARK  Name = 
REMARK  7 active torsions:
REMARK  status: ('A' for Active; 'I' for Inactive)
REMARK    1  A    between atoms: N_1  and  C_2
REMARK    2  A    between atoms: C_2  and  C_3
REMARK    3  A    between atoms: C_3  and  O_4
REMARK    4  A    between atoms: O_4  and  C_5
REMARK    5  A    between atoms: C_10  and  C_11
REMARK    6  A    between atoms: C_11  and  N_12
REMARK    7  A    between atoms: C_17  and  C_18
REMARK                            x       y       z     vdW  Elec       q    Type
REMARK                         _______ _______ _______ _____ _____    ______ ____
ROOT
ATOM      1  N   UNL     1      47.581   3.995  16.020  0.00  0.00    +0.000 N 
ATOM      2  C   UNL     1      47.610   5.237  16.615  0.00  0.00    +0.000 A 
ATOM      3  C   UNL     1      48.178   5.001  17.847  0.00  0.00    +0.000 A 
ATOM      4  C   UNL     1      49.135   4.014  17.621  0.00  0.00    +0.000 A 
ATOM      5  C   UNL     1      50.369   3.621  18.182  0.00  0.00    +0.000 A 
ATOM      6  C   UNL     1      51.022   2.511  17.633  0.00  0.00    +0.000 A 
ATOM      7  C   UNL     1      50.346   1.785  16.660  0.00  0.00    +0.000 A 
ATOM      8  N   UNL     1      49.154   2.115  16.063  0.00  0.00    +0.000 NA
ATOM      9  C   UNL     1      48.645   3.273  16.533  0.00  0.00    +0.000 A 
ENDROOT
BRANCH   6  10
ATOM     10  C   UNL     1      52.423   2.224  18.135  0.00  0.00    +0.000 C 
ATOM     11  N   UNL     1      52.766   0.928  18.362  0.00  0.00    +0.000 N 
ATOM     12  O   UNL     1      53.228   3.115  18.211  0.00  0.00    +0.000 OA
ATOM     13  H   UNL     1      52.198   0.120  18.299  0.00  0.00    +0.000 HD
ATOM     14  H   UNL     1      53.716   0.804  18.643  0.00  0.00    +0.000 HD
ENDBRANCH   6  10
BRANCH   1  15
ATOM     15  C   UNL     1      46.918   3.734  14.744  0.00  0.00    +0.000 C 
BRANCH  15  21
ATOM     16  C   UNL     1      45.707   5.286  13.094  0.00  0.00    +0.000 A 
ATOM     17  C   UNL     1      45.817   6.278  12.122  0.00  0.00    +0.000 A 
ATOM     18  C   UNL     1      47.050   6.869  11.837  0.00  0.00    +0.000 A 
ATOM     19  C   UNL     1      48.120   6.490  12.615  0.00  0.00    +0.000 A 
ATOM     20  N   UNL     1      48.085   5.520  13.544  0.00  0.00    +0.000 NA
ATOM     21  C   UNL     1      46.879   4.921  13.800  0.00  0.00    +0.000 A 
BRANCH  16  22
ATOM     22  O   UNL     1      44.537   4.650  13.424  0.00  0.00    +0.000 OA
BRANCH  22  23
ATOM     23  C   UNL     1      43.590   4.496  12.357  0.00  0.00    +0.000 C 
BRANCH  23  24
ATOM     24  C   UNL     1      43.852   3.185  11.608  0.00  0.00    +0.000 C 
BRANCH  24  25
ATOM     25  N   UNL     1      43.467   2.050  12.420  0.00  0.00    +0.000 NA
ATOM     26  H   UNL     1      43.717   2.229  13.380  0.00  0.00    +0.000 HD
ATOM     27  H   UNL     1      44.080   1.247  12.194  0.00  0.00    +0.000 HD
ENDBRANCH  24  25
ENDBRANCH  23  24
ENDBRANCH  22  23
ENDBRANCH  16  22
ENDBRANCH  15  21
ENDBRANCH   1  15
TORSDOF 7
ENDMDL
MODEL 8
REMARK VINA RESULT:    -6.184      4.060      7.049
REMARK INTER + INTRA:          -8.735
REMARK INTER:                  -7.926
REMARK INTRA:                  -0.809
REMARK UNBOUND:                -0.202
REMARK  Name = 
REMARK  7 active torsions:
REMARK  status: ('A' for Active; 'I' for Inactive)
REMARK    1  A    between atoms: N_1  and  C_2
REMARK    2  A    between atoms: C_2  and  C_3
REMARK    3  A    between atoms: C_3  and  O_4
REMARK    4  A    between atoms: O_4  and  C_5
REMARK    5  A    between atoms: C_10  and  C_11
REMARK    6  A    between atoms: C_11  and  N_12
REMARK    7  A    between atoms: C_17  and  C_18
REMARK                            x       y       z     vdW  Elec       q    Type
REMARK                         _______ _______ _______ _____ _____    ______ ____
ROOT
ATOM      1  N   UNL     1      48.405   7.285  13.991  0.00  0.00    +0.000 N 
ATOM      2  C   UNL     1      48.605   8.332  13.119  0.00  0.00    +0.000 A 
ATOM      3  C   UNL     1      48.433   7.766  11.875  0.00  0.00    +0.000 A 
ATOM      4  C   UNL     1      47.417   6.827  12.043  0.00  0.00    +0.000 A 
ATOM      5  C   UNL     1      46.400   6.251  11.253  0.00  0.00    +0.000 A 
ATOM      6  C   UNL     1      45.570   5.289  11.841  0.00  0.00    +0.000 A 
ATOM      7  C   UNL     1      45.889   4.865  13.126  0.00  0.00    +0.000 A 
ATOM      8  N   UNL     1      46.852   5.388  13.952  0.00  0.00    +0.000 NA
ATOM      9  C   UNL     1      47.522   6.410  13.380  0.00  0.00    +0.000 A 
ENDROOT
BRANCH   6  10
ATOM     10  C   UNL     1      44.380   4.822  11.026  0.00  0.00    +0.000 C 
ATOM     11  N   UNL     1      43.458   5.749  10.656  0.00  0.00    +0.000 N 
ATOM     12  O   UNL     1      44.332   3.687  10.629  0.00  0.00    +0.000 OA
ATOM     13  H   UNL     1      43.418   6.709  10.896  0.00  0.00    +0.000 HD
ATOM     14  H   UNL     1      42.728   5.387  10.081  0.00  0.00    +0.000 HD
ENDBRANCH   6  10
BRANCH   1  15
ATOM     15  C   UNL     1      48.636   7.387  15.431  0.00  0.00    +0.000 C 
BRANCH  15  21
ATOM     16  C   UNL     1      49.859   5.524  16.707  0.00  0.00    +0.000 A 
ATOM     17  C   UNL     1      51.058   5.066  17.249  0.00  0.00    +0.000 A 
ATOM     18  C   UNL     1      52.251   5.763  17.041  0.00  0.00    +0.000 A 
ATOM     19  C   UNL     1      52.197   6.859  16.211  0.00  0.00    +0.000 A 
ATOM     20  N   UNL     1      51.071   7.367  15.685  0.00  0.00    +0.000 NA
ATOM     21  C   UNL     1      49.897   6.698  15.916  0.00  0.00    +0.000 A 
BRANCH  16  22
ATOM     22  O   UNL     1      48.646   4.904  16.874  0.00  0.00    +0.000 OA
BRANCH  22  23
ATOM     23  C   UNL     1      48.682   3.632  17.539  0.00  0.00    +0.000 C 
BRANCH  23  24
ATOM     24  C   UNL     1      48.313   2.517  16.555  0.00  0.00    +0.000 C 
BRANCH  24  25
ATOM     25  N   UNL     1      49.502   1.829  16.098  0.00  0.00    +0.000 NA
ATOM     26  H   UNL     1      49.467   0.868  16.404  0.00  0.00    +0.000 HD
ATOM     27  H   UNL     1      50.322   2.182  16.623  0.00  0.00    +0.000 HD
ENDBRANCH  24  25
ENDBRANCH  23  24
ENDBRANCH  22  23
ENDBRANCH  16  22
ENDBRANCH  15  21
ENDBRANCH   1  15
TORSDOF 7
ENDMDL
MODEL 9
REMARK VINA RESULT:    -5.893      3.767      7.528
REMARK INTER + INTRA:          -8.334
REMARK INTER:                  -7.319
REMARK INTRA:                  -1.016
REMARK UNBOUND:                -0.202
REMARK  Name = 
REMARK  7 active torsions:
REMARK  status: ('A' for Active; 'I' for Inactive)
REMARK    1  A    between atoms: N_1  and  C_2
REMARK    2  A    between atoms: C_2  and  C_3
REMARK    3  A    between atoms: C_3  and  O_4
REMARK    4  A    between atoms: O_4  and  C_5
REMARK    5  A    between atoms: C_10  and  C_11
REMARK    6  A    between atoms: C_11  and  N_12
REMARK    7  A    between atoms: C_17  and  C_18
REMARK                            x       y       z     vdW  Elec       q    Type
REMARK                         _______ _______ _______ _____ _____    ______ ____
ROOT
ATOM      1  N   UNL     1      48.639   7.110  13.923  0.00  0.00    +0.000 N 
ATOM      2  C   UNL     1      49.742   7.836  14.318  0.00  0.00    +0.000 A 
ATOM      3  C   UNL     1      49.690   7.796  15.693  0.00  0.00    +0.000 A 
ATOM      4  C   UNL     1      49.209   6.524  16.000  0.00  0.00    +0.000 A 
ATOM      5  C   UNL     1      49.334   5.598  17.056  0.00  0.00    +0.000 A 
ATOM      6  C   UNL     1      48.633   4.389  16.962  0.00  0.00    +0.000 A 
ATOM      7  C   UNL     1      47.752   4.238  15.899  0.00  0.00    +0.000 A 
ATOM      8  N   UNL     1      47.589   5.090  14.835  0.00  0.00    +0.000 NA
ATOM      9  C   UNL     1      48.398   6.168  14.909  0.00  0.00    +0.000 A 
ENDROOT
BRANCH   6  10
ATOM     10  C   UNL     1      48.928   3.344  18.020  0.00  0.00    +0.000 C 
ATOM     11  N   UNL     1      48.247   3.415  19.195  0.00  0.00    +0.000 N 
ATOM     12  O   UNL     1      49.657   2.420  17.766  0.00  0.00    +0.000 OA
ATOM     13  H   UNL     1      47.604   4.107  19.493  0.00  0.00    +0.000 HD
ATOM     14  H   UNL     1      48.451   2.671  19.827  0.00  0.00    +0.000 HD
ENDBRANCH   6  10
BRANCH   1  15
ATOM     15  C   UNL     1      48.203   7.010  12.531  0.00  0.00    +0.000 C 
BRANCH  15  21
ATOM     16  C   UNL     1      45.769   6.772  11.750  0.00  0.00    +0.000 A 
ATOM     17  C   UNL     1      44.591   7.414  11.373  0.00  0.00    +0.000 A 
ATOM     18  C   UNL     1      44.467   8.802  11.473  0.00  0.00    +0.000 A 
ATOM     19  C   UNL     1      45.519   9.484  12.038  0.00  0.00    +0.000 A 
ATOM     20  N   UNL     1      46.690   8.929  12.392  0.00  0.00    +0.000 NA
ATOM     21  C   UNL     1      46.819   7.570  12.263  0.00  0.00    +0.000 A 
BRANCH  16  22
ATOM     22  O   UNL     1      45.974   5.418  11.670  0.00  0.00    +0.000 OA
BRANCH  22  23
ATOM     23  C   UNL     1      44.858   4.645  11.203  0.00  0.00    +0.000 C 
BRANCH  23  24
ATOM     24  C   UNL     1      44.747   3.345  12.007  0.00  0.00    +0.000 C 
BRANCH  24  25
ATOM     25  N   UNL     1      45.810   3.261  12.986  0.00  0.00    +0.000 NA
ATOM     26  H   UNL     1      46.076   4.192  13.267  0.00  0.00    +0.000 HD
ATOM     27  H   UNL     1      46.675   2.932  12.521  0.00  0.00    +0.000 HD
ENDBRANCH  24  25
ENDBRANCH  23  24
ENDBRANCH  22  23
ENDBRANCH  16  22
ENDBRANCH  15  21
ENDBRANCH   1  15
TORSDOF 7
ENDMDL
