MODEL 1
REMARK VINA RESULT:    -7.918      0.000      0.000
REMARK INTER + INTRA:         -12.030
REMARK INTER:                 -11.158
REMARK INTRA:                  -0.873
REMARK UNBOUND:                -0.873
REMARK  Name = 
REMARK  7 active torsions:
REMARK  status: ('A' for Active; 'I' for Inactive)
REMARK    1  A    between atoms: C_2  and  C_3
REMARK    2  A    between atoms: C_5  and  C_6
REMARK    3  A    between atoms: C_11  and  N_12
REMARK    4  A    between atoms: N_12  and  C_13
REMARK    5  A    between atoms: C_13  and  C_14
REMARK    6  A    between atoms: C_17  and  O_18
REMARK    7  A    between atoms: O_18  and  C_19
REMARK                            x       y       z     vdW  Elec       q    Type
REMARK                         _______ _______ _______ _____ _____    ______ ____
ROOT
ATOM      1  N   UNL     1      43.664   5.069   9.767  0.00  0.00    +0.000 N 
ATOM      2  H   UNL     1      42.712   4.962   9.420  0.00  0.00    +0.000 HD
ENDROOT
BRANCH   1   8
ATOM      3  C   UNL     1      44.577   2.784   9.653  0.00  0.00    +0.000 A 
ATOM      4  C   UNL     1      45.416   1.840   9.052  0.00  0.00    +0.000 A 
ATOM      5  C   UNL     1      46.251   2.264   8.035  0.00  0.00    +0.000 A 
ATOM      6  N   UNL     1      46.281   3.539   7.575  0.00  0.00    +0.000 NA
ATOM      7  C   UNL     1      45.432   4.416   8.169  0.00  0.00    +0.000 A 
ATOM      8  C   UNL     1      44.575   4.128   9.234  0.00  0.00    +0.000 A 
BRANCH   5   9
ATOM      9  C   UNL     1      47.198   1.297   7.398  0.00  0.00    +0.000 C 
ATOM     10  N   UNL     1      48.288   1.850   6.787  0.00  0.00    +0.000 N 
ATOM     11  O   UNL     1      47.016   0.087   7.433  0.00  0.00    +0.000 OA
ATOM     12  H   UNL     1      48.414   2.856   6.791  0.00  0.00    +0.000 HD
ATOM     13  H   UNL     1      48.977   1.248   6.363  0.00  0.00    +0.000 HD
ENDBRANCH   5   9
BRANCH   3  15
ATOM     14  N   UNL     1      43.036   1.965  11.572  0.00  0.00    +0.000 NA
ATOM     15  C   UNL     1      43.729   2.337  10.722  0.00  0.00    +0.000 C 
ENDBRANCH   3  15
ENDBRANCH   1   8
BRANCH   1  16
ATOM     16  C   UNL     1      43.752   5.650  11.124  0.00  0.00    +0.000 C 
ATOM     17  C   UNL     1      42.606   5.275  12.058  0.00  0.00    +0.000 C 
ATOM     18  C   UNL     1      42.769   6.694  11.627  0.00  0.00    +0.000 C 
BRANCH  16  19
ATOM     19  C   UNL     1      45.165   5.712  11.698  0.00  0.00    +0.000 A 
ATOM     20  C   UNL     1      46.085   6.677  11.255  0.00  0.00    +0.000 A 
ATOM     21  C   UNL     1      47.354   6.817  11.830  0.00  0.00    +0.000 A 
ATOM     22  C   UNL     1      47.719   6.016  12.905  0.00  0.00    +0.000 A 
ATOM     23  C   UNL     1      46.855   4.997  13.310  0.00  0.00    +0.000 A 
ATOM     24  C   UNL     1      45.598   4.844  12.711  0.00  0.00    +0.000 A 
BRANCH  22  25
ATOM     25  O   UNL     1      48.880   6.104  13.610  0.00  0.00    +0.000 OA
BRANCH  25  26
ATOM     26  C   UNL     1      48.901   6.857  14.816  0.00  0.00    +0.000 C 
ATOM     27  F   UNL     1      48.021   7.881  14.848  0.00  0.00    +0.000 F 
ATOM     28  F   UNL     1      48.597   6.028  15.840  0.00  0.00    +0.000 F 
ATOM     29  F   UNL     1      50.143   7.342  15.020  0.00  0.00    +0.000 F 
ENDBRANCH  25  26
ENDBRANCH  22  25
ENDBRANCH  16  19
ENDBRANCH   1  16
TORSDOF 7
ENDMDL
MODEL 2
REMARK VINA RESULT:    -7.650      4.477      7.135
REMARK INTER + INTRA:         -11.654
REMARK INTER:                 -10.861
REMARK INTRA:                  -0.792
REMARK UNBOUND:                -0.873
REMARK  Name = 
REMARK  7 active torsions:
REMARK  status: ('A' for Active; 'I' for Inactive)
REMARK    1  A    between atoms: C_2  and  C_3
REMARK    2  A    between atoms: C_5  and  C_6
REMARK    3  A    between atoms: C_11  and  N_12
REMARK    4  A    between atoms: N_12  and  C_13
REMARK    5  A    between atoms: C_13  and  C_14
REMARK    6  A    between atoms: C_17  and  O_18
REMARK    7  A    between atoms: O_18  and  C_19
REMARK                            x       y       z     vdW  Elec       q    Type
REMARK                         _______ _______ _______ _____ _____    ______ ____
ROOT
ATOM      1  N   UNL     1      44.770   6.317  11.799  0.00  0.00    +0.000 N 
ATOM      2  H   UNL     1      44.536   7.074  11.156  0.00  0.00    +0.000 HD
ENDROOT
BRANCH   1   8
ATOM      3  C   UNL     1      46.440   7.780  12.865  0.00  0.00    +0.000 A 
ATOM      4  C   UNL     1      47.608   7.942  13.618  0.00  0.00    +0.000 A 
ATOM      5  C   UNL     1      48.322   6.811  13.966  0.00  0.00    +0.000 A 
ATOM      6  N   UNL     1      47.935   5.553  13.637  0.00  0.00    +0.000 NA
ATOM      7  C   UNL     1      46.783   5.440  12.929  0.00  0.00    +0.000 A 
ATOM      8  C   UNL     1      45.997   6.502  12.475  0.00  0.00    +0.000 A 
BRANCH   5   9
ATOM      9  C   UNL     1      49.600   6.944  14.729  0.00  0.00    +0.000 C 
ATOM     10  N   UNL     1      50.567   7.707  14.138  0.00  0.00    +0.000 N 
ATOM     11  O   UNL     1      49.768   6.414  15.820  0.00  0.00    +0.000 OA
ATOM     12  H   UNL     1      50.388   8.143  13.240  0.00  0.00    +0.000 HD
ATOM     13  H   UNL     1      51.442   7.857  14.616  0.00  0.00    +0.000 HD
ENDBRANCH   5   9
BRANCH   3  15
ATOM     14  N   UNL     1      45.119   9.906  12.188  0.00  0.00    +0.000 NA
ATOM     15  C   UNL     1      45.718   8.963  12.490  0.00  0.00    +0.000 C 
ENDBRANCH   3  15
ENDBRANCH   1   8
BRANCH   1  16
ATOM     16  C   UNL     1      44.209   5.003  11.415  0.00  0.00    +0.000 C 
ATOM     17  C   UNL     1      42.709   4.852  11.649  0.00  0.00    +0.000 C 
ATOM     18  C   UNL     1      43.664   4.021  12.439  0.00  0.00    +0.000 C 
BRANCH  16  19
ATOM     19  C   UNL     1      44.810   4.403  10.147  0.00  0.00    +0.000 A 
ATOM     20  C   UNL     1      44.542   3.073   9.778  0.00  0.00    +0.000 A 
ATOM     21  C   UNL     1      45.002   2.527   8.574  0.00  0.00    +0.000 A 
ATOM     22  C   UNL     1      45.709   3.320   7.678  0.00  0.00    +0.000 A 
ATOM     23  C   UNL     1      46.057   4.617   8.057  0.00  0.00    +0.000 A 
ATOM     24  C   UNL     1      45.617   5.149   9.277  0.00  0.00    +0.000 A 
BRANCH  22  25
ATOM     25  O   UNL     1      46.138   2.944   6.443  0.00  0.00    +0.000 OA
BRANCH  25  26
ATOM     26  C   UNL     1      47.289   2.115   6.334  0.00  0.00    +0.000 C 
ATOM     27  F   UNL     1      48.223   2.333   7.285  0.00  0.00    +0.000 F 
ATOM     28  F   UNL     1      46.896   0.825   6.439  0.00  0.00    +0.000 F 
ATOM     29  F   UNL     1      47.852   2.287   5.121  0.00  0.00    +0.000 F 
ENDBRANCH  25  26
ENDBRANCH  22  25
ENDBRANCH  16  19
ENDBRANCH   1  16
TORSDOF 7
ENDMDL
MODEL 3
REMARK VINA RESULT:    -7.589      4.312      6.662
REMARK INTER + INTRA:         -11.568
REMARK INTER:                 -10.821
REMARK INTRA:                  -0.747
REMARK UNBOUND:                -0.873
REMARK  Name = 
REMARK  7 active torsions:
REMARK  status: ('A' for Active; 'I' for Inactive)
REMARK    1  A    between atoms: C_2  and  C_3
REMARK    2  A    between atoms: C_5  and  C_6
REMARK    3  A    between atoms: C_11  and  N_12
REMARK    4  A    between atoms: N_12  and  C_13
REMARK    5  A    between atoms: C_13  and  C_14
REMARK    6  A    between atoms: C_17  and  O_18
REMARK    7  A    between atoms: O_18  and  C_19
REMARK                            x       y       z     vdW  Elec       q    Type
REMARK                         _______ _______ _______ _____ _____    ______ ____
ROOT
ATOM      1  N   UNL     1      44.741   5.447  12.830  0.00  0.00    +0.000 N 
ATOM      2  H   UNL     1      44.241   5.429  13.718  0.00  0.00    +0.000 HD
ENDROOT
BRANCH   1   8
ATOM      3  C   UNL     1      47.158   5.604  13.279  0.00  0.00    +0.000 A 
ATOM      4  C   UNL     1      48.360   6.317  13.220  0.00  0.00    +0.000 A 
ATOM      5  C   UNL     1      48.325   7.616  12.748  0.00  0.00    +0.000 A 
ATOM      6  N   UNL     1      47.192   8.225  12.318  0.00  0.00    +0.000 NA
ATOM      7  C   UNL     1      46.054   7.488  12.368  0.00  0.00    +0.000 A 
ATOM      8  C   UNL     1      45.944   6.188  12.866  0.00  0.00    +0.000 A 
BRANCH   5   9
ATOM      9  C   UNL     1      49.580   8.428  12.713  0.00  0.00    +0.000 C 
ATOM     10  N   UNL     1      50.699   7.810  13.196  0.00  0.00    +0.000 N 
ATOM     11  O   UNL     1      49.608   9.569  12.270  0.00  0.00    +0.000 OA
ATOM     12  H   UNL     1      50.643   6.859  13.542  0.00  0.00    +0.000 HD
ATOM     13  H   UNL     1      51.583   8.297  13.174  0.00  0.00    +0.000 HD
ENDBRANCH   5   9
BRANCH   3  15
ATOM     14  N   UNL     1      47.256   3.181  14.197  0.00  0.00    +0.000 NA
ATOM     15  C   UNL     1      47.201   4.264  13.790  0.00  0.00    +0.000 C 
ENDBRANCH   3  15
ENDBRANCH   1   8
BRANCH   1  16
ATOM     16  C   UNL     1      43.868   5.318  11.643  0.00  0.00    +0.000 C 
ATOM     17  C   UNL     1      42.954   6.512  11.384  0.00  0.00    +0.000 C 
ATOM     18  C   UNL     1      42.357   5.196  11.754  0.00  0.00    +0.000 C 
BRANCH  16  19
ATOM     19  C   UNL     1      44.521   4.631  10.446  0.00  0.00    +0.000 A 
ATOM     20  C   UNL     1      44.137   3.337  10.055  0.00  0.00    +0.000 A 
ATOM     21  C   UNL     1      44.651   2.722   8.908  0.00  0.00    +0.000 A 
ATOM     22  C   UNL     1      45.536   3.412   8.089  0.00  0.00    +0.000 A 
ATOM     23  C   UNL     1      45.994   4.665   8.498  0.00  0.00    +0.000 A 
ATOM     24  C   UNL     1      45.497   5.264   9.663  0.00  0.00    +0.000 A 
BRANCH  22  25
ATOM     25  O   UNL     1      46.043   2.969   6.906  0.00  0.00    +0.000 OA
BRANCH  25  26
ATOM     26  C   UNL     1      47.152   2.079   6.921  0.00  0.00    +0.000 C 
ATOM     27  F   UNL     1      47.121   1.167   7.916  0.00  0.00    +0.000 F 
ATOM     28  F   UNL     1      47.170   1.403   5.750  0.00  0.00    +0.000 F 
ATOM     29  F   UNL     1      48.295   2.790   7.014  0.00  0.00    +0.000 F 
ENDBRANCH  25  26
ENDBRANCH  22  25
ENDBRANCH  16  19
ENDBRANCH   1  16
TORSDOF 7
ENDMDL
MODEL 4
REMARK VINA RESULT:    -7.518      1.696      2.282
REMARK INTER + INTRA:         -11.468
REMARK INTER:                 -10.020
REMARK INTRA:                  -1.447
REMARK UNBOUND:                -0.873
REMARK  Name = 
REMARK  7 active torsions:
REMARK  status: ('A' for Active; 'I' for Inactive)
REMARK    1  A    between atoms: C_2  and  C_3
REMARK    2  A    between atoms: C_5  and  C_6
REMARK    3  A    between atoms: C_11  and  N_12
REMARK    4  A    between atoms: N_12  and  C_13
REMARK    5  A    between atoms: C_13  and  C_14
REMARK    6  A    between atoms: C_17  and  O_18
REMARK    7  A    between atoms: O_18  and  C_19
REMARK                            x       y       z     vdW  Elec       q    Type
REMARK                         _______ _______ _______ _____ _____    ______ ____
ROOT
ATOM      1  N   UNL     1      44.395   5.545  10.178  0.00  0.00    +0.000 N 
ATOM      2  H   UNL     1      43.429   5.258  10.339  0.00  0.00    +0.000 HD
ENDROOT
BRANCH   1   8
ATOM      3  C   UNL     1      44.919   3.229   9.521  0.00  0.00    +0.000 A 
ATOM      4  C   UNL     1      45.602   2.325   8.700  0.00  0.00    +0.000 A 
ATOM      5  C   UNL     1      46.515   2.830   7.793  0.00  0.00    +0.000 A 
ATOM      6  N   UNL     1      46.763   4.154   7.640  0.00  0.00    +0.000 NA
ATOM      7  C   UNL     1      46.060   4.997   8.438  0.00  0.00    +0.000 A 
ATOM      8  C   UNL     1      45.147   4.616   9.424  0.00  0.00    +0.000 A 
BRANCH   5   9
ATOM      9  C   UNL     1      47.301   1.894   6.931  0.00  0.00    +0.000 C 
ATOM     10  N   UNL     1      48.342   2.453   6.245  0.00  0.00    +0.000 N 
ATOM     11  O   UNL     1      47.038   0.700   6.854  0.00  0.00    +0.000 OA
ATOM     12  H   UNL     1      48.540   3.442   6.344  0.00  0.00    +0.000 HD
ATOM     13  H   UNL     1      48.926   1.868   5.667  0.00  0.00    +0.000 HD
ENDBRANCH   5   9
BRANCH   3  15
ATOM     14  N   UNL     1      43.242   2.278  11.255  0.00  0.00    +0.000 NA
ATOM     15  C   UNL     1      43.989   2.694  10.474  0.00  0.00    +0.000 C 
ENDBRANCH   3  15
ENDBRANCH   1   8
BRANCH   1  16
ATOM     16  C   UNL     1      44.950   6.419  11.234  0.00  0.00    +0.000 C 
ATOM     17  C   UNL     1      44.098   7.638  11.572  0.00  0.00    +0.000 C 
ATOM     18  C   UNL     1      45.439   7.829  10.947  0.00  0.00    +0.000 C 
BRANCH  16  19
ATOM     19  C   UNL     1      45.640   5.677  12.375  0.00  0.00    +0.000 A 
ATOM     20  C   UNL     1      44.936   4.759  13.173  0.00  0.00    +0.000 A 
ATOM     21  C   UNL     1      45.565   3.995  14.163  0.00  0.00    +0.000 A 
ATOM     22  C   UNL     1      46.938   4.099  14.350  0.00  0.00    +0.000 A 
ATOM     23  C   UNL     1      47.646   5.061  13.627  0.00  0.00    +0.000 A 
ATOM     24  C   UNL     1      47.004   5.842  12.657  0.00  0.00    +0.000 A 
BRANCH  22  25
ATOM     25  O   UNL     1      47.686   3.358  15.212  0.00  0.00    +0.000 OA
BRANCH  25  26
ATOM     26  C   UNL     1      47.710   3.717  16.588  0.00  0.00    +0.000 C 
ATOM     27  F   UNL     1      47.344   4.992  16.838  0.00  0.00    +0.000 F 
ATOM     28  F   UNL     1      46.852   2.910  17.253  0.00  0.00    +0.000 F 
ATOM     29  F   UNL     1      48.948   3.513  17.083  0.00  0.00    +0.000 F 
ENDBRANCH  25  26
ENDBRANCH  22  25
ENDBRANCH  16  19
ENDBRANCH   1  16
TORSDOF 7
ENDMDL
MODEL 5
REMARK VINA RESULT:    -7.220      4.658      7.351
REMARK INTER + INTRA:         -11.047
REMARK INTER:                 -10.136
REMARK INTRA:                  -0.911
REMARK UNBOUND:                -0.873
REMARK  Name = 
REMARK  7 active torsions:
REMARK  status: ('A' for Active; 'I' for Inactive)
REMARK    1  A    between atoms: C_2  and  C_3
REMARK    2  A    between atoms: C_5  and  C_6
REMARK    3  A    between atoms: C_11  and  N_12
REMARK    4  A    between atoms: N_12  and  C_13
REMARK    5  A    between atoms: C_13  and  C_14
REMARK    6  A    between atoms: C_17  and  O_18
REMARK    7  A    between atoms: O_18  and  C_19
REMARK                            x       y       z     vdW  Elec       q    Type
REMARK                         _______ _______ _______ _____ _____    ______ ____
ROOT
ATOM      1  N   UNL     1      46.798   5.982  12.386  0.00  0.00    +0.000 N 
ATOM      2  H   UNL     1      47.546   6.110  11.705  0.00  0.00    +0.000 HD
ENDROOT
BRANCH   1   8
ATOM      3  C   UNL     1      47.890   6.062  14.592  0.00  0.00    +0.000 A 
ATOM      4  C   UNL     1      48.214   5.453  15.810  0.00  0.00    +0.000 A 
ATOM      5  C   UNL     1      47.858   4.130  15.992  0.00  0.00    +0.000 A 
ATOM      6  N   UNL     1      47.191   3.401  15.064  0.00  0.00    +0.000 NA
ATOM      7  C   UNL     1      46.874   4.038  13.908  0.00  0.00    +0.000 A 
ATOM      8  C   UNL     1      47.216   5.352  13.580  0.00  0.00    +0.000 A 
BRANCH   5   9
ATOM      9  C   UNL     1      48.227   3.428  17.260  0.00  0.00    +0.000 C 
ATOM     10  N   UNL     1      47.198   2.823  17.925  0.00  0.00    +0.000 N 
ATOM     11  O   UNL     1      49.379   3.387  17.672  0.00  0.00    +0.000 OA
ATOM     12  H   UNL     1      46.258   2.865  17.547  0.00  0.00    +0.000 HD
ATOM     13  H   UNL     1      47.388   2.311  18.772  0.00  0.00    +0.000 HD
ENDBRANCH   5   9
BRANCH   3  15
ATOM     14  N   UNL     1      48.616   8.526  14.243  0.00  0.00    +0.000 NA
ATOM     15  C   UNL     1      48.283   7.429  14.405  0.00  0.00    +0.000 C 
ENDBRANCH   3  15
ENDBRANCH   1   8
BRANCH   1  16
ATOM     16  C   UNL     1      45.452   5.845  11.788  0.00  0.00    +0.000 C 
ATOM     17  C   UNL     1      44.622   7.125  11.774  0.00  0.00    +0.000 C 
ATOM     18  C   UNL     1      44.180   5.971  12.611  0.00  0.00    +0.000 C 
BRANCH  16  19
ATOM     19  C   UNL     1      45.389   4.925  10.572  0.00  0.00    +0.000 A 
ATOM     20  C   UNL     1      45.884   5.340   9.323  0.00  0.00    +0.000 A 
ATOM     21  C   UNL     1      45.924   4.485   8.216  0.00  0.00    +0.000 A 
ATOM     22  C   UNL     1      45.509   3.165   8.344  0.00  0.00    +0.000 A 
ATOM     23  C   UNL     1      44.938   2.752   9.549  0.00  0.00    +0.000 A 
ATOM     24  C   UNL     1      44.875   3.622  10.646  0.00  0.00    +0.000 A 
BRANCH  22  25
ATOM     25  O   UNL     1      45.575   2.209   7.379  0.00  0.00    +0.000 OA
BRANCH  25  26
ATOM     26  C   UNL     1      46.799   2.013   6.682  0.00  0.00    +0.000 C 
ATOM     27  F   UNL     1      47.898   2.391   7.371  0.00  0.00    +0.000 F 
ATOM     28  F   UNL     1      46.926   0.696   6.405  0.00  0.00    +0.000 F 
ATOM     29  F   UNL     1      46.763   2.687   5.514  0.00  0.00    +0.000 F 
ENDBRANCH  25  26
ENDBRANCH  22  25
ENDBRANCH  16  19
ENDBRANCH   1  16
TORSDOF 7
ENDMDL
MODEL 6
REMARK VINA RESULT:    -6.507      4.918      7.859
REMARK INTER + INTRA:         -10.042
REMARK INTER:                  -8.844
REMARK INTRA:                  -1.197
REMARK UNBOUND:                -0.873
REMARK  Name = 
REMARK  7 active torsions:
REMARK  status: ('A' for Active; 'I' for Inactive)
REMARK    1  A    between atoms: C_2  and  C_3
REMARK    2  A    between atoms: C_5  and  C_6
REMARK    3  A    between atoms: C_11  and  N_12
REMARK    4  A    between atoms: N_12  and  C_13
REMARK    5  A    between atoms: C_13  and  C_14
REMARK    6  A    between atoms: C_17  and  O_18
REMARK    7  A    between atoms: O_18  and  C_19
REMARK                            x       y       z     vdW  Elec       q    Type
REMARK                         _______ _______ _______ _____ _____    ______ ____
ROOT
ATOM      1  N   UNL     1      48.537   6.635  14.211  0.00  0.00    +0.000 N 
ATOM      2  H   UNL     1      48.986   5.944  13.610  0.00  0.00    +0.000 HD
ENDROOT
BRANCH   1   8
ATOM      3  C   UNL     1      47.937   4.931  15.885  0.00  0.00    +0.000 A 
ATOM      4  C   UNL     1      47.895   4.496  17.214  0.00  0.00    +0.000 A 
ATOM      5  C   UNL     1      48.315   5.371  18.200  0.00  0.00    +0.000 A 
ATOM      6  N   UNL     1      48.788   6.615  17.942  0.00  0.00    +0.000 NA
ATOM      7  C   UNL     1      48.836   6.986  16.638  0.00  0.00    +0.000 A 
ATOM      8  C   UNL     1      48.399   6.219  15.555  0.00  0.00    +0.000 A 
BRANCH   5   9
ATOM      9  C   UNL     1      48.241   4.962  19.636  0.00  0.00    +0.000 C 
ATOM     10  N   UNL     1      48.385   3.626  19.881  0.00  0.00    +0.000 N 
ATOM     11  O   UNL     1      48.075   5.774  20.538  0.00  0.00    +0.000 OA
ATOM     12  H   UNL     1      48.536   2.984  19.111  0.00  0.00    +0.000 HD
ATOM     13  H   UNL     1      48.372   3.292  20.833  0.00  0.00    +0.000 HD
ENDBRANCH   5   9
BRANCH   3  15
ATOM     14  N   UNL     1      47.116   3.303  14.041  0.00  0.00    +0.000 NA
ATOM     15  C   UNL     1      47.479   4.023  14.872  0.00  0.00    +0.000 C 
ENDBRANCH   3  15
ENDBRANCH   1   8
BRANCH   1  16
ATOM     16  C   UNL     1      47.593   7.528  13.504  0.00  0.00    +0.000 C 
ATOM     17  C   UNL     1      48.214   8.802  12.940  0.00  0.00    +0.000 C 
ATOM     18  C   UNL     1      47.213   8.898  14.041  0.00  0.00    +0.000 C 
BRANCH  16  19
ATOM     19  C   UNL     1      46.538   6.805  12.672  0.00  0.00    +0.000 A 
ATOM     20  C   UNL     1      46.755   6.525  11.312  0.00  0.00    +0.000 A 
ATOM     21  C   UNL     1      45.846   5.781  10.550  0.00  0.00    +0.000 A 
ATOM     22  C   UNL     1      44.708   5.253  11.148  0.00  0.00    +0.000 A 
ATOM     23  C   UNL     1      44.430   5.586  12.475  0.00  0.00    +0.000 A 
ATOM     24  C   UNL     1      45.330   6.355  13.225  0.00  0.00    +0.000 A 
BRANCH  22  25
ATOM     25  O   UNL     1      43.791   4.446  10.550  0.00  0.00    +0.000 OA
BRANCH  25  26
ATOM     26  C   UNL     1      43.985   3.037  10.584  0.00  0.00    +0.000 C 
ATOM     27  F   UNL     1      43.974   2.444   9.371  0.00  0.00    +0.000 F 
ATOM     28  F   UNL     1      45.188   2.787  11.149  0.00  0.00    +0.000 F 
ATOM     29  F   UNL     1      43.033   2.473  11.355  0.00  0.00    +0.000 F 
ENDBRANCH  25  26
ENDBRANCH  22  25
ENDBRANCH  16  19
ENDBRANCH   1  16
TORSDOF 7
ENDMDL
MODEL 7
REMARK VINA RESULT:    -6.457      4.788      7.401
REMARK INTER + INTRA:          -9.971
REMARK INTER:                  -9.156
REMARK INTRA:                  -0.815
REMARK UNBOUND:                -0.873
REMARK  Name = 
REMARK  7 active torsions:
REMARK  status: ('A' for Active; 'I' for Inactive)
REMARK    1  A    between atoms: C_2  and  C_3
REMARK    2  A    between atoms: C_5  and  C_6
REMARK    3  A    between atoms: C_11  and  N_12
REMARK    4  A    between atoms: N_12  and  C_13
REMARK    5  A    between atoms: C_13  and  C_14
REMARK    6  A    between atoms: C_17  and  O_18
REMARK    7  A    between atoms: O_18  and  C_19
REMARK                            x       y       z     vdW  Elec       q    Type
REMARK                         _______ _______ _______ _____ _____    ______ ____
ROOT
ATOM      1  N   UNL     1      47.877   6.892  13.190  0.00  0.00    +0.000 N 
ATOM      2  H   UNL     1      48.665   6.741  12.561  0.00  0.00    +0.000 HD
ENDROOT
BRANCH   1   8
ATOM      3  C   UNL     1      48.460   6.291  15.507  0.00  0.00    +0.000 A 
ATOM      4  C   UNL     1      48.332   5.438  16.609  0.00  0.00    +0.000 A 
ATOM      5  C   UNL     1      47.577   4.290  16.461  0.00  0.00    +0.000 A 
ATOM      6  N   UNL     1      46.936   3.960  15.312  0.00  0.00    +0.000 NA
ATOM      7  C   UNL     1      47.066   4.828  14.277  0.00  0.00    +0.000 A 
ATOM      8  C   UNL     1      47.835   5.993  14.280  0.00  0.00    +0.000 A 
BRANCH   5   9
ATOM      9  C   UNL     1      47.454   3.329  17.600  0.00  0.00    +0.000 C 
ATOM     10  N   UNL     1      48.405   3.441  18.575  0.00  0.00    +0.000 N 
ATOM     11  O   UNL     1      46.553   2.503  17.663  0.00  0.00    +0.000 OA
ATOM     12  H   UNL     1      49.129   4.146  18.497  0.00  0.00    +0.000 HD
ATOM     13  H   UNL     1      48.360   2.838  19.382  0.00  0.00    +0.000 HD
ENDBRANCH   5   9
BRANCH   3  15
ATOM     14  N   UNL     1      49.922   8.411  15.807  0.00  0.00    +0.000 NA
ATOM     15  C   UNL     1      49.264   7.469  15.665  0.00  0.00    +0.000 C 
ENDBRANCH   3  15
ENDBRANCH   1   8
BRANCH   1  16
ATOM     16  C   UNL     1      46.687   7.480  12.538  0.00  0.00    +0.000 C 
ATOM     17  C   UNL     1      46.845   8.933  12.101  0.00  0.00    +0.000 C 
ATOM     18  C   UNL     1      45.873   8.591  13.180  0.00  0.00    +0.000 C 
BRANCH  16  19
ATOM     19  C   UNL     1      45.930   6.525  11.619  0.00  0.00    +0.000 A 
ATOM     20  C   UNL     1      46.394   6.248  10.321  0.00  0.00    +0.000 A 
ATOM     21  C   UNL     1      45.774   5.305   9.493  0.00  0.00    +0.000 A 
ATOM     22  C   UNL     1      44.690   4.575   9.965  0.00  0.00    +0.000 A 
ATOM     23  C   UNL     1      44.161   4.888  11.218  0.00  0.00    +0.000 A 
ATOM     24  C   UNL     1      44.770   5.854  12.031  0.00  0.00    +0.000 A 
BRANCH  22  25
ATOM     25  O   UNL     1      44.050   3.574   9.302  0.00  0.00    +0.000 OA
BRANCH  25  26
ATOM     26  C   UNL     1      44.803   2.456   8.846  0.00  0.00    +0.000 C 
ATOM     27  F   UNL     1      45.855   2.136   9.630  0.00  0.00    +0.000 F 
ATOM     28  F   UNL     1      43.984   1.380   8.804  0.00  0.00    +0.000 F 
ATOM     29  F   UNL     1      45.248   2.696   7.595  0.00  0.00    +0.000 F 
ENDBRANCH  25  26
ENDBRANCH  22  25
ENDBRANCH  16  19
ENDBRANCH   1  16
TORSDOF 7
ENDMDL
MODEL 8
REMARK VINA RESULT:    -6.190      5.286      8.747
REMARK INTER + INTRA:          -9.596
REMARK INTER:                  -8.179
REMARK INTRA:                  -1.417
REMARK UNBOUND:                -0.873
REMARK  Name = 
REMARK  7 active torsions:
REMARK  status: ('A' for Active; 'I' for Inactive)
REMARK    1  A    between atoms: C_2  and  C_3
REMARK    2  A    between atoms: C_5  and  C_6
REMARK    3  A    between atoms: C_11  and  N_12
REMARK    4  A    between atoms: N_12  and  C_13
REMARK    5  A    between atoms: C_13  and  C_14
REMARK    6  A    between atoms: C_17  and  O_18
REMARK    7  A    between atoms: O_18  and  C_19
REMARK                            x       y       z     vdW  Elec       q    Type
REMARK                         _______ _______ _______ _____ _____    ______ ____
ROOT
ATOM      1  N   UNL     1      49.235   7.393  14.514  0.00  0.00    +0.000 N 
ATOM      2  H   UNL     1      49.949   6.669  14.585  0.00  0.00    +0.000 HD
ENDROOT
BRANCH   1   8
ATOM      3  C   UNL     1      48.756   6.988  16.896  0.00  0.00    +0.000 A 
ATOM      4  C   UNL     1      48.344   7.456  18.148  0.00  0.00    +0.000 A 
ATOM      5  C   UNL     1      47.906   8.764  18.244  0.00  0.00    +0.000 A 
ATOM      6  N   UNL     1      47.878   9.621  17.194  0.00  0.00    +0.000 NA
ATOM      7  C   UNL     1      48.311   9.133  16.003  0.00  0.00    +0.000 A 
ATOM      8  C   UNL     1      48.732   7.824  15.763  0.00  0.00    +0.000 A 
BRANCH   5   9
ATOM      9  C   UNL     1      47.412   9.288  19.554  0.00  0.00    +0.000 C 
ATOM     10  N   UNL     1      47.760   8.556  20.654  0.00  0.00    +0.000 N 
ATOM     11  O   UNL     1      46.749  10.314  19.639  0.00  0.00    +0.000 OA
ATOM     12  H   UNL     1      48.323   7.720  20.548  0.00  0.00    +0.000 HD
ATOM     13  H   UNL     1      47.480   8.874  21.570  0.00  0.00    +0.000 HD
ENDBRANCH   5   9
BRANCH   3  15
ATOM     14  N   UNL     1      49.525   4.516  16.742  0.00  0.00    +0.000 NA
ATOM     15  C   UNL     1      49.190   5.623  16.803  0.00  0.00    +0.000 C 
ENDBRANCH   3  15
ENDBRANCH   1   8
BRANCH   1  16
ATOM     16  C   UNL     1      48.451   7.349  13.260  0.00  0.00    +0.000 C 
ATOM     17  C   UNL     1      49.281   7.401  11.981  0.00  0.00    +0.000 C 
ATOM     18  C   UNL     1      48.367   8.532  12.311  0.00  0.00    +0.000 C 
BRANCH  16  19
ATOM     19  C   UNL     1      47.241   6.420  13.302  0.00  0.00    +0.000 A 
ATOM     20  C   UNL     1      45.966   6.875  12.924  0.00  0.00    +0.000 A 
ATOM     21  C   UNL     1      44.858   6.022  12.862  0.00  0.00    +0.000 A 
ATOM     22  C   UNL     1      45.009   4.668  13.135  0.00  0.00    +0.000 A 
ATOM     23  C   UNL     1      46.246   4.208  13.591  0.00  0.00    +0.000 A 
ATOM     24  C   UNL     1      47.345   5.073  13.678  0.00  0.00    +0.000 A 
BRANCH  22  25
ATOM     25  O   UNL     1      44.042   3.718  13.030  0.00  0.00    +0.000 OA
BRANCH  25  26
ATOM     26  C   UNL     1      43.560   3.363  11.740  0.00  0.00    +0.000 C 
ATOM     27  F   UNL     1      42.640   4.213  11.236  0.00  0.00    +0.000 F 
ATOM     28  F   UNL     1      44.607   3.343  10.885  0.00  0.00    +0.000 F 
ATOM     29  F   UNL     1      43.030   2.123  11.785  0.00  0.00    +0.000 F 
ENDBRANCH  25  26
ENDBRANCH  22  25
ENDBRANCH  16  19
ENDBRANCH   1  16
TORSDOF 7
ENDMDL
MODEL 9
REMARK VINA RESULT:    -6.100      2.041      2.423
REMARK INTER + INTRA:          -9.469
REMARK INTER:                  -9.279
REMARK INTRA:                  -0.189
REMARK UNBOUND:                -0.873
REMARK  Name = 
REMARK  7 active torsions:
REMARK  status: ('A' for Active; 'I' for Inactive)
REMARK    1  A    between atoms: C_2  and  C_3
REMARK    2  A    between atoms: C_5  and  C_6
REMARK    3  A    between atoms: C_11  and  N_12
REMARK    4  A    between atoms: N_12  and  C_13
REMARK    5  A    between atoms: C_13  and  C_14
REMARK    6  A    between atoms: C_17  and  O_18
REMARK    7  A    between atoms: O_18  and  C_19
REMARK                            x       y       z     vdW  Elec       q    Type
REMARK                         _______ _______ _______ _____ _____    ______ ____
ROOT
ATOM      1  N   UNL     1      44.030   5.253  10.698  0.00  0.00    +0.000 N 
ATOM      2  H   UNL     1      43.031   5.233  10.497  0.00  0.00    +0.000 HD
ENDROOT
BRANCH   1   8
ATOM      3  C   UNL     1      44.673   3.146   9.595  0.00  0.00    +0.000 A 
ATOM      4  C   UNL     1      45.384   2.463   8.603  0.00  0.00    +0.000 A 
ATOM      5  C   UNL     1      46.236   3.191   7.793  0.00  0.00    +0.000 A 
ATOM      6  N   UNL     1      46.398   4.533   7.894  0.00  0.00    +0.000 NA
ATOM      7  C   UNL     1      45.670   5.159   8.853  0.00  0.00    +0.000 A 
ATOM      8  C   UNL     1      44.814   4.537   9.765  0.00  0.00    +0.000 A 
BRANCH   5   9
ATOM      9  C   UNL     1      47.049   2.492   6.751  0.00  0.00    +0.000 C 
ATOM     10  N   UNL     1      47.918   1.544   7.215  0.00  0.00    +0.000 N 
ATOM     11  O   UNL     1      46.937   2.741   5.558  0.00  0.00    +0.000 OA
ATOM     12  H   UNL     1      47.975   1.353   8.209  0.00  0.00    +0.000 HD
ATOM     13  H   UNL     1      48.476   1.019   6.559  0.00  0.00    +0.000 HD
ENDBRANCH   5   9
BRANCH   3  15
ATOM     14  N   UNL     1      43.098   1.774  11.132  0.00  0.00    +0.000 NA
ATOM     15  C   UNL     1      43.808   2.378  10.445  0.00  0.00    +0.000 C 
ENDBRANCH   3  15
ENDBRANCH   1   8
BRANCH   1  16
ATOM     16  C   UNL     1      44.356   5.400  12.134  0.00  0.00    +0.000 C 
ATOM     17  C   UNL     1      44.099   4.158  12.981  0.00  0.00    +0.000 C 
ATOM     18  C   UNL     1      43.288   5.388  13.215  0.00  0.00    +0.000 C 
BRANCH  16  19
ATOM     19  C   UNL     1      45.606   6.226  12.419  0.00  0.00    +0.000 A 
ATOM     20  C   UNL     1      46.817   5.609  12.778  0.00  0.00    +0.000 A 
ATOM     21  C   UNL     1      48.001   6.335  12.952  0.00  0.00    +0.000 A 
ATOM     22  C   UNL     1      48.014   7.705  12.725  0.00  0.00    +0.000 A 
ATOM     23  C   UNL     1      46.809   8.353  12.447  0.00  0.00    +0.000 A 
ATOM     24  C   UNL     1      45.621   7.624  12.302  0.00  0.00    +0.000 A 
BRANCH  22  25
ATOM     25  O   UNL     1      49.107   8.514  12.774  0.00  0.00    +0.000 OA
BRANCH  25  26
ATOM     26  C   UNL     1      49.864   8.725  11.588  0.00  0.00    +0.000 C 
ATOM     27  F   UNL     1      49.917   7.656  10.764  0.00  0.00    +0.000 F 
ATOM     28  F   UNL     1      49.300   9.742  10.898  0.00  0.00    +0.000 F 
ATOM     29  F   UNL     1      51.121   9.085  11.918  0.00  0.00    +0.000 F 
ENDBRANCH  25  26
ENDBRANCH  22  25
ENDBRANCH  16  19
ENDBRANCH   1  16
TORSDOF 7
ENDMDL
