MODEL 1
REMARK VINA RESULT:    -8.405      0.000      0.000
REMARK INTER + INTRA:         -11.393
REMARK INTER:                 -10.862
REMARK INTRA:                  -0.531
REMARK UNBOUND:                -0.531
REMARK  Name = 
REMARK  5 active torsions:
REMARK  status: ('A' for Active; 'I' for Inactive)
REMARK    1  A    between atoms: C_2  and  C_19
REMARK    2  A    between atoms: N_3  and  C_4
REMARK    3  A    between atoms: C_4  and  C_5
REMARK    4  A    between atoms: C_8  and  C_9
REMARK    5  A    between atoms: C_9  and  N_10
REMARK                            x       y       z     vdW  Elec       q    Type
REMARK                         _______ _______ _______ _____ _____    ______ ____
ROOT
ATOM      1  C   UNL     1      46.334   7.295  13.243  0.00  0.00    +0.000 C 
ENDROOT
BRANCH   1   2
ATOM      2  C   UNL     1      46.335   5.929  12.529  0.00  0.00    +0.000 C 
ATOM      3  C   UNL     1      45.248   4.981  13.069  0.00  0.00    +0.000 C 
ATOM      4  C   UNL     1      43.840   5.384  12.628  0.00  0.00    +0.000 C 
ATOM      5  C   UNL     1      43.714   5.548  11.104  0.00  0.00    +0.000 C 
ATOM      6  C   UNL     1      44.796   6.511  10.584  0.00  0.00    +0.000 C 
ATOM      7  C   UNL     1      46.207   6.102  11.011  0.00  0.00    +0.000 C 
BRANCH   5   8
ATOM      8  C   UNL     1      43.799   4.210  10.345  0.00  0.00    +0.000 C 
BRANCH   8   9
ATOM      9  N   UNL     1      44.046   4.418   8.930  0.00  0.00    +0.000 N 
ATOM     10  C   UNL     1      44.979   3.533   8.404  0.00  0.00    +0.000 A 
ATOM     11  N   UNL     1      45.103   2.297   8.916  0.00  0.00    +0.000 NA
ATOM     12  C   UNL     1      46.038   1.497   8.382  0.00  0.00    +0.000 A 
ATOM     13  C   UNL     1      46.857   1.875   7.351  0.00  0.00    +0.000 A 
ATOM     14  C   UNL     1      46.659   3.154   6.896  0.00  0.00    +0.000 A 
ATOM     15  N   UNL     1      45.740   3.998   7.406  0.00  0.00    +0.000 NA
ATOM     16  H   UNL     1      44.351   5.346   8.658  0.00  0.00    +0.000 HD
ENDBRANCH   8   9
ENDBRANCH   5   8
ENDBRANCH   1   2
BRANCH   1  19
ATOM     17  O   UNL     1      49.043   6.347  13.319  0.00  0.00    +0.000 OA
ATOM     18  C   UNL     1      48.483   6.725  14.338  0.00  0.00    +0.000 C 
ATOM     19  N   UNL     1      47.218   7.269  14.382  0.00  0.00    +0.000 N 
ATOM     20  H   UNL     1      46.775   7.321  15.287  0.00  0.00    +0.000 HD
BRANCH  18  21
ATOM     21  C   UNL     1      48.979   6.459  15.683  0.00  0.00    +0.000 A 
ATOM     22  C   UNL     1      49.850   7.310  16.338  0.00  0.00    +0.000 A 
ATOM     23  S   UNL     1      50.670   6.514  17.618  0.00  0.00    +0.000 S 
ATOM     24  C   UNL     1      49.779   5.079  17.374  0.00  0.00    +0.000 A 
ATOM     25  N   UNL     1      50.065   3.919  18.024  0.00  0.00    +0.000 NA
ATOM     26  C   UNL     1      49.256   2.947  17.751  0.00  0.00    +0.000 A 
ATOM     27  N   UNL     1      48.159   3.038  16.929  0.00  0.00    +0.000 N 
ATOM     28  C   UNL     1      47.816   4.197  16.272  0.00  0.00    +0.000 A 
ATOM     29  O   UNL     1      46.783   4.294  15.623  0.00  0.00    +0.000 OA
ATOM     30  C   UNL     1      48.778   5.263  16.446  0.00  0.00    +0.000 A 
ATOM     31  H   UNL     1      47.512   2.270  16.835  0.00  0.00    +0.000 HD
ENDBRANCH  18  21
ENDBRANCH   1  19
TORSDOF 5
ENDMDL
MODEL 2
REMARK VINA RESULT:    -8.182      3.421      4.225
REMARK INTER + INTRA:         -11.105
REMARK INTER:                 -10.619
REMARK INTRA:                  -0.487
REMARK UNBOUND:                -0.531
REMARK  Name = 
REMARK  5 active torsions:
REMARK  status: ('A' for Active; 'I' for Inactive)
REMARK    1  A    between atoms: C_2  and  C_19
REMARK    2  A    between atoms: N_3  and  C_4
REMARK    3  A    between atoms: C_4  and  C_5
REMARK    4  A    between atoms: C_8  and  C_9
REMARK    5  A    between atoms: C_9  and  N_10
REMARK                            x       y       z     vdW  Elec       q    Type
REMARK                         _______ _______ _______ _____ _____    ______ ____
ROOT
ATOM      1  C   UNL     1      45.210   6.193  13.102  0.00  0.00    +0.000 C 
ENDROOT
BRANCH   1   2
ATOM      2  C   UNL     1      45.800   5.152  12.132  0.00  0.00    +0.000 C 
ATOM      3  C   UNL     1      45.567   3.705  12.606  0.00  0.00    +0.000 C 
ATOM      4  C   UNL     1      44.114   3.258  12.448  0.00  0.00    +0.000 C 
ATOM      5  C   UNL     1      43.578   3.456  11.019  0.00  0.00    +0.000 C 
ATOM      6  C   UNL     1      43.803   4.910  10.568  0.00  0.00    +0.000 C 
ATOM      7  C   UNL     1      45.260   5.357  10.711  0.00  0.00    +0.000 C 
BRANCH   5   8
ATOM      8  C   UNL     1      44.211   2.490  10.000  0.00  0.00    +0.000 C 
BRANCH   8   9
ATOM      9  N   UNL     1      44.290   3.089   8.679  0.00  0.00    +0.000 N 
ATOM     10  C   UNL     1      45.453   2.756   7.998  0.00  0.00    +0.000 A 
ATOM     11  N   UNL     1      46.050   1.572   8.217  0.00  0.00    +0.000 NA
ATOM     12  C   UNL     1      47.185   1.318   7.547  0.00  0.00    +0.000 A 
ATOM     13  C   UNL     1      47.752   2.195   6.660  0.00  0.00    +0.000 A 
ATOM     14  C   UNL     1      47.073   3.377   6.505  0.00  0.00    +0.000 A 
ATOM     15  N   UNL     1      45.936   3.683   7.161  0.00  0.00    +0.000 NA
ATOM     16  H   UNL     1      44.217   4.100   8.639  0.00  0.00    +0.000 HD
ENDBRANCH   8   9
ENDBRANCH   5   8
ENDBRANCH   1   2
BRANCH   1  19
ATOM     17  O   UNL     1      45.307   8.501  11.397  0.00  0.00    +0.000 OA
ATOM     18  C   UNL     1      46.112   8.360  12.306  0.00  0.00    +0.000 C 
ATOM     19  N   UNL     1      46.091   7.328  13.220  0.00  0.00    +0.000 N 
ATOM     20  H   UNL     1      46.927   7.186  13.765  0.00  0.00    +0.000 HD
BRANCH  18  21
ATOM     21  C   UNL     1      47.341   9.135  12.430  0.00  0.00    +0.000 A 
ATOM     22  C   UNL     1      47.342  10.507  12.602  0.00  0.00    +0.000 A 
ATOM     23  S   UNL     1      48.854  11.197  12.176  0.00  0.00    +0.000 S 
ATOM     24  C   UNL     1      49.538   9.661  11.879  0.00  0.00    +0.000 A 
ATOM     25  N   UNL     1      50.772   9.501  11.330  0.00  0.00    +0.000 NA
ATOM     26  C   UNL     1      51.147   8.267  11.222  0.00  0.00    +0.000 A 
ATOM     27  N   UNL     1      50.425   7.181  11.656  0.00  0.00    +0.000 N 
ATOM     28  C   UNL     1      49.185   7.297  12.241  0.00  0.00    +0.000 A 
ATOM     29  O   UNL     1      48.598   6.332  12.713  0.00  0.00    +0.000 OA
ATOM     30  C   UNL     1      48.677   8.651  12.250  0.00  0.00    +0.000 A 
ATOM     31  H   UNL     1      50.817   6.252  11.632  0.00  0.00    +0.000 HD
ENDBRANCH  18  21
ENDBRANCH   1  19
TORSDOF 5
ENDMDL
MODEL 3
REMARK VINA RESULT:    -8.027      2.040      2.466
REMARK INTER + INTRA:         -10.904
REMARK INTER:                 -10.184
REMARK INTRA:                  -0.720
REMARK UNBOUND:                -0.531
REMARK  Name = 
REMARK  5 active torsions:
REMARK  status: ('A' for Active; 'I' for Inactive)
REMARK    1  A    between atoms: C_2  and  C_19
REMARK    2  A    between atoms: N_3  and  C_4
REMARK    3  A    between atoms: C_4  and  C_5
REMARK    4  A    between atoms: C_8  and  C_9
REMARK    5  A    between atoms: C_9  and  N_10
REMARK                            x       y       z     vdW  Elec       q    Type
REMARK                         _______ _______ _______ _____ _____    ______ ____
ROOT
ATOM      1  C   UNL     1      47.270   7.229  13.277  0.00  0.00    +0.000 C 
ENDROOT
BRANCH   1   2
ATOM      2  C   UNL     1      47.007   5.961  12.443  0.00  0.00    +0.000 C 
ATOM      3  C   UNL     1      46.083   4.962  13.163  0.00  0.00    +0.000 C 
ATOM      4  C   UNL     1      44.627   5.425  13.203  0.00  0.00    +0.000 C 
ATOM      5  C   UNL     1      44.072   5.775  11.811  0.00  0.00    +0.000 C 
ATOM      6  C   UNL     1      44.998   6.787  11.112  0.00  0.00    +0.000 C 
ATOM      7  C   UNL     1      46.454   6.319  11.058  0.00  0.00    +0.000 C 
BRANCH   5   8
ATOM      8  C   UNL     1      43.878   4.539  10.912  0.00  0.00    +0.000 C 
BRANCH   8   9
ATOM      9  N   UNL     1      44.092   4.862   9.512  0.00  0.00    +0.000 N 
ATOM     10  C   UNL     1      44.897   3.940   8.857  0.00  0.00    +0.000 A 
ATOM     11  N   UNL     1      44.900   2.652   9.240  0.00  0.00    +0.000 NA
ATOM     12  C   UNL     1      45.718   1.813   8.585  0.00  0.00    +0.000 A 
ATOM     13  C   UNL     1      46.533   2.203   7.555  0.00  0.00    +0.000 A 
ATOM     14  C   UNL     1      46.463   3.537   7.237  0.00  0.00    +0.000 A 
ATOM     15  N   UNL     1      45.666   4.419   7.872  0.00  0.00    +0.000 NA
ATOM     16  H   UNL     1      44.489   5.775   9.317  0.00  0.00    +0.000 HD
ENDBRANCH   8   9
ENDBRANCH   5   8
ENDBRANCH   1   2
BRANCH   1  19
ATOM     17  O   UNL     1      49.772   6.802  14.620  0.00  0.00    +0.000 OA
ATOM     18  C   UNL     1      48.711   6.630  15.203  0.00  0.00    +0.000 C 
ATOM     19  N   UNL     1      47.469   6.888  14.664  0.00  0.00    +0.000 N 
ATOM     20  H   UNL     1      46.674   6.490  15.141  0.00  0.00    +0.000 HD
BRANCH  18  21
ATOM     21  C   UNL     1      48.588   5.924  16.473  0.00  0.00    +0.000 A 
ATOM     22  C   UNL     1      48.277   4.579  16.551  0.00  0.00    +0.000 A 
ATOM     23  S   UNL     1      47.674   4.158  18.101  0.00  0.00    +0.000 S 
ATOM     24  C   UNL     1      47.938   5.735  18.697  0.00  0.00    +0.000 A 
ATOM     25  N   UNL     1      47.506   6.138  19.922  0.00  0.00    +0.000 NA
ATOM     26  C   UNL     1      47.837   7.351  20.227  0.00  0.00    +0.000 A 
ATOM     27  N   UNL     1      48.602   8.182  19.444  0.00  0.00    +0.000 N 
ATOM     28  C   UNL     1      49.083   7.809  18.210  0.00  0.00    +0.000 A 
ATOM     29  O   UNL     1      49.845   8.519  17.569  0.00  0.00    +0.000 OA
ATOM     30  C   UNL     1      48.615   6.509  17.780  0.00  0.00    +0.000 A 
ATOM     31  H   UNL     1      48.908   9.082  19.783  0.00  0.00    +0.000 HD
ENDBRANCH  18  21
ENDBRANCH   1  19
TORSDOF 5
ENDMDL
MODEL 4
REMARK VINA RESULT:    -8.014      1.546      2.097
REMARK INTER + INTRA:         -10.887
REMARK INTER:                 -10.965
REMARK INTRA:                   0.078
REMARK UNBOUND:                -0.531
REMARK  Name = 
REMARK  5 active torsions:
REMARK  status: ('A' for Active; 'I' for Inactive)
REMARK    1  A    between atoms: C_2  and  C_19
REMARK    2  A    between atoms: N_3  and  C_4
REMARK    3  A    between atoms: C_4  and  C_5
REMARK    4  A    between atoms: C_8  and  C_9
REMARK    5  A    between atoms: C_9  and  N_10
REMARK                            x       y       z     vdW  Elec       q    Type
REMARK                         _______ _______ _______ _____ _____    ______ ____
ROOT
ATOM      1  C   UNL     1      45.921   5.436  13.785  0.00  0.00    +0.000 C 
ENDROOT
BRANCH   1   2
ATOM      2  C   UNL     1      46.212   4.777  12.424  0.00  0.00    +0.000 C 
ATOM      3  C   UNL     1      45.682   3.333  12.342  0.00  0.00    +0.000 C 
ATOM      4  C   UNL     1      44.160   3.267  12.224  0.00  0.00    +0.000 C 
ATOM      5  C   UNL     1      43.613   4.115  11.062  0.00  0.00    +0.000 C 
ATOM      6  C   UNL     1      44.137   5.558  11.168  0.00  0.00    +0.000 C 
ATOM      7  C   UNL     1      45.662   5.628  11.272  0.00  0.00    +0.000 C 
BRANCH   5   8
ATOM      8  C   UNL     1      43.960   3.534   9.678  0.00  0.00    +0.000 C 
BRANCH   8   9
ATOM      9  N   UNL     1      44.825   2.374   9.791  0.00  0.00    +0.000 N 
ATOM     10  C   UNL     1      45.722   2.258   8.737  0.00  0.00    +0.000 A 
ATOM     11  N   UNL     1      46.177   3.356   8.112  0.00  0.00    +0.000 NA
ATOM     12  C   UNL     1      47.022   3.178   7.084  0.00  0.00    +0.000 A 
ATOM     13  C   UNL     1      47.439   1.946   6.653  0.00  0.00    +0.000 A 
ATOM     14  C   UNL     1      46.919   0.885   7.350  0.00  0.00    +0.000 A 
ATOM     15  N   UNL     1      46.060   1.012   8.382  0.00  0.00    +0.000 NA
ATOM     16  H   UNL     1      44.364   1.475   9.872  0.00  0.00    +0.000 HD
ENDBRANCH   8   9
ENDBRANCH   5   8
ENDBRANCH   1   2
BRANCH   1  19
ATOM     17  O   UNL     1      46.700   3.675  15.915  0.00  0.00    +0.000 OA
ATOM     18  C   UNL     1      47.376   4.654  15.633  0.00  0.00    +0.000 C 
ATOM     19  N   UNL     1      47.123   5.505  14.579  0.00  0.00    +0.000 N 
ATOM     20  H   UNL     1      47.598   6.395  14.588  0.00  0.00    +0.000 HD
BRANCH  18  21
ATOM     21  C   UNL     1      48.422   5.193  16.494  0.00  0.00    +0.000 A 
ATOM     22  C   UNL     1      48.645   6.550  16.634  0.00  0.00    +0.000 A 
ATOM     23  S   UNL     1      50.218   6.874  17.239  0.00  0.00    +0.000 S 
ATOM     24  C   UNL     1      50.553   5.210  17.423  0.00  0.00    +0.000 A 
ATOM     25  N   UNL     1      51.786   4.743  17.756  0.00  0.00    +0.000 NA
ATOM     26  C   UNL     1      51.844   3.458  17.898  0.00  0.00    +0.000 A 
ATOM     27  N   UNL     1      50.775   2.602  17.788  0.00  0.00    +0.000 N 
ATOM     28  C   UNL     1      49.505   3.032  17.479  0.00  0.00    +0.000 A 
ATOM     29  O   UNL     1      48.544   2.274  17.483  0.00  0.00    +0.000 OA
ATOM     30  C   UNL     1      49.434   4.445  17.178  0.00  0.00    +0.000 A 
ATOM     31  H   UNL     1      50.868   1.622  18.008  0.00  0.00    +0.000 HD
ENDBRANCH  18  21
ENDBRANCH   1  19
TORSDOF 5
ENDMDL
MODEL 5
REMARK VINA RESULT:    -7.525      2.775      3.396
REMARK INTER + INTRA:         -10.255
REMARK INTER:                  -9.575
REMARK INTRA:                  -0.680
REMARK UNBOUND:                -0.531
REMARK  Name = 
REMARK  5 active torsions:
REMARK  status: ('A' for Active; 'I' for Inactive)
REMARK    1  A    between atoms: C_2  and  C_19
REMARK    2  A    between atoms: N_3  and  C_4
REMARK    3  A    between atoms: C_4  and  C_5
REMARK    4  A    between atoms: C_8  and  C_9
REMARK    5  A    between atoms: C_9  and  N_10
REMARK                            x       y       z     vdW  Elec       q    Type
REMARK                         _______ _______ _______ _____ _____    ______ ____
ROOT
ATOM      1  C   UNL     1      45.603   6.881  12.902  0.00  0.00    +0.000 C 
ENDROOT
BRANCH   1   2
ATOM      2  C   UNL     1      46.051   5.711  12.006  0.00  0.00    +0.000 C 
ATOM      3  C   UNL     1      45.803   4.339  12.660  0.00  0.00    +0.000 C 
ATOM      4  C   UNL     1      44.324   3.955  12.685  0.00  0.00    +0.000 C 
ATOM      5  C   UNL     1      43.663   4.025  11.298  0.00  0.00    +0.000 C 
ATOM      6  C   UNL     1      43.906   5.408  10.667  0.00  0.00    +0.000 C 
ATOM      7  C   UNL     1      45.387   5.789  10.626  0.00  0.00    +0.000 C 
BRANCH   5   8
ATOM      8  C   UNL     1      44.153   2.922  10.341  0.00  0.00    +0.000 C 
BRANCH   8   9
ATOM      9  N   UNL     1      44.158   3.379   8.963  0.00  0.00    +0.000 N 
ATOM     10  C   UNL     1      45.219   2.871   8.224  0.00  0.00    +0.000 A 
ATOM     11  N   UNL     1      45.729   1.663   8.516  0.00  0.00    +0.000 NA
ATOM     12  C   UNL     1      46.770   1.238   7.783  0.00  0.00    +0.000 A 
ATOM     13  C   UNL     1      47.324   1.966   6.763  0.00  0.00    +0.000 A 
ATOM     14  C   UNL     1      46.739   3.187   6.542  0.00  0.00    +0.000 A 
ATOM     15  N   UNL     1      45.699   3.662   7.256  0.00  0.00    +0.000 NA
ATOM     16  H   UNL     1      44.169   4.383   8.822  0.00  0.00    +0.000 HD
ENDBRANCH   8   9
ENDBRANCH   5   8
ENDBRANCH   1   2
BRANCH   1  19
ATOM     17  O   UNL     1      47.141   9.305  12.856  0.00  0.00    +0.000 OA
ATOM     18  C   UNL     1      47.394   8.417  13.658  0.00  0.00    +0.000 C 
ATOM     19  N   UNL     1      46.661   7.260  13.804  0.00  0.00    +0.000 N 
ATOM     20  H   UNL     1      47.095   6.509  14.320  0.00  0.00    +0.000 HD
BRANCH  18  21
ATOM     21  C   UNL     1      48.631   8.348  14.427  0.00  0.00    +0.000 A 
ATOM     22  C   UNL     1      48.668   8.538  15.796  0.00  0.00    +0.000 A 
ATOM     23  S   UNL     1      50.247   8.939  16.336  0.00  0.00    +0.000 S 
ATOM     24  C   UNL     1      50.896   8.742  14.770  0.00  0.00    +0.000 A 
ATOM     25  N   UNL     1      52.178   9.074  14.462  0.00  0.00    +0.000 NA
ATOM     26  C   UNL     1      52.512   8.812  13.239  0.00  0.00    +0.000 A 
ATOM     27  N   UNL     1      51.701   8.205  12.311  0.00  0.00    +0.000 N 
ATOM     28  C   UNL     1      50.407   7.827  12.586  0.00  0.00    +0.000 A 
ATOM     29  O   UNL     1      49.730   7.197  11.785  0.00  0.00    +0.000 OA
ATOM     30  C   UNL     1      49.958   8.231  13.901  0.00  0.00    +0.000 A 
ATOM     31  H   UNL     1      52.055   7.939  11.404  0.00  0.00    +0.000 HD
ENDBRANCH  18  21
ENDBRANCH   1  19
TORSDOF 5
ENDMDL
MODEL 6
REMARK VINA RESULT:    -7.045      1.624      2.291
REMARK INTER + INTRA:          -9.636
REMARK INTER:                  -8.830
REMARK INTRA:                  -0.805
REMARK UNBOUND:                -0.531
REMARK  Name = 
REMARK  5 active torsions:
REMARK  status: ('A' for Active; 'I' for Inactive)
REMARK    1  A    between atoms: C_2  and  C_19
REMARK    2  A    between atoms: N_3  and  C_4
REMARK    3  A    between atoms: C_4  and  C_5
REMARK    4  A    between atoms: C_8  and  C_9
REMARK    5  A    between atoms: C_9  and  N_10
REMARK                            x       y       z     vdW  Elec       q    Type
REMARK                         _______ _______ _______ _____ _____    ______ ____
ROOT
ATOM      1  C   UNL     1      48.350   8.050  14.333  0.00  0.00    +0.000 C 
ENDROOT
BRANCH   1   2
ATOM      2  C   UNL     1      48.040   7.473  12.939  0.00  0.00    +0.000 C 
ATOM      3  C   UNL     1      47.543   6.017  13.000  0.00  0.00    +0.000 C 
ATOM      4  C   UNL     1      46.116   5.901  13.536  0.00  0.00    +0.000 C 
ATOM      5  C   UNL     1      45.116   6.787  12.772  0.00  0.00    +0.000 C 
ATOM      6  C   UNL     1      45.619   8.241  12.736  0.00  0.00    +0.000 C 
ATOM      7  C   UNL     1      47.042   8.362  12.186  0.00  0.00    +0.000 C 
BRANCH   5   8
ATOM      8  C   UNL     1      44.846   6.292  11.339  0.00  0.00    +0.000 C 
BRANCH   8   9
ATOM      9  N   UNL     1      44.800   4.842  11.278  0.00  0.00    +0.000 N 
ATOM     10  C   UNL     1      45.047   4.342  10.006  0.00  0.00    +0.000 A 
ATOM     11  N   UNL     1      45.851   5.008   9.161  0.00  0.00    +0.000 NA
ATOM     12  C   UNL     1      46.031   4.487   7.938  0.00  0.00    +0.000 A 
ATOM     13  C   UNL     1      45.444   3.322   7.518  0.00  0.00    +0.000 A 
ATOM     14  C   UNL     1      44.638   2.715   8.448  0.00  0.00    +0.000 A 
ATOM     15  N   UNL     1      44.419   3.204   9.685  0.00  0.00    +0.000 NA
ATOM     16  H   UNL     1      43.941   4.405  11.593  0.00  0.00    +0.000 HD
ENDBRANCH   8   9
ENDBRANCH   5   8
ENDBRANCH   1   2
BRANCH   1  19
ATOM     17  O   UNL     1      48.482   8.144  17.199  0.00  0.00    +0.000 OA
ATOM     18  C   UNL     1      48.900   7.173  16.585  0.00  0.00    +0.000 C 
ATOM     19  N   UNL     1      48.804   7.008  15.220  0.00  0.00    +0.000 N 
ATOM     20  H   UNL     1      49.385   6.295  14.806  0.00  0.00    +0.000 HD
BRANCH  18  21
ATOM     21  C   UNL     1      49.753   6.147  17.171  0.00  0.00    +0.000 A 
ATOM     22  C   UNL     1      51.050   6.400  17.580  0.00  0.00    +0.000 A 
ATOM     23  S   UNL     1      51.966   4.955  17.707  0.00  0.00    +0.000 S 
ATOM     24  C   UNL     1      50.608   3.991  17.335  0.00  0.00    +0.000 A 
ATOM     25  N   UNL     1      50.697   2.651  17.120  0.00  0.00    +0.000 NA
ATOM     26  C   UNL     1      49.560   2.075  16.898  0.00  0.00    +0.000 A 
ATOM     27  N   UNL     1      48.338   2.703  16.919  0.00  0.00    +0.000 N 
ATOM     28  C   UNL     1      48.197   4.051  17.159  0.00  0.00    +0.000 A 
ATOM     29  O   UNL     1      47.099   4.578  17.275  0.00  0.00    +0.000 OA
ATOM     30  C   UNL     1      49.459   4.749  17.274  0.00  0.00    +0.000 A 
ATOM     31  H   UNL     1      47.481   2.178  16.836  0.00  0.00    +0.000 HD
ENDBRANCH  18  21
ENDBRANCH   1  19
TORSDOF 5
ENDMDL
MODEL 7
REMARK VINA RESULT:    -6.977      2.646      3.458
REMARK INTER + INTRA:          -9.547
REMARK INTER:                  -9.235
REMARK INTRA:                  -0.312
REMARK UNBOUND:                -0.531
REMARK  Name = 
REMARK  5 active torsions:
REMARK  status: ('A' for Active; 'I' for Inactive)
REMARK    1  A    between atoms: C_2  and  C_19
REMARK    2  A    between atoms: N_3  and  C_4
REMARK    3  A    between atoms: C_4  and  C_5
REMARK    4  A    between atoms: C_8  and  C_9
REMARK    5  A    between atoms: C_9  and  N_10
REMARK                            x       y       z     vdW  Elec       q    Type
REMARK                         _______ _______ _______ _____ _____    ______ ____
ROOT
ATOM      1  C   UNL     1      46.023   5.707  13.631  0.00  0.00    +0.000 C 
ENDROOT
BRANCH   1   2
ATOM      2  C   UNL     1      46.246   5.004  12.278  0.00  0.00    +0.000 C 
ATOM      3  C   UNL     1      45.818   3.525  12.304  0.00  0.00    +0.000 C 
ATOM      4  C   UNL     1      44.299   3.349  12.320  0.00  0.00    +0.000 C 
ATOM      5  C   UNL     1      43.597   4.101  11.176  0.00  0.00    +0.000 C 
ATOM      6  C   UNL     1      44.022   5.580  11.176  0.00  0.00    +0.000 C 
ATOM      7  C   UNL     1      45.542   5.759  11.144  0.00  0.00    +0.000 C 
BRANCH   5   8
ATOM      8  C   UNL     1      43.868   3.480   9.792  0.00  0.00    +0.000 C 
BRANCH   8   9
ATOM      9  N   UNL     1      44.784   2.356   9.886  0.00  0.00    +0.000 N 
ATOM     10  C   UNL     1      45.653   2.270   8.805  0.00  0.00    +0.000 A 
ATOM     11  N   UNL     1      46.044   3.383   8.161  0.00  0.00    +0.000 NA
ATOM     12  C   UNL     1      46.864   3.233   7.110  0.00  0.00    +0.000 A 
ATOM     13  C   UNL     1      47.318   2.016   6.673  0.00  0.00    +0.000 A 
ATOM     14  C   UNL     1      46.863   0.939   7.391  0.00  0.00    +0.000 A 
ATOM     15  N   UNL     1      46.031   1.037   8.447  0.00  0.00    +0.000 NA
ATOM     16  H   UNL     1      44.362   1.440   9.984  0.00  0.00    +0.000 HD
ENDBRANCH   8   9
ENDBRANCH   5   8
ENDBRANCH   1   2
BRANCH   1  19
ATOM     17  O   UNL     1      48.812   6.255  14.031  0.00  0.00    +0.000 OA
ATOM     18  C   UNL     1      48.005   7.166  13.915  0.00  0.00    +0.000 C 
ATOM     19  N   UNL     1      46.665   6.997  13.641  0.00  0.00    +0.000 N 
ATOM     20  H   UNL     1      46.064   7.791  13.802  0.00  0.00    +0.000 HD
BRANCH  18  21
ATOM     21  C   UNL     1      48.292   8.553  14.262  0.00  0.00    +0.000 A 
ATOM     22  C   UNL     1      48.110   9.596  13.373  0.00  0.00    +0.000 A 
ATOM     23  S   UNL     1      49.012  10.982  13.833  0.00  0.00    +0.000 S 
ATOM     24  C   UNL     1      49.544  10.232  15.271  0.00  0.00    +0.000 A 
ATOM     25  N   UNL     1      50.478  10.790  16.086  0.00  0.00    +0.000 NA
ATOM     26  C   UNL     1      50.724  10.104  17.156  0.00  0.00    +0.000 A 
ATOM     27  N   UNL     1      50.088   8.939  17.510  0.00  0.00    +0.000 N 
ATOM     28  C   UNL     1      49.118   8.352  16.730  0.00  0.00    +0.000 A 
ATOM     29  O   UNL     1      48.490   7.371  17.105  0.00  0.00    +0.000 OA
ATOM     30  C   UNL     1      48.919   9.020  15.463  0.00  0.00    +0.000 A 
ATOM     31  H   UNL     1      50.256   8.505  18.406  0.00  0.00    +0.000 HD
ENDBRANCH  18  21
ENDBRANCH   1  19
TORSDOF 5
ENDMDL
MODEL 8
REMARK VINA RESULT:    -6.801      3.016      7.826
REMARK INTER + INTRA:          -9.320
REMARK INTER:                  -8.228
REMARK INTRA:                  -1.093
REMARK UNBOUND:                -0.531
REMARK  Name = 
REMARK  5 active torsions:
REMARK  status: ('A' for Active; 'I' for Inactive)
REMARK    1  A    between atoms: C_2  and  C_19
REMARK    2  A    between atoms: N_3  and  C_4
REMARK    3  A    between atoms: C_4  and  C_5
REMARK    4  A    between atoms: C_8  and  C_9
REMARK    5  A    between atoms: C_9  and  N_10
REMARK                            x       y       z     vdW  Elec       q    Type
REMARK                         _______ _______ _______ _____ _____    ______ ____
ROOT
ATOM      1  C   UNL     1      48.401   8.038  12.151  0.00  0.00    +0.000 C 
ENDROOT
BRANCH   1   2
ATOM      2  C   UNL     1      49.350   7.241  13.066  0.00  0.00    +0.000 C 
ATOM      3  C   UNL     1      50.537   8.087  13.565  0.00  0.00    +0.000 C 
ATOM      4  C   UNL     1      50.129   9.114  14.621  0.00  0.00    +0.000 C 
ATOM      5  C   UNL     1      49.371   8.487  15.805  0.00  0.00    +0.000 C 
ATOM      6  C   UNL     1      48.179   7.660  15.290  0.00  0.00    +0.000 C 
ATOM      7  C   UNL     1      48.587   6.621  14.243  0.00  0.00    +0.000 C 
BRANCH   5   8
ATOM      8  C   UNL     1      50.269   7.608  16.697  0.00  0.00    +0.000 C 
BRANCH   8   9
ATOM      9  N   UNL     1      49.499   6.943  17.733  0.00  0.00    +0.000 N 
ATOM     10  C   UNL     1      49.646   5.562  17.720  0.00  0.00    +0.000 A 
ATOM     11  N   UNL     1      50.797   5.009  17.301  0.00  0.00    +0.000 NA
ATOM     12  C   UNL     1      50.870   3.669  17.288  0.00  0.00    +0.000 A 
ATOM     13  C   UNL     1      49.842   2.852  17.681  0.00  0.00    +0.000 A 
ATOM     14  C   UNL     1      48.708   3.507  18.089  0.00  0.00    +0.000 A 
ATOM     15  N   UNL     1      48.583   4.849  18.111  0.00  0.00    +0.000 NA
ATOM     16  H   UNL     1      48.501   7.122  17.736  0.00  0.00    +0.000 HD
ENDBRANCH   8   9
ENDBRANCH   5   8
ENDBRANCH   1   2
BRANCH   1  19
ATOM     17  O   UNL     1      45.579   7.541  12.326  0.00  0.00    +0.000 OA
ATOM     18  C   UNL     1      46.277   6.916  11.542  0.00  0.00    +0.000 C 
ATOM     19  N   UNL     1      47.620   7.143  11.334  0.00  0.00    +0.000 N 
ATOM     20  H   UNL     1      48.134   6.423  10.849  0.00  0.00    +0.000 HD
BRANCH  18  21
ATOM     21  C   UNL     1      45.848   5.696  10.868  0.00  0.00    +0.000 A 
ATOM     22  C   UNL     1      45.895   5.547   9.494  0.00  0.00    +0.000 A 
ATOM     23  S   UNL     1      44.858   4.290   8.958  0.00  0.00    +0.000 S 
ATOM     24  C   UNL     1      44.442   3.870  10.559  0.00  0.00    +0.000 A 
ATOM     25  N   UNL     1      43.469   2.965  10.851  0.00  0.00    +0.000 NA
ATOM     26  C   UNL     1      43.323   2.736  12.116  0.00  0.00    +0.000 A 
ATOM     27  N   UNL     1      44.089   3.289  13.113  0.00  0.00    +0.000 N 
ATOM     28  C   UNL     1      45.101   4.188  12.864  0.00  0.00    +0.000 A 
ATOM     29  O   UNL     1      45.841   4.595  13.750  0.00  0.00    +0.000 OA
ATOM     30  C   UNL     1      45.199   4.570  11.472  0.00  0.00    +0.000 A 
ATOM     31  H   UNL     1      43.988   2.993  14.073  0.00  0.00    +0.000 HD
ENDBRANCH  18  21
ENDBRANCH   1  19
TORSDOF 5
ENDMDL
MODEL 9
REMARK VINA RESULT:    -6.801      1.992      2.615
REMARK INTER + INTRA:          -9.320
REMARK INTER:                  -8.854
REMARK INTRA:                  -0.467
REMARK UNBOUND:                -0.531
REMARK  Name = 
REMARK  5 active torsions:
REMARK  status: ('A' for Active; 'I' for Inactive)
REMARK    1  A    between atoms: C_2  and  C_19
REMARK    2  A    between atoms: N_3  and  C_4
REMARK    3  A    between atoms: C_4  and  C_5
REMARK    4  A    between atoms: C_8  and  C_9
REMARK    5  A    between atoms: C_9  and  N_10
REMARK                            x       y       z     vdW  Elec       q    Type
REMARK                         _______ _______ _______ _____ _____    ______ ____
ROOT
ATOM      1  C   UNL     1      47.974   7.097  13.803  0.00  0.00    +0.000 C 
ENDROOT
BRANCH   1   2
ATOM      2  C   UNL     1      47.716   5.964  12.792  0.00  0.00    +0.000 C 
ATOM      3  C   UNL     1      46.938   4.787  13.410  0.00  0.00    +0.000 C 
ATOM      4  C   UNL     1      45.465   5.115  13.654  0.00  0.00    +0.000 C 
ATOM      5  C   UNL     1      44.752   5.639  12.396  0.00  0.00    +0.000 C 
ATOM      6  C   UNL     1      45.532   6.825  11.801  0.00  0.00    +0.000 C 
ATOM      7  C   UNL     1      47.004   6.495  11.541  0.00  0.00    +0.000 C 
BRANCH   5   8
ATOM      8  C   UNL     1      44.553   4.554  11.320  0.00  0.00    +0.000 C 
BRANCH   8   9
ATOM      9  N   UNL     1      44.707   5.099   9.983  0.00  0.00    +0.000 N 
ATOM     10  C   UNL     1      45.304   4.210   9.098  0.00  0.00    +0.000 A 
ATOM     11  N   UNL     1      45.134   2.886   9.252  0.00  0.00    +0.000 NA
ATOM     12  C   UNL     1      45.757   2.077   8.380  0.00  0.00    +0.000 A 
ATOM     13  C   UNL     1      46.542   2.533   7.354  0.00  0.00    +0.000 A 
ATOM     14  C   UNL     1      46.659   3.898   7.280  0.00  0.00    +0.000 A 
ATOM     15  N   UNL     1      46.062   4.751   8.136  0.00  0.00    +0.000 NA
ATOM     16  H   UNL     1      45.227   5.966   9.908  0.00  0.00    +0.000 HD
ENDBRANCH   8   9
ENDBRANCH   5   8
ENDBRANCH   1   2
BRANCH   1  19
ATOM     17  O   UNL     1      48.884   8.485  16.146  0.00  0.00    +0.000 OA
ATOM     18  C   UNL     1      48.634   7.288  16.184  0.00  0.00    +0.000 C 
ATOM     19  N   UNL     1      48.118   6.561  15.134  0.00  0.00    +0.000 N 
ATOM     20  H   UNL     1      48.177   5.556  15.204  0.00  0.00    +0.000 HD
BRANCH  18  21
ATOM     21  C   UNL     1      49.045   6.408  17.271  0.00  0.00    +0.000 A 
ATOM     22  C   UNL     1      48.138   5.759  18.089  0.00  0.00    +0.000 A 
ATOM     23  S   UNL     1      48.860   5.258  19.563  0.00  0.00    +0.000 S 
ATOM     24  C   UNL     1      50.400   5.798  19.060  0.00  0.00    +0.000 A 
ATOM     25  N   UNL     1      51.476   5.823  19.891  0.00  0.00    +0.000 NA
ATOM     26  C   UNL     1      52.571   6.216  19.326  0.00  0.00    +0.000 A 
ATOM     27  N   UNL     1      52.703   6.539  17.998  0.00  0.00    +0.000 N 
ATOM     28  C   UNL     1      51.649   6.503  17.114  0.00  0.00    +0.000 A 
ATOM     29  O   UNL     1      51.801   6.696  15.915  0.00  0.00    +0.000 OA
ATOM     30  C   UNL     1      50.382   6.201  17.743  0.00  0.00    +0.000 A 
ATOM     31  H   UNL     1      53.607   6.744  17.599  0.00  0.00    +0.000 HD
ENDBRANCH  18  21
ENDBRANCH   1  19
TORSDOF 5
ENDMDL
