MODEL 1
REMARK VINA RESULT:    -7.699      0.000      0.000
REMARK INTER + INTRA:          -9.974
REMARK INTER:                  -9.950
REMARK INTRA:                  -0.024
REMARK UNBOUND:                -0.024
REMARK  Name = 
REMARK  5 active torsions:
REMARK  status: ('A' for Active; 'I' for Inactive)
REMARK    1  A    between atoms: C_2  and  C_18
REMARK    2  A    between atoms: N_3  and  C_4
REMARK    3  A    between atoms: C_4  and  C_5
REMARK    4  A    between atoms: C_8  and  C_9
REMARK    5  A    between atoms: C_9  and  N_10
REMARK                            x       y       z     vdW  Elec       q    Type
REMARK                         _______ _______ _______ _____ _____    ______ ____
ROOT
ATOM      1  O   UNL     1      46.397   3.403  13.666  0.00  0.00    +0.000 OA
ATOM      2  C   UNL     1      46.282   4.573  14.018  0.00  0.00    +0.000 C 
ATOM      3  N   UNL     1      45.159   5.310  13.751  0.00  0.00    +0.000 N 
ATOM      4  H   UNL     1      45.175   6.310  13.918  0.00  0.00    +0.000 HD
ENDROOT
BRANCH   2   5
ATOM      5  C   UNL     1      47.337   5.249  14.785  0.00  0.00    +0.000 A 
ATOM      6  C   UNL     1      48.074   6.264  14.195  0.00  0.00    +0.000 A 
ATOM      7  S   UNL     1      49.249   6.945  15.230  0.00  0.00    +0.000 S 
ATOM      8  C   UNL     1      48.780   5.938  16.517  0.00  0.00    +0.000 A 
ATOM      9  N   UNL     1      49.373   6.040  17.737  0.00  0.00    +0.000 NA
ATOM     10  C   UNL     1      48.881   5.256  18.638  0.00  0.00    +0.000 A 
ATOM     11  N   UNL     1      47.867   4.361  18.425  0.00  0.00    +0.000 N 
ATOM     12  C   UNL     1      47.303   4.157  17.185  0.00  0.00    +0.000 A 
ATOM     13  O   UNL     1      46.511   3.239  16.993  0.00  0.00    +0.000 OA
ATOM     14  C   UNL     1      47.770   5.066  16.153  0.00  0.00    +0.000 A 
ATOM     15  H   UNL     1      47.550   3.752  19.164  0.00  0.00    +0.000 HD
ENDBRANCH   2   5
BRANCH   3  16
ATOM     16  C   UNL     1      44.112   4.831  12.882  0.00  0.00    +0.000 C 
BRANCH  16  17
ATOM     17  C   UNL     1      44.628   4.655  11.483  0.00  0.00    +0.000 A 
ATOM     18  C   UNL     1      44.225   3.574  10.694  0.00  0.00    +0.000 A 
ATOM     19  C   UNL     1      44.692   3.455   9.388  0.00  0.00    +0.000 A 
ATOM     20  C   UNL     1      45.538   4.436   8.877  0.00  0.00    +0.000 A 
ATOM     21  N   UNL     1      45.930   5.504   9.621  0.00  0.00    +0.000 NA
ATOM     22  C   UNL     1      45.473   5.587  10.896  0.00  0.00    +0.000 A 
BRANCH  20  23
ATOM     23  C   UNL     1      46.109   4.298   7.477  0.00  0.00    +0.000 C 
BRANCH  23  24
ATOM     24  N   UNL     1      46.033   3.006   6.784  0.00  0.00    +0.000 NA
ATOM     25  C   UNL     1      46.583   1.862   7.521  0.00  0.00    +0.000 C 
ATOM     26  C   UNL     1      48.062   1.565   7.232  0.00  0.00    +0.000 C 
ATOM     27  O   UNL     1      48.303   1.422   5.824  0.00  0.00    +0.000 OA
ATOM     28  C   UNL     1      47.908   2.604   5.117  0.00  0.00    +0.000 C 
ATOM     29  C   UNL     1      46.439   2.976   5.378  0.00  0.00    +0.000 C 
ENDBRANCH  23  24
ENDBRANCH  20  23
ENDBRANCH  16  17
ENDBRANCH   3  16
TORSDOF 5
ENDMDL
MODEL 2
REMARK VINA RESULT:    -7.588      3.751      6.322
REMARK INTER + INTRA:          -9.829
REMARK INTER:                  -8.895
REMARK INTRA:                  -0.934
REMARK UNBOUND:                -0.024
REMARK  Name = 
REMARK  5 active torsions:
REMARK  status: ('A' for Active; 'I' for Inactive)
REMARK    1  A    between atoms: C_2  and  C_18
REMARK    2  A    between atoms: N_3  and  C_4
REMARK    3  A    between atoms: C_4  and  C_5
REMARK    4  A    between atoms: C_8  and  C_9
REMARK    5  A    between atoms: C_9  and  N_10
REMARK                            x       y       z     vdW  Elec       q    Type
REMARK                         _______ _______ _______ _____ _____    ______ ____
ROOT
ATOM      1  O   UNL     1      51.563   6.040  16.577  0.00  0.00    +0.000 OA
ATOM      2  C   UNL     1      51.304   5.157  17.389  0.00  0.00    +0.000 C 
ATOM      3  N   UNL     1      50.042   4.969  17.889  0.00  0.00    +0.000 N 
ATOM      4  H   UNL     1      49.912   4.337  18.671  0.00  0.00    +0.000 HD
ENDROOT
BRANCH   2   5
ATOM      5  C   UNL     1      52.334   4.217  17.851  0.00  0.00    +0.000 A 
ATOM      6  C   UNL     1      53.500   4.702  18.423  0.00  0.00    +0.000 A 
ATOM      7  S   UNL     1      54.582   3.475  18.912  0.00  0.00    +0.000 S 
ATOM      8  C   UNL     1      53.507   2.253  18.420  0.00  0.00    +0.000 A 
ATOM      9  N   UNL     1      53.810   0.939  18.600  0.00  0.00    +0.000 NA
ATOM     10  C   UNL     1      52.880   0.121  18.234  0.00  0.00    +0.000 A 
ATOM     11  N   UNL     1      51.684   0.494  17.682  0.00  0.00    +0.000 N 
ATOM     12  C   UNL     1      51.375   1.805  17.393  0.00  0.00    +0.000 A 
ATOM     13  O   UNL     1      50.368   2.092  16.753  0.00  0.00    +0.000 OA
ATOM     14  C   UNL     1      52.356   2.771  17.853  0.00  0.00    +0.000 A 
ATOM     15  H   UNL     1      51.012  -0.198  17.386  0.00  0.00    +0.000 HD
ENDBRANCH   2   5
BRANCH   3  16
ATOM     16  C   UNL     1      48.971   5.903  17.644  0.00  0.00    +0.000 C 
BRANCH  16  17
ATOM     17  C   UNL     1      48.221   5.531  16.398  0.00  0.00    +0.000 A 
ATOM     18  C   UNL     1      48.328   6.295  15.233  0.00  0.00    +0.000 A 
ATOM     19  C   UNL     1      47.649   5.905  14.082  0.00  0.00    +0.000 A 
ATOM     20  C   UNL     1      46.888   4.739  14.104  0.00  0.00    +0.000 A 
ATOM     21  N   UNL     1      46.781   3.972  15.221  0.00  0.00    +0.000 NA
ATOM     22  C   UNL     1      47.441   4.383  16.334  0.00  0.00    +0.000 A 
BRANCH  20  23
ATOM     23  C   UNL     1      46.089   4.326  12.881  0.00  0.00    +0.000 C 
BRANCH  23  24
ATOM     24  N   UNL     1      45.392   5.346  12.087  0.00  0.00    +0.000 NA
ATOM     25  C   UNL     1      44.176   5.896  12.697  0.00  0.00    +0.000 C 
ATOM     26  C   UNL     1      42.880   5.169  12.307  0.00  0.00    +0.000 C 
ATOM     27  O   UNL     1      42.736   5.082  10.882  0.00  0.00    +0.000 OA
ATOM     28  C   UNL     1      43.854   4.405  10.296  0.00  0.00    +0.000 C 
ATOM     29  C   UNL     1      45.193   5.067  10.664  0.00  0.00    +0.000 C 
ENDBRANCH  23  24
ENDBRANCH  20  23
ENDBRANCH  16  17
ENDBRANCH   3  16
TORSDOF 5
ENDMDL
MODEL 3
REMARK VINA RESULT:    -7.457      3.589      4.813
REMARK INTER + INTRA:          -9.661
REMARK INTER:                  -8.470
REMARK INTRA:                  -1.191
REMARK UNBOUND:                -0.024
REMARK  Name = 
REMARK  5 active torsions:
REMARK  status: ('A' for Active; 'I' for Inactive)
REMARK    1  A    between atoms: C_2  and  C_18
REMARK    2  A    between atoms: N_3  and  C_4
REMARK    3  A    between atoms: C_4  and  C_5
REMARK    4  A    between atoms: C_8  and  C_9
REMARK    5  A    between atoms: C_9  and  N_10
REMARK                            x       y       z     vdW  Elec       q    Type
REMARK                         _______ _______ _______ _____ _____    ______ ____
ROOT
ATOM      1  O   UNL     1      48.644   8.686  16.167  0.00  0.00    +0.000 OA
ATOM      2  C   UNL     1      48.967   7.546  15.847  0.00  0.00    +0.000 C 
ATOM      3  N   UNL     1      49.214   7.193  14.547  0.00  0.00    +0.000 N 
ATOM      4  H   UNL     1      49.319   6.212  14.314  0.00  0.00    +0.000 HD
ENDROOT
BRANCH   2   5
ATOM      5  C   UNL     1      49.143   6.490  16.853  0.00  0.00    +0.000 A 
ATOM      6  C   UNL     1      49.994   6.699  17.927  0.00  0.00    +0.000 A 
ATOM      7  S   UNL     1      50.073   5.376  19.003  0.00  0.00    +0.000 S 
ATOM      8  C   UNL     1      48.936   4.497  18.095  0.00  0.00    +0.000 A 
ATOM      9  N   UNL     1      48.516   3.268  18.499  0.00  0.00    +0.000 NA
ATOM     10  C   UNL     1      47.609   2.739  17.747  0.00  0.00    +0.000 A 
ATOM     11  N   UNL     1      47.099   3.315  16.615  0.00  0.00    +0.000 N 
ATOM     12  C   UNL     1      47.562   4.513  16.117  0.00  0.00    +0.000 A 
ATOM     13  O   UNL     1      47.201   4.924  15.018  0.00  0.00    +0.000 OA
ATOM     14  C   UNL     1      48.531   5.185  16.964  0.00  0.00    +0.000 A 
ATOM     15  H   UNL     1      46.414   2.833  16.052  0.00  0.00    +0.000 HD
ENDBRANCH   2   5
BRANCH   3  16
ATOM     16  C   UNL     1      48.935   8.079  13.443  0.00  0.00    +0.000 C 
BRANCH  16  17
ATOM     17  C   UNL     1      47.620   7.734  12.808  0.00  0.00    +0.000 A 
ATOM     18  C   UNL     1      47.527   6.742  11.827  0.00  0.00    +0.000 A 
ATOM     19  C   UNL     1      46.288   6.419  11.282  0.00  0.00    +0.000 A 
ATOM     20  C   UNL     1      45.150   7.074  11.745  0.00  0.00    +0.000 A 
ATOM     21  N   UNL     1      45.214   8.030  12.708  0.00  0.00    +0.000 NA
ATOM     22  C   UNL     1      46.436   8.338  13.212  0.00  0.00    +0.000 A 
BRANCH  20  23
ATOM     23  C   UNL     1      43.796   6.782  11.123  0.00  0.00    +0.000 C 
BRANCH  23  24
ATOM     24  N   UNL     1      43.082   5.549  11.477  0.00  0.00    +0.000 NA
ATOM     25  C   UNL     1      43.069   5.216  12.906  0.00  0.00    +0.000 C 
ATOM     26  C   UNL     1      44.216   4.301  13.361  0.00  0.00    +0.000 C 
ATOM     27  O   UNL     1      44.281   3.108  12.565  0.00  0.00    +0.000 OA
ATOM     28  C   UNL     1      44.450   3.428  11.179  0.00  0.00    +0.000 C 
ATOM     29  C   UNL     1      43.347   4.364  10.659  0.00  0.00    +0.000 C 
ENDBRANCH  23  24
ENDBRANCH  20  23
ENDBRANCH  16  17
ENDBRANCH   3  16
TORSDOF 5
ENDMDL
MODEL 4
REMARK VINA RESULT:    -7.211      4.235      9.624
REMARK INTER + INTRA:          -9.343
REMARK INTER:                  -8.764
REMARK INTRA:                  -0.579
REMARK UNBOUND:                -0.024
REMARK  Name = 
REMARK  5 active torsions:
REMARK  status: ('A' for Active; 'I' for Inactive)
REMARK    1  A    between atoms: C_2  and  C_18
REMARK    2  A    between atoms: N_3  and  C_4
REMARK    3  A    between atoms: C_4  and  C_5
REMARK    4  A    between atoms: C_8  and  C_9
REMARK    5  A    between atoms: C_9  and  N_10
REMARK                            x       y       z     vdW  Elec       q    Type
REMARK                         _______ _______ _______ _____ _____    ______ ____
ROOT
ATOM      1  O   UNL     1      47.129   3.144  13.994  0.00  0.00    +0.000 OA
ATOM      2  C   UNL     1      46.764   4.211  14.478  0.00  0.00    +0.000 C 
ATOM      3  N   UNL     1      46.826   4.464  15.822  0.00  0.00    +0.000 N 
ATOM      4  H   UNL     1      46.367   5.291  16.189  0.00  0.00    +0.000 HD
ENDROOT
BRANCH   2   5
ATOM      5  C   UNL     1      46.269   5.304  13.631  0.00  0.00    +0.000 A 
ATOM      6  C   UNL     1      47.063   6.419  13.413  0.00  0.00    +0.000 A 
ATOM      7  S   UNL     1      46.339   7.587  12.399  0.00  0.00    +0.000 S 
ATOM      8  C   UNL     1      44.958   6.620  12.179  0.00  0.00    +0.000 A 
ATOM      9  N   UNL     1      43.943   7.022  11.368  0.00  0.00    +0.000 NA
ATOM     10  C   UNL     1      42.984   6.166  11.246  0.00  0.00    +0.000 A 
ATOM     11  N   UNL     1      42.933   4.954  11.880  0.00  0.00    +0.000 N 
ATOM     12  C   UNL     1      43.891   4.547  12.783  0.00  0.00    +0.000 A 
ATOM     13  O   UNL     1      43.736   3.530  13.454  0.00  0.00    +0.000 OA
ATOM     14  C   UNL     1      45.029   5.441  12.900  0.00  0.00    +0.000 A 
ATOM     15  H   UNL     1      42.138   4.344  11.768  0.00  0.00    +0.000 HD
ENDBRANCH   2   5
BRANCH   3  16
ATOM     16  C   UNL     1      47.145   3.438  16.785  0.00  0.00    +0.000 C 
BRANCH  16  17
ATOM     17  C   UNL     1      48.617   3.428  17.076  0.00  0.00    +0.000 A 
ATOM     18  C   UNL     1      49.290   4.595  17.448  0.00  0.00    +0.000 A 
ATOM     19  C   UNL     1      50.648   4.549  17.747  0.00  0.00    +0.000 A 
ATOM     20  C   UNL     1      51.314   3.327  17.695  0.00  0.00    +0.000 A 
ATOM     21  N   UNL     1      50.678   2.177  17.351  0.00  0.00    +0.000 NA
ATOM     22  C   UNL     1      49.357   2.252  17.049  0.00  0.00    +0.000 A 
BRANCH  20  23
ATOM     23  C   UNL     1      52.809   3.262  17.957  0.00  0.00    +0.000 C 
BRANCH  23  24
ATOM     24  N   UNL     1      53.303   3.138  19.334  0.00  0.00    +0.000 NA
ATOM     25  C   UNL     1      53.068   4.304  20.194  0.00  0.00    +0.000 C 
ATOM     26  C   UNL     1      54.217   5.324  20.216  0.00  0.00    +0.000 C 
ATOM     27  O   UNL     1      55.467   4.699  20.541  0.00  0.00    +0.000 OA
ATOM     28  C   UNL     1      55.775   3.658  19.607  0.00  0.00    +0.000 C 
ATOM     29  C   UNL     1      54.655   2.608  19.515  0.00  0.00    +0.000 C 
ENDBRANCH  23  24
ENDBRANCH  20  23
ENDBRANCH  16  17
ENDBRANCH   3  16
TORSDOF 5
ENDMDL
MODEL 5
REMARK VINA RESULT:    -7.014      4.069      8.276
REMARK INTER + INTRA:          -9.088
REMARK INTER:                  -8.119
REMARK INTRA:                  -0.969
REMARK UNBOUND:                -0.024
REMARK  Name = 
REMARK  5 active torsions:
REMARK  status: ('A' for Active; 'I' for Inactive)
REMARK    1  A    between atoms: C_2  and  C_18
REMARK    2  A    between atoms: N_3  and  C_4
REMARK    3  A    between atoms: C_4  and  C_5
REMARK    4  A    between atoms: C_8  and  C_9
REMARK    5  A    between atoms: C_9  and  N_10
REMARK                            x       y       z     vdW  Elec       q    Type
REMARK                         _______ _______ _______ _____ _____    ______ ____
ROOT
ATOM      1  O   UNL     1      47.710   7.508  11.699  0.00  0.00    +0.000 OA
ATOM      2  C   UNL     1      46.734   7.538  12.443  0.00  0.00    +0.000 C 
ATOM      3  N   UNL     1      46.709   8.289  13.588  0.00  0.00    +0.000 N 
ATOM      4  H   UNL     1      45.949   8.157  14.247  0.00  0.00    +0.000 HD
ENDROOT
BRANCH   2   5
ATOM      5  C   UNL     1      45.509   6.790  12.127  0.00  0.00    +0.000 A 
ATOM      6  C   UNL     1      44.445   7.439  11.520  0.00  0.00    +0.000 A 
ATOM      7  S   UNL     1      43.108   6.422  11.216  0.00  0.00    +0.000 S 
ATOM      8  C   UNL     1      43.925   5.068  11.842  0.00  0.00    +0.000 A 
ATOM      9  N   UNL     1      43.345   3.838  11.840  0.00  0.00    +0.000 NA
ATOM     10  C   UNL     1      44.098   2.891  12.292  0.00  0.00    +0.000 A 
ATOM     11  N   UNL     1      45.370   3.064  12.768  0.00  0.00    +0.000 N 
ATOM     12  C   UNL     1      45.960   4.304  12.877  0.00  0.00    +0.000 A 
ATOM     13  O   UNL     1      47.035   4.445  13.455  0.00  0.00    +0.000 OA
ATOM     14  C   UNL     1      45.184   5.394  12.314  0.00  0.00    +0.000 A 
ATOM     15  H   UNL     1      45.895   2.286  13.138  0.00  0.00    +0.000 HD
ENDBRANCH   2   5
BRANCH   3  16
ATOM     16  C   UNL     1      47.884   8.949  14.101  0.00  0.00    +0.000 C 
BRANCH  16  17
ATOM     17  C   UNL     1      48.532   8.118  15.170  0.00  0.00    +0.000 A 
ATOM     18  C   UNL     1      48.514   8.519  16.509  0.00  0.00    +0.000 A 
ATOM     19  C   UNL     1      49.091   7.711  17.484  0.00  0.00    +0.000 A 
ATOM     20  C   UNL     1      49.658   6.495  17.111  0.00  0.00    +0.000 A 
ATOM     21  N   UNL     1      49.674   6.078  15.818  0.00  0.00    +0.000 NA
ATOM     22  C   UNL     1      49.118   6.892  14.885  0.00  0.00    +0.000 A 
BRANCH  20  23
ATOM     23  C   UNL     1      50.348   5.625  18.146  0.00  0.00    +0.000 C 
BRANCH  23  24
ATOM     24  N   UNL     1      49.647   4.462  18.705  0.00  0.00    +0.000 NA
ATOM     25  C   UNL     1      49.923   3.182  18.043  0.00  0.00    +0.000 C 
ATOM     26  C   UNL     1      48.946   2.823  16.912  0.00  0.00    +0.000 C 
ATOM     27  O   UNL     1      47.584   2.877  17.360  0.00  0.00    +0.000 OA
ATOM     28  C   UNL     1      47.265   4.178  17.867  0.00  0.00    +0.000 C 
ATOM     29  C   UNL     1      48.219   4.615  18.991  0.00  0.00    +0.000 C 
ENDBRANCH  23  24
ENDBRANCH  20  23
ENDBRANCH  16  17
ENDBRANCH   3  16
TORSDOF 5
ENDMDL
MODEL 6
REMARK VINA RESULT:    -6.982      2.328      3.450
REMARK INTER + INTRA:          -9.047
REMARK INTER:                  -8.370
REMARK INTRA:                  -0.677
REMARK UNBOUND:                -0.024
REMARK  Name = 
REMARK  5 active torsions:
REMARK  status: ('A' for Active; 'I' for Inactive)
REMARK    1  A    between atoms: C_2  and  C_18
REMARK    2  A    between atoms: N_3  and  C_4
REMARK    3  A    between atoms: C_4  and  C_5
REMARK    4  A    between atoms: C_8  and  C_9
REMARK    5  A    between atoms: C_9  and  N_10
REMARK                            x       y       z     vdW  Elec       q    Type
REMARK                         _______ _______ _______ _____ _____    ______ ____
ROOT
ATOM      1  O   UNL     1      50.019   7.021  14.288  0.00  0.00    +0.000 OA
ATOM      2  C   UNL     1      49.198   7.047  15.200  0.00  0.00    +0.000 C 
ATOM      3  N   UNL     1      47.858   7.217  14.974  0.00  0.00    +0.000 N 
ATOM      4  H   UNL     1      47.244   7.392  15.762  0.00  0.00    +0.000 HD
ENDROOT
BRANCH   2   5
ATOM      5  C   UNL     1      49.604   6.858  16.600  0.00  0.00    +0.000 A 
ATOM      6  C   UNL     1      50.537   7.711  17.166  0.00  0.00    +0.000 A 
ATOM      7  S   UNL     1      50.885   7.356  18.799  0.00  0.00    +0.000 S 
ATOM      8  C   UNL     1      49.763   6.079  18.819  0.00  0.00    +0.000 A 
ATOM      9  N   UNL     1      49.533   5.366  19.954  0.00  0.00    +0.000 NA
ATOM     10  C   UNL     1      48.616   4.464  19.843  0.00  0.00    +0.000 A 
ATOM     11  N   UNL     1      47.922   4.193  18.694  0.00  0.00    +0.000 N 
ATOM     12  C   UNL     1      48.188   4.824  17.499  0.00  0.00    +0.000 A 
ATOM     13  O   UNL     1      47.664   4.448  16.454  0.00  0.00    +0.000 OA
ATOM     14  C   UNL     1      49.160   5.898  17.586  0.00  0.00    +0.000 A 
ATOM     15  H   UNL     1      47.239   3.451  18.664  0.00  0.00    +0.000 HD
ENDBRANCH   2   5
BRANCH   3  16
ATOM     16  C   UNL     1      47.335   7.564  13.675  0.00  0.00    +0.000 C 
BRANCH  16  17
ATOM     17  C   UNL     1      46.499   6.445  13.127  0.00  0.00    +0.000 A 
ATOM     18  C   UNL     1      46.962   5.126  13.132  0.00  0.00    +0.000 A 
ATOM     19  C   UNL     1      46.151   4.103  12.649  0.00  0.00    +0.000 A 
ATOM     20  C   UNL     1      44.872   4.409  12.191  0.00  0.00    +0.000 A 
ATOM     21  N   UNL     1      44.395   5.682  12.191  0.00  0.00    +0.000 NA
ATOM     22  C   UNL     1      45.212   6.662  12.652  0.00  0.00    +0.000 A 
BRANCH  20  23
ATOM     23  C   UNL     1      43.992   3.321  11.603  0.00  0.00    +0.000 C 
BRANCH  23  24
ATOM     24  N   UNL     1      43.769   3.267  10.153  0.00  0.00    +0.000 NA
ATOM     25  C   UNL     1      44.237   2.045   9.488  0.00  0.00    +0.000 C 
ATOM     26  C   UNL     1      45.670   2.124   8.940  0.00  0.00    +0.000 C 
ATOM     27  O   UNL     1      45.842   3.263   8.084  0.00  0.00    +0.000 OA
ATOM     28  C   UNL     1      45.532   4.476   8.780  0.00  0.00    +0.000 C 
ATOM     29  C   UNL     1      44.116   4.459   9.377  0.00  0.00    +0.000 C 
ENDBRANCH  23  24
ENDBRANCH  20  23
ENDBRANCH  16  17
ENDBRANCH   3  16
TORSDOF 5
ENDMDL
MODEL 7
REMARK VINA RESULT:    -6.889      4.220      9.591
REMARK INTER + INTRA:          -8.927
REMARK INTER:                  -8.213
REMARK INTRA:                  -0.713
REMARK UNBOUND:                -0.024
REMARK  Name = 
REMARK  5 active torsions:
REMARK  status: ('A' for Active; 'I' for Inactive)
REMARK    1  A    between atoms: C_2  and  C_18
REMARK    2  A    between atoms: N_3  and  C_4
REMARK    3  A    between atoms: C_4  and  C_5
REMARK    4  A    between atoms: C_8  and  C_9
REMARK    5  A    between atoms: C_9  and  N_10
REMARK                            x       y       z     vdW  Elec       q    Type
REMARK                         _______ _______ _______ _____ _____    ______ ____
ROOT
ATOM      1  O   UNL     1      47.314   3.227  13.841  0.00  0.00    +0.000 OA
ATOM      2  C   UNL     1      46.789   4.215  14.345  0.00  0.00    +0.000 C 
ATOM      3  N   UNL     1      46.757   4.415  15.700  0.00  0.00    +0.000 N 
ATOM      4  H   UNL     1      46.176   5.157  16.075  0.00  0.00    +0.000 HD
ENDROOT
BRANCH   2   5
ATOM      5  C   UNL     1      46.187   5.269  13.517  0.00  0.00    +0.000 A 
ATOM      6  C   UNL     1      46.916   6.409  13.220  0.00  0.00    +0.000 A 
ATOM      7  S   UNL     1      46.072   7.524  12.241  0.00  0.00    +0.000 S 
ATOM      8  C   UNL     1      44.720   6.498  12.141  0.00  0.00    +0.000 A 
ATOM      9  N   UNL     1      43.633   6.841  11.399  0.00  0.00    +0.000 NA
ATOM     10  C   UNL     1      42.704   5.945  11.364  0.00  0.00    +0.000 A 
ATOM     11  N   UNL     1      42.751   4.745  12.023  0.00  0.00    +0.000 N 
ATOM     12  C   UNL     1      43.788   4.397  12.860  0.00  0.00    +0.000 A 
ATOM     13  O   UNL     1      43.725   3.390  13.560  0.00  0.00    +0.000 OA
ATOM     14  C   UNL     1      44.893   5.338  12.877  0.00  0.00    +0.000 A 
ATOM     15  H   UNL     1      41.976   4.101  11.981  0.00  0.00    +0.000 HD
ENDBRANCH   2   5
BRANCH   3  16
ATOM     16  C   UNL     1      47.170   3.399  16.638  0.00  0.00    +0.000 C 
BRANCH  16  17
ATOM     17  C   UNL     1      48.207   3.940  17.578  0.00  0.00    +0.000 A 
ATOM     18  C   UNL     1      49.551   3.571  17.463  0.00  0.00    +0.000 A 
ATOM     19  C   UNL     1      50.496   4.116  18.327  0.00  0.00    +0.000 A 
ATOM     20  C   UNL     1      50.090   5.045  19.281  0.00  0.00    +0.000 A 
ATOM     21  N   UNL     1      48.792   5.430  19.401  0.00  0.00    +0.000 NA
ATOM     22  C   UNL     1      47.888   4.872  18.557  0.00  0.00    +0.000 A 
BRANCH  20  23
ATOM     23  C   UNL     1      51.092   5.607  20.274  0.00  0.00    +0.000 C 
BRANCH  23  24
ATOM     24  N   UNL     1      51.590   6.979  20.110  0.00  0.00    +0.000 NA
ATOM     25  C   UNL     1      50.938   7.990  20.951  0.00  0.00    +0.000 C 
ATOM     26  C   UNL     1      49.738   8.691  20.295  0.00  0.00    +0.000 C 
ATOM     27  O   UNL     1      50.087   9.244  19.019  0.00  0.00    +0.000 OA
ATOM     28  C   UNL     1      50.581   8.227  18.139  0.00  0.00    +0.000 C 
ATOM     29  C   UNL     1      51.774   7.466  18.741  0.00  0.00    +0.000 C 
ENDBRANCH  23  24
ENDBRANCH  20  23
ENDBRANCH  16  17
ENDBRANCH   3  16
TORSDOF 5
ENDMDL
MODEL 8
REMARK VINA RESULT:    -6.866      3.818      5.971
REMARK INTER + INTRA:          -8.897
REMARK INTER:                  -8.410
REMARK INTRA:                  -0.487
REMARK UNBOUND:                -0.024
REMARK  Name = 
REMARK  5 active torsions:
REMARK  status: ('A' for Active; 'I' for Inactive)
REMARK    1  A    between atoms: C_2  and  C_18
REMARK    2  A    between atoms: N_3  and  C_4
REMARK    3  A    between atoms: C_4  and  C_5
REMARK    4  A    between atoms: C_8  and  C_9
REMARK    5  A    between atoms: C_9  and  N_10
REMARK                            x       y       z     vdW  Elec       q    Type
REMARK                         _______ _______ _______ _____ _____    ______ ____
ROOT
ATOM      1  O   UNL     1      49.440   1.564  15.950  0.00  0.00    +0.000 OA
ATOM      2  C   UNL     1      49.773   2.258  16.906  0.00  0.00    +0.000 C 
ATOM      3  N   UNL     1      48.880   3.040  17.588  0.00  0.00    +0.000 N 
ATOM      4  H   UNL     1      49.229   3.713  18.262  0.00  0.00    +0.000 HD
ENDROOT
BRANCH   2   5
ATOM      5  C   UNL     1      51.156   2.263  17.402  0.00  0.00    +0.000 A 
ATOM      6  C   UNL     1      51.841   1.066  17.542  0.00  0.00    +0.000 A 
ATOM      7  S   UNL     1      53.437   1.256  18.120  0.00  0.00    +0.000 S 
ATOM      8  C   UNL     1      53.281   2.949  18.157  0.00  0.00    +0.000 A 
ATOM      9  N   UNL     1      54.324   3.740  18.527  0.00  0.00    +0.000 NA
ATOM     10  C   UNL     1      54.086   5.007  18.454  0.00  0.00    +0.000 A 
ATOM     11  N   UNL     1      52.894   5.557  18.069  0.00  0.00    +0.000 N 
ATOM     12  C   UNL     1      51.783   4.796  17.778  0.00  0.00    +0.000 A 
ATOM     13  O   UNL     1      50.687   5.319  17.594  0.00  0.00    +0.000 OA
ATOM     14  C   UNL     1      52.018   3.363  17.773  0.00  0.00    +0.000 A 
ATOM     15  H   UNL     1      52.762   6.557  18.066  0.00  0.00    +0.000 HD
ENDBRANCH   2   5
BRANCH   3  16
ATOM     16  C   UNL     1      47.530   3.251  17.125  0.00  0.00    +0.000 C 
BRANCH  16  17
ATOM     17  C   UNL     1      47.523   4.111  15.895  0.00  0.00    +0.000 A 
ATOM     18  C   UNL     1      47.952   5.440  15.938  0.00  0.00    +0.000 A 
ATOM     19  C   UNL     1      47.968   6.203  14.774  0.00  0.00    +0.000 A 
ATOM     20  C   UNL     1      47.578   5.618  13.572  0.00  0.00    +0.000 A 
ATOM     21  N   UNL     1      47.172   4.323  13.503  0.00  0.00    +0.000 NA
ATOM     22  C   UNL     1      47.151   3.606  14.655  0.00  0.00    +0.000 A 
BRANCH  20  23
ATOM     23  C   UNL     1      47.529   6.446  12.301  0.00  0.00    +0.000 C 
BRANCH  23  24
ATOM     24  N   UNL     1      46.233   6.765  11.689  0.00  0.00    +0.000 NA
ATOM     25  C   UNL     1      45.139   7.028  12.630  0.00  0.00    +0.000 C 
ATOM     26  C   UNL     1      44.299   5.795  12.996  0.00  0.00    +0.000 C 
ATOM     27  O   UNL     1      43.808   5.128  11.824  0.00  0.00    +0.000 OA
ATOM     28  C   UNL     1      44.889   4.731  10.972  0.00  0.00    +0.000 C 
ATOM     29  C   UNL     1      45.788   5.915  10.582  0.00  0.00    +0.000 C 
ENDBRANCH  23  24
ENDBRANCH  20  23
ENDBRANCH  16  17
ENDBRANCH   3  16
TORSDOF 5
ENDMDL
MODEL 9
REMARK VINA RESULT:    -6.427      3.788      6.545
REMARK INTER + INTRA:          -8.329
REMARK INTER:                  -7.370
REMARK INTRA:                  -0.959
REMARK UNBOUND:                -0.024
REMARK  Name = 
REMARK  5 active torsions:
REMARK  status: ('A' for Active; 'I' for Inactive)
REMARK    1  A    between atoms: C_2  and  C_18
REMARK    2  A    between atoms: N_3  and  C_4
REMARK    3  A    between atoms: C_4  and  C_5
REMARK    4  A    between atoms: C_8  and  C_9
REMARK    5  A    between atoms: C_9  and  N_10
REMARK                            x       y       z     vdW  Elec       q    Type
REMARK                         _______ _______ _______ _____ _____    ______ ____
ROOT
ATOM      1  O   UNL     1      51.037   1.532  17.239  0.00  0.00    +0.000 OA
ATOM      2  C   UNL     1      51.229   2.625  17.764  0.00  0.00    +0.000 C 
ATOM      3  N   UNL     1      50.229   3.320  18.392  0.00  0.00    +0.000 N 
ATOM      4  H   UNL     1      50.396   4.282  18.667  0.00  0.00    +0.000 HD
ENDROOT
BRANCH   2   5
ATOM      5  C   UNL     1      52.562   3.242  17.781  0.00  0.00    +0.000 A 
ATOM      6  C   UNL     1      53.653   2.511  18.223  0.00  0.00    +0.000 A 
ATOM      7  S   UNL     1      55.123   3.376  18.168  0.00  0.00    +0.000 S 
ATOM      8  C   UNL     1      54.359   4.742  17.505  0.00  0.00    +0.000 A 
ATOM      9  N   UNL     1      55.073   5.851  17.170  0.00  0.00    +0.000 NA
ATOM     10  C   UNL     1      54.376   6.791  16.624  0.00  0.00    +0.000 A 
ATOM     11  N   UNL     1      53.026   6.735  16.403  0.00  0.00    +0.000 N 
ATOM     12  C   UNL     1      52.249   5.674  16.812  0.00  0.00    +0.000 A 
ATOM     13  O   UNL     1      51.024   5.724  16.746  0.00  0.00    +0.000 OA
ATOM     14  C   UNL     1      52.995   4.558  17.365  0.00  0.00    +0.000 A 
ATOM     15  H   UNL     1      52.534   7.519  16.002  0.00  0.00    +0.000 HD
ENDBRANCH   2   5
BRANCH   3  16
ATOM     16  C   UNL     1      48.847   2.912  18.323  0.00  0.00    +0.000 C 
BRANCH  16  17
ATOM     17  C   UNL     1      48.208   3.424  17.065  0.00  0.00    +0.000 A 
ATOM     18  C   UNL     1      47.811   4.759  16.946  0.00  0.00    +0.000 A 
ATOM     19  C   UNL     1      47.254   5.214  15.755  0.00  0.00    +0.000 A 
ATOM     20  C   UNL     1      47.124   4.332  14.685  0.00  0.00    +0.000 A 
ATOM     21  N   UNL     1      47.517   3.034  14.773  0.00  0.00    +0.000 NA
ATOM     22  C   UNL     1      48.043   2.612  15.950  0.00  0.00    +0.000 A 
BRANCH  20  23
ATOM     23  C   UNL     1      46.463   4.789  13.397  0.00  0.00    +0.000 C 
BRANCH  23  24
ATOM     24  N   UNL     1      45.073   4.407  13.115  0.00  0.00    +0.000 NA
ATOM     25  C   UNL     1      44.898   3.389  12.073  0.00  0.00    +0.000 C 
ATOM     26  C   UNL     1      44.692   3.951  10.658  0.00  0.00    +0.000 C 
ATOM     27  O   UNL     1      43.616   4.900  10.623  0.00  0.00    +0.000 OA
ATOM     28  C   UNL     1      43.859   5.980  11.532  0.00  0.00    +0.000 C 
ATOM     29  C   UNL     1      44.098   5.489  12.969  0.00  0.00    +0.000 C 
ENDBRANCH  23  24
ENDBRANCH  20  23
ENDBRANCH  16  17
ENDBRANCH   3  16
TORSDOF 5
ENDMDL
