MODEL 1
REMARK VINA RESULT:    -8.527      0.000      0.000
REMARK INTER + INTRA:         -11.811
REMARK INTER:                 -11.518
REMARK INTRA:                  -0.293
REMARK UNBOUND:                -0.293
REMARK  Name = 
REMARK  7 active torsions:
REMARK  status: ('A' for Active; 'I' for Inactive)
REMARK    1  A    between atoms: C_1  and  C_2
REMARK    2  A    between atoms: C_2  and  N_3
REMARK    3  A    between atoms: N_3  and  C_4
REMARK    4  A    between atoms: C_8  and  C_9
REMARK    5  A    between atoms: C_9  and  C_10
REMARK    6  A    between atoms: C_10  and  N_11
REMARK    7  A    between atoms: C_15  and  C_16
REMARK                            x       y       z     vdW  Elec       q    Type
REMARK                         _______ _______ _______ _____ _____    ______ ____
ROOT
ATOM      1  C   UNL     1      43.244   5.398  12.322  0.00  0.00    +0.000 C 
ENDROOT
BRANCH   1   6
ATOM      2  C   UNL     1      46.672   4.848  13.965  0.00  0.00    +0.000 A 
ATOM      3  C   UNL     1      47.368   5.959  13.492  0.00  0.00    +0.000 A 
ATOM      4  C   UNL     1      46.740   6.890  12.659  0.00  0.00    +0.000 A 
ATOM      5  C   UNL     1      45.400   6.733  12.302  0.00  0.00    +0.000 A 
ATOM      6  C   UNL     1      44.675   5.631  12.766  0.00  0.00    +0.000 A 
ATOM      7  C   UNL     1      45.321   4.706  13.602  0.00  0.00    +0.000 A 
BRANCH   2   8
ATOM      8  N   UNL     1      47.219   3.921  14.872  0.00  0.00    +0.000 N 
ATOM      9  H   UNL     1      47.539   3.075  14.407  0.00  0.00    +0.000 HD
BRANCH   8  11
ATOM     10  C   UNL     1      48.618   5.313  16.346  0.00  0.00    +0.000 C 
ATOM     11  C   UNL     1      47.725   4.095  16.216  0.00  0.00    +0.000 C 
ATOM     12  C   UNL     1      46.706   3.856  17.353  0.00  0.00    +0.000 C 
ATOM     13  O   UNL     1      47.137   2.478  17.512  0.00  0.00    +0.000 OA
ATOM     14  C   UNL     1      48.327   2.757  16.731  0.00  0.00    +0.000 C 
ENDBRANCH   8  11
ENDBRANCH   2   8
ENDBRANCH   1   6
BRANCH   1  15
ATOM     15  C   UNL     1      43.200   4.505  11.078  0.00  0.00    +0.000 C 
BRANCH  15  16
ATOM     16  N   UNL     1      43.995   5.059   9.972  0.00  0.00    +0.000 N 
ATOM     17  C   UNL     1      44.747   4.062   9.314  0.00  0.00    +0.000 A 
ATOM     18  C   UNL     1      45.556   4.415   8.236  0.00  0.00    +0.000 A 
ATOM     19  C   UNL     1      46.302   3.426   7.584  0.00  0.00    +0.000 A 
ATOM     20  C   UNL     1      46.233   2.103   8.020  0.00  0.00    +0.000 A 
ATOM     21  C   UNL     1      45.388   1.841   9.087  0.00  0.00    +0.000 A 
ATOM     22  N   UNL     1      44.657   2.782   9.724  0.00  0.00    +0.000 NA
ATOM     23  H   UNL     1      44.636   5.786  10.282  0.00  0.00    +0.000 HD
BRANCH  20  24
ATOM     24  C   UNL     1      47.039   1.054   7.348  0.00  0.00    +0.000 C 
ATOM     25  N   UNL     1      46.774  -0.259   7.625  0.00  0.00    +0.000 N 
ATOM     26  O   UNL     1      47.929   1.353   6.567  0.00  0.00    +0.000 OA
ATOM     27  H   UNL     1      46.078  -0.618   8.254  0.00  0.00    +0.000 HD
ATOM     28  H   UNL     1      47.360  -0.941   7.151  0.00  0.00    +0.000 HD
ENDBRANCH  20  24
ENDBRANCH  15  16
ENDBRANCH   1  15
TORSDOF 6
ENDMDL
MODEL 2
REMARK VINA RESULT:    -8.409      2.461      3.512
REMARK INTER + INTRA:         -11.651
REMARK INTER:                 -10.652
REMARK INTRA:                  -1.000
REMARK UNBOUND:                -0.293
REMARK  Name = 
REMARK  7 active torsions:
REMARK  status: ('A' for Active; 'I' for Inactive)
REMARK    1  A    between atoms: C_1  and  C_2
REMARK    2  A    between atoms: C_2  and  N_3
REMARK    3  A    between atoms: N_3  and  C_4
REMARK    4  A    between atoms: C_8  and  C_9
REMARK    5  A    between atoms: C_9  and  C_10
REMARK    6  A    between atoms: C_10  and  N_11
REMARK    7  A    between atoms: C_15  and  C_16
REMARK                            x       y       z     vdW  Elec       q    Type
REMARK                         _______ _______ _______ _____ _____    ______ ____
ROOT
ATOM      1  C   UNL     1      43.236   5.176  12.259  0.00  0.00    +0.000 C 
ENDROOT
BRANCH   1   6
ATOM      2  C   UNL     1      46.716   6.240  13.489  0.00  0.00    +0.000 A 
ATOM      3  C   UNL     1      47.290   4.997  13.750  0.00  0.00    +0.000 A 
ATOM      4  C   UNL     1      46.572   3.819  13.523  0.00  0.00    +0.000 A 
ATOM      5  C   UNL     1      45.273   3.867  13.012  0.00  0.00    +0.000 A 
ATOM      6  C   UNL     1      44.674   5.099  12.735  0.00  0.00    +0.000 A 
ATOM      7  C   UNL     1      45.410   6.272  12.969  0.00  0.00    +0.000 A 
BRANCH   2   8
ATOM      8  N   UNL     1      47.413   7.456  13.616  0.00  0.00    +0.000 N 
ATOM      9  H   UNL     1      47.763   7.599  14.560  0.00  0.00    +0.000 HD
BRANCH   8  11
ATOM     10  C   UNL     1      48.667   7.529  11.497  0.00  0.00    +0.000 C 
ATOM     11  C   UNL     1      48.013   8.313  12.617  0.00  0.00    +0.000 C 
ATOM     12  C   UNL     1      47.181   9.549  12.207  0.00  0.00    +0.000 C 
ATOM     13  O   UNL     1      47.880  10.394  13.160  0.00  0.00    +0.000 OA
ATOM     14  C   UNL     1      48.908   9.382  13.307  0.00  0.00    +0.000 C 
ENDBRANCH   8  11
ENDBRANCH   2   8
ENDBRANCH   1   6
BRANCH   1  15
ATOM     15  C   UNL     1      43.077   4.488  10.899  0.00  0.00    +0.000 C 
BRANCH  15  16
ATOM     16  N   UNL     1      43.991   5.044   9.889  0.00  0.00    +0.000 N 
ATOM     17  C   UNL     1      44.746   4.036   9.252  0.00  0.00    +0.000 A 
ATOM     18  C   UNL     1      45.661   4.389   8.263  0.00  0.00    +0.000 A 
ATOM     19  C   UNL     1      46.411   3.389   7.632  0.00  0.00    +0.000 A 
ATOM     20  C   UNL     1      46.239   2.055   8.000  0.00  0.00    +0.000 A 
ATOM     21  C   UNL     1      45.294   1.795   8.980  0.00  0.00    +0.000 A 
ATOM     22  N   UNL     1      44.558   2.747   9.595  0.00  0.00    +0.000 NA
ATOM     23  H   UNL     1      44.638   5.723  10.284  0.00  0.00    +0.000 HD
BRANCH  20  24
ATOM     24  C   UNL     1      47.047   0.993   7.352  0.00  0.00    +0.000 C 
ATOM     25  N   UNL     1      46.779  -0.314   7.651  0.00  0.00    +0.000 N 
ATOM     26  O   UNL     1      47.941   1.276   6.570  0.00  0.00    +0.000 OA
ATOM     27  H   UNL     1      46.079  -0.661   8.283  0.00  0.00    +0.000 HD
ATOM     28  H   UNL     1      47.366  -1.006   7.193  0.00  0.00    +0.000 HD
ENDBRANCH  20  24
ENDBRANCH  15  16
ENDBRANCH   1  15
TORSDOF 6
ENDMDL
MODEL 3
REMARK VINA RESULT:    -7.760      2.771      3.884
REMARK INTER + INTRA:         -10.775
REMARK INTER:                 -10.194
REMARK INTRA:                  -0.582
REMARK UNBOUND:                -0.293
REMARK  Name = 
REMARK  7 active torsions:
REMARK  status: ('A' for Active; 'I' for Inactive)
REMARK    1  A    between atoms: C_1  and  C_2
REMARK    2  A    between atoms: C_2  and  N_3
REMARK    3  A    between atoms: N_3  and  C_4
REMARK    4  A    between atoms: C_8  and  C_9
REMARK    5  A    between atoms: C_9  and  C_10
REMARK    6  A    between atoms: C_10  and  N_11
REMARK    7  A    between atoms: C_15  and  C_16
REMARK                            x       y       z     vdW  Elec       q    Type
REMARK                         _______ _______ _______ _____ _____    ______ ____
ROOT
ATOM      1  C   UNL     1      43.454   5.560  12.203  0.00  0.00    +0.000 C 
ENDROOT
BRANCH   1   6
ATOM      2  C   UNL     1      46.868   7.157  12.944  0.00  0.00    +0.000 A 
ATOM      3  C   UNL     1      47.488   6.128  13.651  0.00  0.00    +0.000 A 
ATOM      4  C   UNL     1      46.823   4.919  13.880  0.00  0.00    +0.000 A 
ATOM      5  C   UNL     1      45.531   4.717  13.389  0.00  0.00    +0.000 A 
ATOM      6  C   UNL     1      44.886   5.729  12.672  0.00  0.00    +0.000 A 
ATOM      7  C   UNL     1      45.569   6.936  12.451  0.00  0.00    +0.000 A 
BRANCH   2   8
ATOM      8  N   UNL     1      47.512   8.362  12.608  0.00  0.00    +0.000 N 
ATOM      9  H   UNL     1      46.919   9.172  12.772  0.00  0.00    +0.000 HD
BRANCH   8  11
ATOM     10  C   UNL     1      49.615   7.697  11.513  0.00  0.00    +0.000 C 
ATOM     11  C   UNL     1      48.915   8.671  12.438  0.00  0.00    +0.000 C 
ATOM     12  C   UNL     1      49.255  10.168  12.259  0.00  0.00    +0.000 C 
ATOM     13  O   UNL     1      49.529  10.324  13.676  0.00  0.00    +0.000 OA
ATOM     14  C   UNL     1      49.581   8.882  13.828  0.00  0.00    +0.000 C 
ENDBRANCH   8  11
ENDBRANCH   2   8
ENDBRANCH   1   6
BRANCH   1  15
ATOM     15  C   UNL     1      43.413   5.106  10.740  0.00  0.00    +0.000 C 
BRANCH  15  16
ATOM     16  N   UNL     1      43.619   3.656  10.606  0.00  0.00    +0.000 N 
ATOM     17  C   UNL     1      44.566   3.351   9.604  0.00  0.00    +0.000 A 
ATOM     18  C   UNL     1      44.885   2.020   9.347  0.00  0.00    +0.000 A 
ATOM     19  C   UNL     1      45.823   1.717   8.354  0.00  0.00    +0.000 A 
ATOM     20  C   UNL     1      46.425   2.746   7.629  0.00  0.00    +0.000 A 
ATOM     21  C   UNL     1      46.061   4.040   7.965  0.00  0.00    +0.000 A 
ATOM     22  N   UNL     1      45.161   4.350   8.925  0.00  0.00    +0.000 NA
ATOM     23  H   UNL     1      42.757   3.161  10.389  0.00  0.00    +0.000 HD
BRANCH  20  24
ATOM     24  C   UNL     1      47.402   2.431   6.559  0.00  0.00    +0.000 C 
ATOM     25  N   UNL     1      47.338   3.126   5.383  0.00  0.00    +0.000 N 
ATOM     26  O   UNL     1      48.247   1.564   6.718  0.00  0.00    +0.000 OA
ATOM     27  H   UNL     1      46.683   3.848   5.140  0.00  0.00    +0.000 HD
ATOM     28  H   UNL     1      48.020   2.867   4.674  0.00  0.00    +0.000 HD
ENDBRANCH  20  24
ENDBRANCH  15  16
ENDBRANCH   1  15
TORSDOF 6
ENDMDL
MODEL 4
REMARK VINA RESULT:    -7.698      2.110      2.492
REMARK INTER + INTRA:         -10.692
REMARK INTER:                 -10.066
REMARK INTRA:                  -0.625
REMARK UNBOUND:                -0.293
REMARK  Name = 
REMARK  7 active torsions:
REMARK  status: ('A' for Active; 'I' for Inactive)
REMARK    1  A    between atoms: C_1  and  C_2
REMARK    2  A    between atoms: C_2  and  N_3
REMARK    3  A    between atoms: N_3  and  C_4
REMARK    4  A    between atoms: C_8  and  C_9
REMARK    5  A    between atoms: C_9  and  C_10
REMARK    6  A    between atoms: C_10  and  N_11
REMARK    7  A    between atoms: C_15  and  C_16
REMARK                            x       y       z     vdW  Elec       q    Type
REMARK                         _______ _______ _______ _____ _____    ______ ____
ROOT
ATOM      1  C   UNL     1      43.843   5.247  12.138  0.00  0.00    +0.000 C 
ENDROOT
BRANCH   1   6
ATOM      2  C   UNL     1      47.272   6.230  13.562  0.00  0.00    +0.000 A 
ATOM      3  C   UNL     1      47.826   6.894  12.469  0.00  0.00    +0.000 A 
ATOM      4  C   UNL     1      47.101   7.040  11.282  0.00  0.00    +0.000 A 
ATOM      5  C   UNL     1      45.802   6.538  11.177  0.00  0.00    +0.000 A 
ATOM      6  C   UNL     1      45.219   5.871  12.259  0.00  0.00    +0.000 A 
ATOM      7  C   UNL     1      45.961   5.735  13.444  0.00  0.00    +0.000 A 
BRANCH   2   8
ATOM      8  N   UNL     1      47.914   6.123  14.809  0.00  0.00    +0.000 N 
ATOM      9  H   UNL     1      48.052   5.155  15.087  0.00  0.00    +0.000 HD
BRANCH   8  11
ATOM     10  C   UNL     1      48.134   8.480  15.491  0.00  0.00    +0.000 C 
ATOM     11  C   UNL     1      48.708   7.079  15.551  0.00  0.00    +0.000 C 
ATOM     12  C   UNL     1      49.225   6.597  16.926  0.00  0.00    +0.000 C 
ATOM     13  O   UNL     1      50.495   6.186  16.356  0.00  0.00    +0.000 OA
ATOM     14  C   UNL     1      50.205   6.943  15.154  0.00  0.00    +0.000 C 
ENDBRANCH   8  11
ENDBRANCH   2   8
ENDBRANCH   1   6
BRANCH   1  15
ATOM     15  C   UNL     1      43.574   4.801  10.696  0.00  0.00    +0.000 C 
BRANCH  15  16
ATOM     16  N   UNL     1      43.811   3.361  10.511  0.00  0.00    +0.000 N 
ATOM     17  C   UNL     1      44.722   3.111   9.462  0.00  0.00    +0.000 A 
ATOM     18  C   UNL     1      45.064   1.796   9.152  0.00  0.00    +0.000 A 
ATOM     19  C   UNL     1      45.966   1.547   8.111  0.00  0.00    +0.000 A 
ATOM     20  C   UNL     1      46.510   2.612   7.393  0.00  0.00    +0.000 A 
ATOM     21  C   UNL     1      46.127   3.887   7.782  0.00  0.00    +0.000 A 
ATOM     22  N   UNL     1      45.262   4.145   8.788  0.00  0.00    +0.000 NA
ATOM     23  H   UNL     1      42.954   2.849  10.315  0.00  0.00    +0.000 HD
BRANCH  20  24
ATOM     24  C   UNL     1      47.449   2.355   6.274  0.00  0.00    +0.000 C 
ATOM     25  N   UNL     1      47.384   3.150   5.164  0.00  0.00    +0.000 N 
ATOM     26  O   UNL     1      48.262   1.446   6.335  0.00  0.00    +0.000 OA
ATOM     27  H   UNL     1      46.752   3.915   5.001  0.00  0.00    +0.000 HD
ATOM     28  H   UNL     1      48.037   2.929   4.417  0.00  0.00    +0.000 HD
ENDBRANCH  20  24
ENDBRANCH  15  16
ENDBRANCH   1  15
TORSDOF 6
ENDMDL
MODEL 5
REMARK VINA RESULT:    -7.544      2.420      2.859
REMARK INTER + INTRA:         -10.484
REMARK INTER:                 -10.140
REMARK INTRA:                  -0.344
REMARK UNBOUND:                -0.293
REMARK  Name = 
REMARK  7 active torsions:
REMARK  status: ('A' for Active; 'I' for Inactive)
REMARK    1  A    between atoms: C_1  and  C_2
REMARK    2  A    between atoms: C_2  and  N_3
REMARK    3  A    between atoms: N_3  and  C_4
REMARK    4  A    between atoms: C_8  and  C_9
REMARK    5  A    between atoms: C_9  and  C_10
REMARK    6  A    between atoms: C_10  and  N_11
REMARK    7  A    between atoms: C_15  and  C_16
REMARK                            x       y       z     vdW  Elec       q    Type
REMARK                         _______ _______ _______ _____ _____    ______ ____
ROOT
ATOM      1  C   UNL     1      42.909   5.057  12.110  0.00  0.00    +0.000 C 
ENDROOT
BRANCH   1   6
ATOM      2  C   UNL     1      45.952   7.204  13.050  0.00  0.00    +0.000 A 
ATOM      3  C   UNL     1      45.715   8.340  12.279  0.00  0.00    +0.000 A 
ATOM      4  C   UNL     1      44.579   8.428  11.469  0.00  0.00    +0.000 A 
ATOM      5  C   UNL     1      43.652   7.384  11.432  0.00  0.00    +0.000 A 
ATOM      6  C   UNL     1      43.860   6.234  12.199  0.00  0.00    +0.000 A 
ATOM      7  C   UNL     1      45.006   6.163  13.007  0.00  0.00    +0.000 A 
BRANCH   2   8
ATOM      8  N   UNL     1      47.029   7.088  13.948  0.00  0.00    +0.000 N 
ATOM      9  H   UNL     1      46.828   6.438  14.704  0.00  0.00    +0.000 HD
BRANCH   8  11
ATOM     10  C   UNL     1      49.006   6.902  12.491  0.00  0.00    +0.000 C 
ATOM     11  C   UNL     1      48.429   7.416  13.795  0.00  0.00    +0.000 C 
ATOM     12  C   UNL     1      48.834   8.846  14.218  0.00  0.00    +0.000 C 
ATOM     13  O   UNL     1      49.222   8.394  15.543  0.00  0.00    +0.000 OA
ATOM     14  C   UNL     1      49.209   7.019  15.081  0.00  0.00    +0.000 C 
ENDBRANCH   8  11
ENDBRANCH   2   8
ENDBRANCH   1   6
BRANCH   1  15
ATOM     15  C   UNL     1      43.308   4.121  10.963  0.00  0.00    +0.000 C 
BRANCH  15  16
ATOM     16  N   UNL     1      44.055   4.827   9.911  0.00  0.00    +0.000 N 
ATOM     17  C   UNL     1      44.866   3.946   9.162  0.00  0.00    +0.000 A 
ATOM     18  C   UNL     1      45.641   4.449   8.120  0.00  0.00    +0.000 A 
ATOM     19  C   UNL     1      46.445   3.576   7.378  0.00  0.00    +0.000 A 
ATOM     20  C   UNL     1      46.468   2.217   7.690  0.00  0.00    +0.000 A 
ATOM     21  C   UNL     1      45.651   1.803   8.731  0.00  0.00    +0.000 A 
ATOM     22  N   UNL     1      44.865   2.631   9.453  0.00  0.00    +0.000 NA
ATOM     23  H   UNL     1      44.649   5.563  10.285  0.00  0.00    +0.000 HD
BRANCH  20  24
ATOM     24  C   UNL     1      47.336   1.290   6.924  0.00  0.00    +0.000 C 
ATOM     25  N   UNL     1      48.379   1.806   6.206  0.00  0.00    +0.000 N 
ATOM     26  O   UNL     1      47.124   0.087   6.926  0.00  0.00    +0.000 OA
ATOM     27  H   UNL     1      48.640   2.773   6.123  0.00  0.00    +0.000 HD
ATOM     28  H   UNL     1      48.939   1.134   5.687  0.00  0.00    +0.000 HD
ENDBRANCH  20  24
ENDBRANCH  15  16
ENDBRANCH   1  15
TORSDOF 6
ENDMDL
MODEL 6
REMARK VINA RESULT:    -7.244      3.592      4.322
REMARK INTER + INTRA:         -10.078
REMARK INTER:                  -9.372
REMARK INTRA:                  -0.706
REMARK UNBOUND:                -0.293
REMARK  Name = 
REMARK  7 active torsions:
REMARK  status: ('A' for Active; 'I' for Inactive)
REMARK    1  A    between atoms: C_1  and  C_2
REMARK    2  A    between atoms: C_2  and  N_3
REMARK    3  A    between atoms: N_3  and  C_4
REMARK    4  A    between atoms: C_8  and  C_9
REMARK    5  A    between atoms: C_9  and  C_10
REMARK    6  A    between atoms: C_10  and  N_11
REMARK    7  A    between atoms: C_15  and  C_16
REMARK                            x       y       z     vdW  Elec       q    Type
REMARK                         _______ _______ _______ _____ _____    ______ ____
ROOT
ATOM      1  C   UNL     1      44.171   5.606  11.973  0.00  0.00    +0.000 C 
ENDROOT
BRANCH   1   6
ATOM      2  C   UNL     1      46.001   8.926  12.590  0.00  0.00    +0.000 A 
ATOM      3  C   UNL     1      45.260   9.785  11.781  0.00  0.00    +0.000 A 
ATOM      4  C   UNL     1      44.169   9.309  11.049  0.00  0.00    +0.000 A 
ATOM      5  C   UNL     1      43.791   7.966  11.129  0.00  0.00    +0.000 A 
ATOM      6  C   UNL     1      44.513   7.082  11.936  0.00  0.00    +0.000 A 
ATOM      7  C   UNL     1      45.606   7.578  12.666  0.00  0.00    +0.000 A 
BRANCH   2   8
ATOM      8  N   UNL     1      47.056   9.358  13.416  0.00  0.00    +0.000 N 
ATOM      9  H   UNL     1      46.770   9.446  14.388  0.00  0.00    +0.000 HD
BRANCH   8  11
ATOM     10  C   UNL     1      49.240   8.838  14.429  0.00  0.00    +0.000 C 
ATOM     11  C   UNL     1      48.488   9.338  13.212  0.00  0.00    +0.000 C 
ATOM     12  C   UNL     1      48.963   8.814  11.838  0.00  0.00    +0.000 C 
ATOM     13  O   UNL     1      49.039  10.160  11.299  0.00  0.00    +0.000 OA
ATOM     14  C   UNL     1      48.959  10.705  12.640  0.00  0.00    +0.000 C 
ENDBRANCH   8  11
ENDBRANCH   2   8
ENDBRANCH   1   6
BRANCH   1  15
ATOM     15  C   UNL     1      43.748   5.112  10.585  0.00  0.00    +0.000 C 
BRANCH  15  16
ATOM     16  N   UNL     1      43.903   3.656  10.446  0.00  0.00    +0.000 N 
ATOM     17  C   UNL     1      44.825   3.320   9.432  0.00  0.00    +0.000 A 
ATOM     18  C   UNL     1      45.095   1.978   9.170  0.00  0.00    +0.000 A 
ATOM     19  C   UNL     1      46.010   1.645   8.164  0.00  0.00    +0.000 A 
ATOM     20  C   UNL     1      46.637   2.654   7.433  0.00  0.00    +0.000 A 
ATOM     21  C   UNL     1      46.322   3.960   7.775  0.00  0.00    +0.000 A 
ATOM     22  N   UNL     1      45.447   4.299   8.747  0.00  0.00    +0.000 NA
ATOM     23  H   UNL     1      43.021   3.191  10.240  0.00  0.00    +0.000 HD
BRANCH  20  24
ATOM     24  C   UNL     1      47.590   2.307   6.350  0.00  0.00    +0.000 C 
ATOM     25  N   UNL     1      47.636   3.098   5.236  0.00  0.00    +0.000 N 
ATOM     26  O   UNL     1      48.317   1.330   6.444  0.00  0.00    +0.000 OA
ATOM     27  H   UNL     1      47.082   3.914   5.047  0.00  0.00    +0.000 HD
ATOM     28  H   UNL     1      48.295   2.814   4.515  0.00  0.00    +0.000 HD
ENDBRANCH  20  24
ENDBRANCH  15  16
ENDBRANCH   1  15
TORSDOF 6
ENDMDL
MODEL 7
REMARK VINA RESULT:    -6.826      3.130      7.267
REMARK INTER + INTRA:          -9.514
REMARK INTER:                  -8.497
REMARK INTRA:                  -1.017
REMARK UNBOUND:                -0.293
REMARK  Name = 
REMARK  7 active torsions:
REMARK  status: ('A' for Active; 'I' for Inactive)
REMARK    1  A    between atoms: C_1  and  C_2
REMARK    2  A    between atoms: C_2  and  N_3
REMARK    3  A    between atoms: N_3  and  C_4
REMARK    4  A    between atoms: C_8  and  C_9
REMARK    5  A    between atoms: C_9  and  C_10
REMARK    6  A    between atoms: C_10  and  N_11
REMARK    7  A    between atoms: C_15  and  C_16
REMARK                            x       y       z     vdW  Elec       q    Type
REMARK                         _______ _______ _______ _____ _____    ______ ____
ROOT
ATOM      1  C   UNL     1      48.597   8.899  12.677  0.00  0.00    +0.000 C 
ENDROOT
BRANCH   1   6
ATOM      2  C   UNL     1      45.405   7.110  11.509  0.00  0.00    +0.000 A 
ATOM      3  C   UNL     1      44.523   8.186  11.418  0.00  0.00    +0.000 A 
ATOM      4  C   UNL     1      44.950   9.484  11.717  0.00  0.00    +0.000 A 
ATOM      5  C   UNL     1      46.272   9.727  12.094  0.00  0.00    +0.000 A 
ATOM      6  C   UNL     1      47.181   8.668  12.189  0.00  0.00    +0.000 A 
ATOM      7  C   UNL     1      46.735   7.371  11.885  0.00  0.00    +0.000 A 
BRANCH   2   8
ATOM      8  N   UNL     1      45.062   5.796  11.142  0.00  0.00    +0.000 N 
ATOM      9  H   UNL     1      45.646   5.445  10.387  0.00  0.00    +0.000 HD
BRANCH   8  11
ATOM     10  C   UNL     1      42.825   4.951  11.734  0.00  0.00    +0.000 C 
ATOM     11  C   UNL     1      44.325   4.775  11.855  0.00  0.00    +0.000 C 
ATOM     12  C   UNL     1      44.869   3.335  11.716  0.00  0.00    +0.000 C 
ATOM     13  O   UNL     1      45.632   3.455  12.946  0.00  0.00    +0.000 OA
ATOM     14  C   UNL     1      44.876   4.640  13.303  0.00  0.00    +0.000 C 
ENDBRANCH   8  11
ENDBRANCH   2   8
ENDBRANCH   1   6
BRANCH   1  15
ATOM     15  C   UNL     1      49.191   7.608  13.252  0.00  0.00    +0.000 C 
BRANCH  15  16
ATOM     16  N   UNL     1      49.551   7.751  14.671  0.00  0.00    +0.000 N 
ATOM     17  C   UNL     1      49.048   6.688  15.450  0.00  0.00    +0.000 A 
ATOM     18  C   UNL     1      49.301   6.664  16.819  0.00  0.00    +0.000 A 
ATOM     19  C   UNL     1      48.801   5.609  17.593  0.00  0.00    +0.000 A 
ATOM     20  C   UNL     1      48.053   4.598  16.989  0.00  0.00    +0.000 A 
ATOM     21  C   UNL     1      47.867   4.694  15.619  0.00  0.00    +0.000 A 
ATOM     22  N   UNL     1      48.347   5.702  14.857  0.00  0.00    +0.000 NA
ATOM     23  H   UNL     1      49.214   8.624  15.070  0.00  0.00    +0.000 HD
BRANCH  20  24
ATOM     24  C   UNL     1      47.500   3.490  17.806  0.00  0.00    +0.000 C 
ATOM     25  N   UNL     1      48.178   3.095  18.926  0.00  0.00    +0.000 N 
ATOM     26  O   UNL     1      46.461   2.934  17.485  0.00  0.00    +0.000 OA
ATOM     27  H   UNL     1      49.040   3.471  19.277  0.00  0.00    +0.000 HD
ATOM     28  H   UNL     1      47.767   2.325  19.446  0.00  0.00    +0.000 HD
ENDBRANCH  20  24
ENDBRANCH  15  16
ENDBRANCH   1  15
TORSDOF 6
ENDMDL
MODEL 8
REMARK VINA RESULT:    -6.775      1.590      7.445
REMARK INTER + INTRA:          -9.444
REMARK INTER:                  -8.820
REMARK INTRA:                  -0.624
REMARK UNBOUND:                -0.293
REMARK  Name = 
REMARK  7 active torsions:
REMARK  status: ('A' for Active; 'I' for Inactive)
REMARK    1  A    between atoms: C_1  and  C_2
REMARK    2  A    between atoms: C_2  and  N_3
REMARK    3  A    between atoms: N_3  and  C_4
REMARK    4  A    between atoms: C_8  and  C_9
REMARK    5  A    between atoms: C_9  and  C_10
REMARK    6  A    between atoms: C_10  and  N_11
REMARK    7  A    between atoms: C_15  and  C_16
REMARK                            x       y       z     vdW  Elec       q    Type
REMARK                         _______ _______ _______ _____ _____    ______ ____
ROOT
ATOM      1  C   UNL     1      46.122   7.312  12.292  0.00  0.00    +0.000 C 
ENDROOT
BRANCH   1   6
ATOM      2  C   UNL     1      44.748   3.978  10.971  0.00  0.00    +0.000 A 
ATOM      3  C   UNL     1      43.407   4.086  11.337  0.00  0.00    +0.000 A 
ATOM      4  C   UNL     1      42.939   5.228  11.993  0.00  0.00    +0.000 A 
ATOM      5  C   UNL     1      43.803   6.288  12.278  0.00  0.00    +0.000 A 
ATOM      6  C   UNL     1      45.151   6.209  11.919  0.00  0.00    +0.000 A 
ATOM      7  C   UNL     1      45.605   5.055  11.259  0.00  0.00    +0.000 A 
BRANCH   2   8
ATOM      8  N   UNL     1      45.264   2.894  10.235  0.00  0.00    +0.000 N 
ATOM      9  H   UNL     1      45.453   2.088  10.825  0.00  0.00    +0.000 HD
BRANCH   8  11
ATOM     10  C   UNL     1      44.593   3.727   8.016  0.00  0.00    +0.000 C 
ATOM     11  C   UNL     1      45.222   2.606   8.819  0.00  0.00    +0.000 C 
ATOM     12  C   UNL     1      46.494   1.957   8.228  0.00  0.00    +0.000 C 
ATOM     13  O   UNL     1      45.942   0.623   8.381  0.00  0.00    +0.000 OA
ATOM     14  C   UNL     1      44.623   1.189   8.586  0.00  0.00    +0.000 C 
ENDBRANCH   8  11
ENDBRANCH   2   8
ENDBRANCH   1   6
BRANCH   1  15
ATOM     15  C   UNL     1      47.562   6.787  12.302  0.00  0.00    +0.000 C 
BRANCH  15  16
ATOM     16  N   UNL     1      48.287   7.186  13.518  0.00  0.00    +0.000 N 
ATOM     17  C   UNL     1      48.114   6.253  14.563  0.00  0.00    +0.000 A 
ATOM     18  C   UNL     1      48.737   6.475  15.789  0.00  0.00    +0.000 A 
ATOM     19  C   UNL     1      48.565   5.550  16.825  0.00  0.00    +0.000 A 
ATOM     20  C   UNL     1      47.772   4.420  16.624  0.00  0.00    +0.000 A 
ATOM     21  C   UNL     1      47.206   4.271  15.367  0.00  0.00    +0.000 A 
ATOM     22  N   UNL     1      47.367   5.152  14.354  0.00  0.00    +0.000 NA
ATOM     23  H   UNL     1      47.997   8.100  13.859  0.00  0.00    +0.000 HD
BRANCH  20  24
ATOM     24  C   UNL     1      47.566   3.448  17.725  0.00  0.00    +0.000 C 
ATOM     25  N   UNL     1      48.324   3.564  18.857  0.00  0.00    +0.000 N 
ATOM     26  O   UNL     1      46.740   2.554  17.624  0.00  0.00    +0.000 OA
ATOM     27  H   UNL     1      49.035   4.248  19.043  0.00  0.00    +0.000 HD
ATOM     28  H   UNL     1      48.157   2.867  19.579  0.00  0.00    +0.000 HD
ENDBRANCH  20  24
ENDBRANCH  15  16
ENDBRANCH   1  15
TORSDOF 6
ENDMDL
MODEL 9
REMARK VINA RESULT:    -6.588      3.576      7.819
REMARK INTER + INTRA:          -9.192
REMARK INTER:                  -8.653
REMARK INTRA:                  -0.539
REMARK UNBOUND:                -0.293
REMARK  Name = 
REMARK  7 active torsions:
REMARK  status: ('A' for Active; 'I' for Inactive)
REMARK    1  A    between atoms: C_1  and  C_2
REMARK    2  A    between atoms: C_2  and  N_3
REMARK    3  A    between atoms: N_3  and  C_4
REMARK    4  A    between atoms: C_8  and  C_9
REMARK    5  A    between atoms: C_9  and  C_10
REMARK    6  A    between atoms: C_10  and  N_11
REMARK    7  A    between atoms: C_15  and  C_16
REMARK                            x       y       z     vdW  Elec       q    Type
REMARK                         _______ _______ _______ _____ _____    ______ ____
ROOT
ATOM      1  C   UNL     1      49.054   7.243  14.684  0.00  0.00    +0.000 C 
ENDROOT
BRANCH   1   6
ATOM      2  C   UNL     1      46.004   6.582  12.445  0.00  0.00    +0.000 A 
ATOM      3  C   UNL     1      45.418   7.846  12.425  0.00  0.00    +0.000 A 
ATOM      4  C   UNL     1      46.002   8.913  13.114  0.00  0.00    +0.000 A 
ATOM      5  C   UNL     1      47.193   8.734  13.821  0.00  0.00    +0.000 A 
ATOM      6  C   UNL     1      47.807   7.478  13.855  0.00  0.00    +0.000 A 
ATOM      7  C   UNL     1      47.206   6.418  13.156  0.00  0.00    +0.000 A 
BRANCH   2   8
ATOM      8  N   UNL     1      45.513   5.490  11.705  0.00  0.00    +0.000 N 
ATOM      9  H   UNL     1      46.200   5.137  11.043  0.00  0.00    +0.000 HD
BRANCH   8  11
ATOM     10  C   UNL     1      44.864   3.155  12.142  0.00  0.00    +0.000 C 
ATOM     11  C   UNL     1      44.411   4.590  11.963  0.00  0.00    +0.000 C 
ATOM     12  C   UNL     1      43.337   5.108  12.947  0.00  0.00    +0.000 C 
ATOM     13  O   UNL     1      42.509   5.597  11.858  0.00  0.00    +0.000 OA
ATOM     14  C   UNL     1      43.286   4.818  10.913  0.00  0.00    +0.000 C 
ENDBRANCH   8  11
ENDBRANCH   2   8
ENDBRANCH   1   6
BRANCH   1  15
ATOM     15  C   UNL     1      48.693   7.020  16.157  0.00  0.00    +0.000 C 
BRANCH  15  16
ATOM     16  N   UNL     1      48.076   5.704  16.381  0.00  0.00    +0.000 N 
ATOM     17  C   UNL     1      49.026   4.741  16.787  0.00  0.00    +0.000 A 
ATOM     18  C   UNL     1      48.610   3.437  17.046  0.00  0.00    +0.000 A 
ATOM     19  C   UNL     1      49.551   2.482  17.448  0.00  0.00    +0.000 A 
ATOM     20  C   UNL     1      50.892   2.842  17.581  0.00  0.00    +0.000 A 
ATOM     21  C   UNL     1      51.212   4.165  17.320  0.00  0.00    +0.000 A 
ATOM     22  N   UNL     1      50.315   5.101  16.937  0.00  0.00    +0.000 NA
ATOM     23  H   UNL     1      47.603   5.352  15.552  0.00  0.00    +0.000 HD
BRANCH  20  24
ATOM     24  C   UNL     1      51.899   1.829  17.984  0.00  0.00    +0.000 C 
ATOM     25  N   UNL     1      51.551   0.508  17.959  0.00  0.00    +0.000 N 
ATOM     26  O   UNL     1      53.019   2.166  18.338  0.00  0.00    +0.000 OA
ATOM     27  H   UNL     1      50.663   0.119  17.697  0.00  0.00    +0.000 HD
ATOM     28  H   UNL     1      52.269  -0.148  18.255  0.00  0.00    +0.000 HD
ENDBRANCH  20  24
ENDBRANCH  15  16
ENDBRANCH   1  15
TORSDOF 6
ENDMDL
