MODEL 1
REMARK VINA RESULT:    -8.217      0.000      0.000
REMARK INTER + INTRA:         -11.239
REMARK INTER:                 -11.099
REMARK INTRA:                  -0.139
REMARK UNBOUND:                -0.139
REMARK  Name = 
REMARK  10 active torsions:
REMARK  status: ('A' for Active; 'I' for Inactive)
REMARK    1  A    between atoms: C_1  and  O_2
REMARK    2  A    between atoms: O_2  and  C_3
REMARK    3  A    between atoms: N_10  and  C_11
REMARK    4  A    between atoms: C_15  and  C_16
REMARK    5  A    between atoms: C_16  and  C_17
REMARK    6  A    between atoms: C_16  and  C_18
REMARK    7  A    between atoms: C_16  and  C_19
REMARK    8  A    between atoms: C_19  and  N_20
REMARK    9  A    between atoms: N_20  and  C_21
REMARK   10  A    between atoms: C_24  and  C_25
REMARK                            x       y       z     vdW  Elec       q    Type
REMARK                         _______ _______ _______ _____ _____    ______ ____
ROOT
ATOM      1  C   UNL     1      44.280   5.128  12.224  0.00  0.00    +0.000 C 
ATOM      2  C   UNL     1      45.043   3.807  12.507  0.00  0.00    +0.000 C 
ATOM      3  C   UNL     1      43.018   5.186  13.116  0.00  0.00    +0.000 C 
ENDROOT
BRANCH   1  16
ATOM      4  C   UNL     1      44.944   7.614  11.969  0.00  0.00    +0.000 A 
ATOM      5  C   UNL     1      45.816   8.647  12.289  0.00  0.00    +0.000 A 
ATOM      6  C   UNL     1      46.937   8.384  13.052  0.00  0.00    +0.000 A 
ATOM      7  C   UNL     1      47.185   7.099  13.521  0.00  0.00    +0.000 A 
ATOM      8  N   UNL     1      48.291   6.906  14.316  0.00  0.00    +0.000 N 
ATOM      9  C   UNL     1      48.341   5.823  15.294  0.00  0.00    +0.000 C 
ATOM     10  C   UNL     1      49.165   6.327  16.514  0.00  0.00    +0.000 C 
ATOM     11  N   UNL     1      50.516   6.832  16.149  0.00  0.00    +0.000 NA
ATOM     12  C   UNL     1      51.201   7.377  17.320  0.00  0.00    +0.000 C 
ATOM     13  C   UNL     1      50.397   7.871  15.100  0.00  0.00    +0.000 C 
ATOM     14  C   UNL     1      49.609   7.373  13.870  0.00  0.00    +0.000 C 
ATOM     15  N   UNL     1      46.321   6.090  13.261  0.00  0.00    +0.000 NA
ATOM     16  C   UNL     1      45.212   6.330  12.488  0.00  0.00    +0.000 A 
BRANCH   4  18
ATOM     17  C   UNL     1      43.581   9.166  10.800  0.00  0.00    +0.000 C 
ATOM     18  O   UNL     1      43.825   7.820  11.208  0.00  0.00    +0.000 OA
ENDBRANCH   4  18
ENDBRANCH   1  16
BRANCH   1  19
ATOM     19  C   UNL     1      43.817   5.009  10.732  0.00  0.00    +0.000 C 
BRANCH  19  20
ATOM     20  N   UNL     1      43.797   3.630  10.218  0.00  0.00    +0.000 N 
ATOM     21  H   UNL     1      42.859   3.437   9.846  0.00  0.00    +0.000 HD
BRANCH  20  22
ATOM     22  C   UNL     1      44.797   3.272   9.295  0.00  0.00    +0.000 A 
ATOM     23  C   UNL     1      45.251   1.960   9.121  0.00  0.00    +0.000 A 
ATOM     24  C   UNL     1      46.177   1.647   8.125  0.00  0.00    +0.000 A 
ATOM     25  C   UNL     1      46.612   2.662   7.289  0.00  0.00    +0.000 A 
ATOM     26  N   UNL     1      46.183   3.950   7.382  0.00  0.00    +0.000 NA
ATOM     27  C   UNL     1      45.280   4.204   8.367  0.00  0.00    +0.000 A 
BRANCH  25  28
ATOM     28  C   UNL     1      47.585   2.344   6.192  0.00  0.00    +0.000 C 
ATOM     29  N   UNL     1      47.571   3.201   5.127  0.00  0.00    +0.000 N 
ATOM     30  O   UNL     1      48.346   1.384   6.240  0.00  0.00    +0.000 OA
ATOM     31  H   UNL     1      46.914   3.971   5.117  0.00  0.00    +0.000 HD
ATOM     32  H   UNL     1      48.182   3.029   4.342  0.00  0.00    +0.000 HD
ENDBRANCH  25  28
ENDBRANCH  20  22
ENDBRANCH  19  20
ENDBRANCH   1  19
TORSDOF 6
ENDMDL
MODEL 2
REMARK VINA RESULT:    -6.929      2.974      5.756
REMARK INTER + INTRA:          -9.498
REMARK INTER:                  -8.815
REMARK INTRA:                  -0.683
REMARK UNBOUND:                -0.139
REMARK  Name = 
REMARK  10 active torsions:
REMARK  status: ('A' for Active; 'I' for Inactive)
REMARK    1  A    between atoms: C_1  and  O_2
REMARK    2  A    between atoms: O_2  and  C_3
REMARK    3  A    between atoms: N_10  and  C_11
REMARK    4  A    between atoms: C_15  and  C_16
REMARK    5  A    between atoms: C_16  and  C_17
REMARK    6  A    between atoms: C_16  and  C_18
REMARK    7  A    between atoms: C_16  and  C_19
REMARK    8  A    between atoms: C_19  and  N_20
REMARK    9  A    between atoms: N_20  and  C_21
REMARK   10  A    between atoms: C_24  and  C_25
REMARK                            x       y       z     vdW  Elec       q    Type
REMARK                         _______ _______ _______ _____ _____    ______ ____
ROOT
ATOM      1  C   UNL     1      48.130   3.965  16.649  0.00  0.00    +0.000 C 
ATOM      2  C   UNL     1      48.948   2.682  16.947  0.00  0.00    +0.000 C 
ATOM      3  C   UNL     1      47.044   4.138  17.737  0.00  0.00    +0.000 C 
ENDROOT
BRANCH   1  16
ATOM      4  C   UNL     1      49.949   5.496  17.666  0.00  0.00    +0.000 A 
ATOM      5  C   UNL     1      50.796   6.588  17.523  0.00  0.00    +0.000 A 
ATOM      6  C   UNL     1      50.726   7.362  16.379  0.00  0.00    +0.000 A 
ATOM      7  C   UNL     1      49.832   7.040  15.365  0.00  0.00    +0.000 A 
ATOM      8  N   UNL     1      49.840   7.818  14.229  0.00  0.00    +0.000 N 
ATOM      9  C   UNL     1      49.414   7.282  12.941  0.00  0.00    +0.000 C 
ATOM     10  C   UNL     1      50.279   7.958  11.838  0.00  0.00    +0.000 C 
ATOM     11  N   UNL     1      50.238   9.444  11.881  0.00  0.00    +0.000 NA
ATOM     12  C   UNL     1      51.142  10.018  10.886  0.00  0.00    +0.000 C 
ATOM     13  C   UNL     1      50.607   9.917  13.236  0.00  0.00    +0.000 C 
ATOM     14  C   UNL     1      49.734   9.278  14.337  0.00  0.00    +0.000 C 
ATOM     15  N   UNL     1      49.035   5.952  15.465  0.00  0.00    +0.000 NA
ATOM     16  C   UNL     1      49.078   5.183  16.601  0.00  0.00    +0.000 A 
BRANCH   4  18
ATOM     17  C   UNL     1      49.742   5.364  20.026  0.00  0.00    +0.000 C 
ATOM     18  O   UNL     1      49.972   4.704  18.782  0.00  0.00    +0.000 OA
ENDBRANCH   4  18
ENDBRANCH   1  16
BRANCH   1  19
ATOM     19  C   UNL     1      47.413   3.674  15.287  0.00  0.00    +0.000 C 
BRANCH  19  20
ATOM     20  N   UNL     1      46.334   4.621  14.961  0.00  0.00    +0.000 N 
ATOM     21  H   UNL     1      46.567   5.531  15.377  0.00  0.00    +0.000 HD
BRANCH  20  22
ATOM     22  C   UNL     1      45.979   4.752  13.606  0.00  0.00    +0.000 A 
ATOM     23  C   UNL     1      46.155   5.930  12.873  0.00  0.00    +0.000 A 
ATOM     24  C   UNL     1      45.874   5.975  11.507  0.00  0.00    +0.000 A 
ATOM     25  C   UNL     1      45.448   4.812  10.885  0.00  0.00    +0.000 A 
ATOM     26  N   UNL     1      45.292   3.626  11.532  0.00  0.00    +0.000 NA
ATOM     27  C   UNL     1      45.580   3.634  12.862  0.00  0.00    +0.000 A 
BRANCH  25  28
ATOM     28  C   UNL     1      45.168   4.829   9.410  0.00  0.00    +0.000 C 
ATOM     29  N   UNL     1      43.915   4.421   9.046  0.00  0.00    +0.000 N 
ATOM     30  O   UNL     1      45.999   5.184   8.583  0.00  0.00    +0.000 OA
ATOM     31  H   UNL     1      43.264   4.117   9.760  0.00  0.00    +0.000 HD
ATOM     32  H   UNL     1      43.669   4.381   8.068  0.00  0.00    +0.000 HD
ENDBRANCH  25  28
ENDBRANCH  20  22
ENDBRANCH  19  20
ENDBRANCH   1  19
TORSDOF 6
ENDMDL
MODEL 3
REMARK VINA RESULT:    -6.781      1.608      2.132
REMARK INTER + INTRA:          -9.299
REMARK INTER:                  -9.637
REMARK INTRA:                   0.338
REMARK UNBOUND:                -0.139
REMARK  Name = 
REMARK  10 active torsions:
REMARK  status: ('A' for Active; 'I' for Inactive)
REMARK    1  A    between atoms: C_1  and  O_2
REMARK    2  A    between atoms: O_2  and  C_3
REMARK    3  A    between atoms: N_10  and  C_11
REMARK    4  A    between atoms: C_15  and  C_16
REMARK    5  A    between atoms: C_16  and  C_17
REMARK    6  A    between atoms: C_16  and  C_18
REMARK    7  A    between atoms: C_16  and  C_19
REMARK    8  A    between atoms: C_19  and  N_20
REMARK    9  A    between atoms: N_20  and  C_21
REMARK   10  A    between atoms: C_24  and  C_25
REMARK                            x       y       z     vdW  Elec       q    Type
REMARK                         _______ _______ _______ _____ _____    ______ ____
ROOT
ATOM      1  C   UNL     1      44.281   4.593  12.414  0.00  0.00    +0.000 C 
ATOM      2  C   UNL     1      43.340   4.088  13.539  0.00  0.00    +0.000 C 
ATOM      3  C   UNL     1      43.462   5.437  11.410  0.00  0.00    +0.000 C 
ENDROOT
BRANCH   1  16
ATOM      4  C   UNL     1      45.837   6.656  12.500  0.00  0.00    +0.000 A 
ATOM      5  C   UNL     1      46.857   7.346  13.143  0.00  0.00    +0.000 A 
ATOM      6  C   UNL     1      47.479   6.780  14.240  0.00  0.00    +0.000 A 
ATOM      7  C   UNL     1      47.074   5.539  14.717  0.00  0.00    +0.000 A 
ATOM      8  N   UNL     1      47.697   5.047  15.842  0.00  0.00    +0.000 N 
ATOM      9  C   UNL     1      47.021   4.111  16.733  0.00  0.00    +0.000 C 
ATOM     10  C   UNL     1      47.504   4.407  18.182  0.00  0.00    +0.000 C 
ATOM     11  N   UNL     1      48.984   4.372  18.332  0.00  0.00    +0.000 NA
ATOM     12  C   UNL     1      49.377   4.751  19.688  0.00  0.00    +0.000 C 
ATOM     13  C   UNL     1      49.609   5.286  17.347  0.00  0.00    +0.000 C 
ATOM     14  C   UNL     1      49.162   4.982  15.902  0.00  0.00    +0.000 C 
ATOM     15  N   UNL     1      46.049   4.875  14.134  0.00  0.00    +0.000 NA
ATOM     16  C   UNL     1      45.433   5.414  13.032  0.00  0.00    +0.000 A 
BRANCH   4  18
ATOM     17  C   UNL     1      44.975   8.578  11.406  0.00  0.00    +0.000 C 
ATOM     18  O   UNL     1      45.196   7.168  11.404  0.00  0.00    +0.000 OA
ENDBRANCH   4  18
ENDBRANCH   1  16
BRANCH   1  19
ATOM     19  C   UNL     1      44.759   3.293  11.681  0.00  0.00    +0.000 C 
BRANCH  19  20
ATOM     20  N   UNL     1      44.057   3.024  10.416  0.00  0.00    +0.000 N 
ATOM     21  H   UNL     1      43.327   3.736  10.293  0.00  0.00    +0.000 HD
BRANCH  20  22
ATOM     22  C   UNL     1      44.845   2.893   9.257  0.00  0.00    +0.000 A 
ATOM     23  C   UNL     1      45.168   3.965   8.419  0.00  0.00    +0.000 A 
ATOM     24  C   UNL     1      46.032   3.794   7.336  0.00  0.00    +0.000 A 
ATOM     25  C   UNL     1      46.591   2.543   7.131  0.00  0.00    +0.000 A 
ATOM     26  N   UNL     1      46.348   1.470   7.931  0.00  0.00    +0.000 NA
ATOM     27  C   UNL     1      45.500   1.687   8.973  0.00  0.00    +0.000 A 
BRANCH  25  28
ATOM     28  C   UNL     1      47.546   2.343   5.991  0.00  0.00    +0.000 C 
ATOM     29  N   UNL     1      47.440   3.248   4.971  0.00  0.00    +0.000 N 
ATOM     30  O   UNL     1      48.368   1.435   5.968  0.00  0.00    +0.000 OA
ATOM     31  H   UNL     1      46.735   3.973   5.020  0.00  0.00    +0.000 HD
ATOM     32  H   UNL     1      48.034   3.155   4.160  0.00  0.00    +0.000 HD
ENDBRANCH  25  28
ENDBRANCH  20  22
ENDBRANCH  19  20
ENDBRANCH   1  19
TORSDOF 6
ENDMDL
MODEL 4
REMARK VINA RESULT:    -6.638      3.037      5.699
REMARK INTER + INTRA:          -9.105
REMARK INTER:                  -8.844
REMARK INTRA:                  -0.261
REMARK UNBOUND:                -0.139
REMARK  Name = 
REMARK  10 active torsions:
REMARK  status: ('A' for Active; 'I' for Inactive)
REMARK    1  A    between atoms: C_1  and  O_2
REMARK    2  A    between atoms: O_2  and  C_3
REMARK    3  A    between atoms: N_10  and  C_11
REMARK    4  A    between atoms: C_15  and  C_16
REMARK    5  A    between atoms: C_16  and  C_17
REMARK    6  A    between atoms: C_16  and  C_18
REMARK    7  A    between atoms: C_16  and  C_19
REMARK    8  A    between atoms: C_19  and  N_20
REMARK    9  A    between atoms: N_20  and  C_21
REMARK   10  A    between atoms: C_24  and  C_25
REMARK                            x       y       z     vdW  Elec       q    Type
REMARK                         _______ _______ _______ _____ _____    ______ ____
ROOT
ATOM      1  C   UNL     1      49.033   8.287  12.993  0.00  0.00    +0.000 C 
ATOM      2  C   UNL     1      49.061   9.831  12.842  0.00  0.00    +0.000 C 
ATOM      3  C   UNL     1      49.400   7.639  11.638  0.00  0.00    +0.000 C 
ENDROOT
BRANCH   1  16
ATOM      4  C   UNL     1      51.376   8.226  14.087  0.00  0.00    +0.000 A 
ATOM      5  C   UNL     1      52.179   7.831  15.149  0.00  0.00    +0.000 A 
ATOM      6  C   UNL     1      51.643   7.052  16.157  0.00  0.00    +0.000 A 
ATOM      7  C   UNL     1      50.303   6.684  16.127  0.00  0.00    +0.000 A 
ATOM      8  N   UNL     1      49.813   5.948  17.182  0.00  0.00    +0.000 N 
ATOM      9  C   UNL     1      48.402   5.999  17.550  0.00  0.00    +0.000 C 
ATOM     10  C   UNL     1      48.312   5.850  19.096  0.00  0.00    +0.000 C 
ATOM     11  N   UNL     1      48.995   4.636  19.616  0.00  0.00    +0.000 NA
ATOM     12  C   UNL     1      48.958   4.605  21.077  0.00  0.00    +0.000 C 
ATOM     13  C   UNL     1      50.399   4.610  19.143  0.00  0.00    +0.000 C 
ATOM     14  C   UNL     1      50.501   4.724  17.607  0.00  0.00    +0.000 C 
ATOM     15  N   UNL     1      49.494   7.101  15.126  0.00  0.00    +0.000 NA
ATOM     16  C   UNL     1      50.014   7.859  14.106  0.00  0.00    +0.000 A 
BRANCH   4  18
ATOM     17  C   UNL     1      53.053   8.519  12.434  0.00  0.00    +0.000 C 
ATOM     18  O   UNL     1      51.860   8.989  13.058  0.00  0.00    +0.000 OA
ENDBRANCH   4  18
ENDBRANCH   1  16
BRANCH   1  19
ATOM     19  C   UNL     1      47.537   7.945  13.308  0.00  0.00    +0.000 C 
BRANCH  19  20
ATOM     20  N   UNL     1      47.331   6.588  13.839  0.00  0.00    +0.000 N 
ATOM     21  H   UNL     1      47.044   6.665  14.822  0.00  0.00    +0.000 HD
BRANCH  20  22
ATOM     22  C   UNL     1      46.471   5.738  13.119  0.00  0.00    +0.000 A 
ATOM     23  C   UNL     1      45.970   6.044  11.850  0.00  0.00    +0.000 A 
ATOM     24  C   UNL     1      45.198   5.122  11.141  0.00  0.00    +0.000 A 
ATOM     25  C   UNL     1      44.968   3.881  11.712  0.00  0.00    +0.000 A 
ATOM     26  N   UNL     1      45.456   3.508  12.925  0.00  0.00    +0.000 NA
ATOM     27  C   UNL     1      46.204   4.440  13.576  0.00  0.00    +0.000 A 
BRANCH  25  28
ATOM     28  C   UNL     1      44.164   2.863  10.956  0.00  0.00    +0.000 C 
ATOM     29  N   UNL     1      44.790   2.306   9.875  0.00  0.00    +0.000 N 
ATOM     30  O   UNL     1      43.026   2.546  11.280  0.00  0.00    +0.000 OA
ATOM     31  H   UNL     1      45.724   2.609   9.630  0.00  0.00    +0.000 HD
ATOM     32  H   UNL     1      44.296   1.635   9.306  0.00  0.00    +0.000 HD
ENDBRANCH  25  28
ENDBRANCH  20  22
ENDBRANCH  19  20
ENDBRANCH   1  19
TORSDOF 6
ENDMDL
MODEL 5
REMARK VINA RESULT:    -6.474      4.048      8.600
REMARK INTER + INTRA:          -8.884
REMARK INTER:                  -8.785
REMARK INTRA:                  -0.100
REMARK UNBOUND:                -0.139
REMARK  Name = 
REMARK  10 active torsions:
REMARK  status: ('A' for Active; 'I' for Inactive)
REMARK    1  A    between atoms: C_1  and  O_2
REMARK    2  A    between atoms: O_2  and  C_3
REMARK    3  A    between atoms: N_10  and  C_11
REMARK    4  A    between atoms: C_15  and  C_16
REMARK    5  A    between atoms: C_16  and  C_17
REMARK    6  A    between atoms: C_16  and  C_18
REMARK    7  A    between atoms: C_16  and  C_19
REMARK    8  A    between atoms: C_19  and  N_20
REMARK    9  A    between atoms: N_20  and  C_21
REMARK   10  A    between atoms: C_24  and  C_25
REMARK                            x       y       z     vdW  Elec       q    Type
REMARK                         _______ _______ _______ _____ _____    ______ ____
ROOT
ATOM      1  C   UNL     1      49.731   6.912  16.153  0.00  0.00    +0.000 C 
ATOM      2  C   UNL     1      51.273   6.743  16.193  0.00  0.00    +0.000 C 
ATOM      3  C   UNL     1      49.339   8.180  16.947  0.00  0.00    +0.000 C 
ENDROOT
BRANCH   1  16
ATOM      4  C   UNL     1      49.943   7.770  13.723  0.00  0.00    +0.000 A 
ATOM      5  C   UNL     1      49.471   7.760  12.417  0.00  0.00    +0.000 A 
ATOM      6  C   UNL     1      48.327   7.048  12.109  0.00  0.00    +0.000 A 
ATOM      7  C   UNL     1      47.662   6.324  13.092  0.00  0.00    +0.000 A 
ATOM      8  N   UNL     1      46.556   5.595  12.717  0.00  0.00    +0.000 N 
ATOM      9  C   UNL     1      46.145   4.407  13.458  0.00  0.00    +0.000 C 
ATOM     10  C   UNL     1      45.541   3.400  12.437  0.00  0.00    +0.000 C 
ATOM     11  N   UNL     1      44.439   3.974  11.620  0.00  0.00    +0.000 NA
ATOM     12  C   UNL     1      43.979   3.013  10.619  0.00  0.00    +0.000 C 
ATOM     13  C   UNL     1      44.899   5.217  10.958  0.00  0.00    +0.000 C 
ATOM     14  C   UNL     1      45.472   6.238  11.964  0.00  0.00    +0.000 C 
ATOM     15  N   UNL     1      48.135   6.282  14.359  0.00  0.00    +0.000 NA
ATOM     16  C   UNL     1      49.259   6.999  14.686  0.00  0.00    +0.000 A 
BRANCH   4  18
ATOM     17  C   UNL     1      50.985   9.888  13.973  0.00  0.00    +0.000 C 
ATOM     18  O   UNL     1      51.065   8.467  14.082  0.00  0.00    +0.000 OA
ENDBRANCH   4  18
ENDBRANCH   1  16
BRANCH   1  19
ATOM     19  C   UNL     1      49.173   5.665  16.920  0.00  0.00    +0.000 C 
BRANCH  19  20
ATOM     20  N   UNL     1      49.978   5.267  18.086  0.00  0.00    +0.000 N 
ATOM     21  H   UNL     1      49.387   5.328  18.924  0.00  0.00    +0.000 HD
BRANCH  20  22
ATOM     22  C   UNL     1      50.643   4.029  18.018  0.00  0.00    +0.000 A 
ATOM     23  C   UNL     1      50.129   2.914  17.347  0.00  0.00    +0.000 A 
ATOM     24  C   UNL     1      50.875   1.740  17.230  0.00  0.00    +0.000 A 
ATOM     25  C   UNL     1      52.153   1.716  17.765  0.00  0.00    +0.000 A 
ATOM     26  N   UNL     1      52.724   2.777  18.397  0.00  0.00    +0.000 NA
ATOM     27  C   UNL     1      51.958   3.898  18.484  0.00  0.00    +0.000 A 
BRANCH  25  28
ATOM     28  C   UNL     1      52.984   0.475  17.626  0.00  0.00    +0.000 C 
ATOM     29  N   UNL     1      52.692  -0.530  18.507  0.00  0.00    +0.000 N 
ATOM     30  O   UNL     1      53.866   0.360  16.783  0.00  0.00    +0.000 OA
ATOM     31  H   UNL     1      51.968  -0.388  19.201  0.00  0.00    +0.000 HD
ATOM     32  H   UNL     1      53.231  -1.382  18.486  0.00  0.00    +0.000 HD
ENDBRANCH  25  28
ENDBRANCH  20  22
ENDBRANCH  19  20
ENDBRANCH   1  19
TORSDOF 6
ENDMDL
MODEL 6
REMARK VINA RESULT:    -6.171      4.980      9.599
REMARK INTER + INTRA:          -8.475
REMARK INTER:                  -7.880
REMARK INTRA:                  -0.595
REMARK UNBOUND:                -0.139
REMARK  Name = 
REMARK  10 active torsions:
REMARK  status: ('A' for Active; 'I' for Inactive)
REMARK    1  A    between atoms: C_1  and  O_2
REMARK    2  A    between atoms: O_2  and  C_3
REMARK    3  A    between atoms: N_10  and  C_11
REMARK    4  A    between atoms: C_15  and  C_16
REMARK    5  A    between atoms: C_16  and  C_17
REMARK    6  A    between atoms: C_16  and  C_18
REMARK    7  A    between atoms: C_16  and  C_19
REMARK    8  A    between atoms: C_19  and  N_20
REMARK    9  A    between atoms: N_20  and  C_21
REMARK   10  A    between atoms: C_24  and  C_25
REMARK                            x       y       z     vdW  Elec       q    Type
REMARK                         _______ _______ _______ _____ _____    ______ ____
ROOT
ATOM      1  C   UNL     1      50.496   6.250  17.647  0.00  0.00    +0.000 C 
ATOM      2  C   UNL     1      51.200   6.712  16.344  0.00  0.00    +0.000 C 
ATOM      3  C   UNL     1      50.053   7.494  18.452  0.00  0.00    +0.000 C 
ENDROOT
BRANCH   1  16
ATOM      4  C   UNL     1      48.763   4.414  18.206  0.00  0.00    +0.000 A 
ATOM      5  C   UNL     1      47.654   3.673  17.818  0.00  0.00    +0.000 A 
ATOM      6  C   UNL     1      47.137   3.831  16.546  0.00  0.00    +0.000 A 
ATOM      7  C   UNL     1      47.705   4.742  15.663  0.00  0.00    +0.000 A 
ATOM      8  N   UNL     1      47.118   4.891  14.426  0.00  0.00    +0.000 N 
ATOM      9  C   UNL     1      47.232   6.140  13.681  0.00  0.00    +0.000 C 
ATOM     10  C   UNL     1      45.907   6.339  12.889  0.00  0.00    +0.000 C 
ATOM     11  N   UNL     1      45.556   5.183  12.021  0.00  0.00    +0.000 NA
ATOM     12  C   UNL     1      44.259   5.390  11.380  0.00  0.00    +0.000 C 
ATOM     13  C   UNL     1      45.534   3.940  12.826  0.00  0.00    +0.000 C 
ATOM     14  C   UNL     1      46.855   3.714  13.591  0.00  0.00    +0.000 C 
ATOM     15  N   UNL     1      48.754   5.508  16.040  0.00  0.00    +0.000 NA
ATOM     16  C   UNL     1      49.292   5.351  17.293  0.00  0.00    +0.000 A 
BRANCH   4  18
ATOM     17  C   UNL     1      48.534   4.766  20.541  0.00  0.00    +0.000 C 
ATOM     18  O   UNL     1      49.319   4.288  19.450  0.00  0.00    +0.000 OA
ENDBRANCH   4  18
ENDBRANCH   1  16
BRANCH   1  19
ATOM     19  C   UNL     1      51.612   5.513  18.463  0.00  0.00    +0.000 C 
BRANCH  19  20
ATOM     20  N   UNL     1      52.655   4.894  17.630  0.00  0.00    +0.000 N 
ATOM     21  H   UNL     1      53.524   5.428  17.751  0.00  0.00    +0.000 HD
BRANCH  20  22
ATOM     22  C   UNL     1      52.876   3.514  17.793  0.00  0.00    +0.000 A 
ATOM     23  C   UNL     1      51.871   2.551  17.652  0.00  0.00    +0.000 A 
ATOM     24  C   UNL     1      52.166   1.189  17.731  0.00  0.00    +0.000 A 
ATOM     25  C   UNL     1      53.486   0.812  17.918  0.00  0.00    +0.000 A 
ATOM     26  N   UNL     1      54.513   1.696  18.026  0.00  0.00    +0.000 NA
ATOM     27  C   UNL     1      54.175   3.011  17.942  0.00  0.00    +0.000 A 
BRANCH  25  28
ATOM     28  C   UNL     1      53.831  -0.648  17.976  0.00  0.00    +0.000 C 
ATOM     29  N   UNL     1      53.141  -1.378  18.904  0.00  0.00    +0.000 N 
ATOM     30  O   UNL     1      54.672  -1.159  17.246  0.00  0.00    +0.000 OA
ATOM     31  H   UNL     1      52.468  -0.914  19.502  0.00  0.00    +0.000 HD
ATOM     32  H   UNL     1      53.343  -2.360  19.015  0.00  0.00    +0.000 HD
ENDBRANCH  25  28
ENDBRANCH  20  22
ENDBRANCH  19  20
ENDBRANCH   1  19
TORSDOF 6
ENDMDL
MODEL 7
REMARK VINA RESULT:    -6.171      3.600      7.997
REMARK INTER + INTRA:          -8.475
REMARK INTER:                  -7.963
REMARK INTRA:                  -0.512
REMARK UNBOUND:                -0.139
REMARK  Name = 
REMARK  10 active torsions:
REMARK  status: ('A' for Active; 'I' for Inactive)
REMARK    1  A    between atoms: C_1  and  O_2
REMARK    2  A    between atoms: O_2  and  C_3
REMARK    3  A    between atoms: N_10  and  C_11
REMARK    4  A    between atoms: C_15  and  C_16
REMARK    5  A    between atoms: C_16  and  C_17
REMARK    6  A    between atoms: C_16  and  C_18
REMARK    7  A    between atoms: C_16  and  C_19
REMARK    8  A    between atoms: C_19  and  N_20
REMARK    9  A    between atoms: N_20  and  C_21
REMARK   10  A    between atoms: C_24  and  C_25
REMARK                            x       y       z     vdW  Elec       q    Type
REMARK                         _______ _______ _______ _____ _____    ______ ____
ROOT
ATOM      1  C   UNL     1      49.406   9.205  15.590  0.00  0.00    +0.000 C 
ATOM      2  C   UNL     1      50.904   9.002  15.939  0.00  0.00    +0.000 C 
ATOM      3  C   UNL     1      49.041  10.696  15.773  0.00  0.00    +0.000 C 
ENDROOT
BRANCH   1  16
ATOM      4  C   UNL     1      49.926   9.178  13.057  0.00  0.00    +0.000 A 
ATOM      5  C   UNL     1      49.645   8.673  11.794  0.00  0.00    +0.000 A 
ATOM      6  C   UNL     1      48.585   7.802  11.628  0.00  0.00    +0.000 A 
ATOM      7  C   UNL     1      47.816   7.410  12.717  0.00  0.00    +0.000 A 
ATOM      8  N   UNL     1      46.804   6.503  12.499  0.00  0.00    +0.000 N 
ATOM      9  C   UNL     1      46.340   5.616  13.561  0.00  0.00    +0.000 C 
ATOM     10  C   UNL     1      45.927   4.268  12.902  0.00  0.00    +0.000 C 
ATOM     11  N   UNL     1      44.930   4.423  11.810  0.00  0.00    +0.000 NA
ATOM     12  C   UNL     1      44.655   3.138  11.170  0.00  0.00    +0.000 C 
ATOM     13  C   UNL     1      45.430   5.394  10.808  0.00  0.00    +0.000 C 
ATOM     14  C   UNL     1      45.814   6.746  11.444  0.00  0.00    +0.000 C 
ATOM     15  N   UNL     1      48.106   7.853  13.963  0.00  0.00    +0.000 NA
ATOM     16  C   UNL     1      49.143   8.734  14.144  0.00  0.00    +0.000 A 
BRANCH   4  18
ATOM     17  C   UNL     1      50.902  11.282  12.555  0.00  0.00    +0.000 C 
ATOM     18  O   UNL     1      50.958  10.052  13.275  0.00  0.00    +0.000 OA
ENDBRANCH   4  18
ENDBRANCH   1  16
BRANCH   1  19
ATOM     19  C   UNL     1      48.630   8.377  16.671  0.00  0.00    +0.000 C 
BRANCH  19  20
ATOM     20  N   UNL     1      49.500   7.668  17.623  0.00  0.00    +0.000 N 
ATOM     21  H   UNL     1      49.144   7.835  18.572  0.00  0.00    +0.000 HD
BRANCH  20  22
ATOM     22  C   UNL     1      49.725   6.298  17.394  0.00  0.00    +0.000 A 
ATOM     23  C   UNL     1      50.807   5.594  17.931  0.00  0.00    +0.000 A 
ATOM     24  C   UNL     1      50.929   4.216  17.749  0.00  0.00    +0.000 A 
ATOM     25  C   UNL     1      49.931   3.554  17.051  0.00  0.00    +0.000 A 
ATOM     26  N   UNL     1      48.836   4.174  16.536  0.00  0.00    +0.000 NA
ATOM     27  C   UNL     1      48.762   5.517  16.740  0.00  0.00    +0.000 A 
BRANCH  25  28
ATOM     28  C   UNL     1      50.025   2.068  16.868  0.00  0.00    +0.000 C 
ATOM     29  N   UNL     1      50.929   1.433  17.674  0.00  0.00    +0.000 N 
ATOM     30  O   UNL     1      49.342   1.457  16.055  0.00  0.00    +0.000 OA
ATOM     31  H   UNL     1      51.489   1.977  18.319  0.00  0.00    +0.000 HD
ATOM     32  H   UNL     1      51.063   0.437  17.583  0.00  0.00    +0.000 HD
ENDBRANCH  25  28
ENDBRANCH  20  22
ENDBRANCH  19  20
ENDBRANCH   1  19
TORSDOF 6
ENDMDL
MODEL 8
REMARK VINA RESULT:    -5.843      3.516      7.924
REMARK INTER + INTRA:          -8.032
REMARK INTER:                  -7.497
REMARK INTRA:                  -0.535
REMARK UNBOUND:                -0.139
REMARK  Name = 
REMARK  10 active torsions:
REMARK  status: ('A' for Active; 'I' for Inactive)
REMARK    1  A    between atoms: C_1  and  O_2
REMARK    2  A    between atoms: O_2  and  C_3
REMARK    3  A    between atoms: N_10  and  C_11
REMARK    4  A    between atoms: C_15  and  C_16
REMARK    5  A    between atoms: C_16  and  C_17
REMARK    6  A    between atoms: C_16  and  C_18
REMARK    7  A    between atoms: C_16  and  C_19
REMARK    8  A    between atoms: C_19  and  N_20
REMARK    9  A    between atoms: N_20  and  C_21
REMARK   10  A    between atoms: C_24  and  C_25
REMARK                            x       y       z     vdW  Elec       q    Type
REMARK                         _______ _______ _______ _____ _____    ______ ____
ROOT
ATOM      1  C   UNL     1      50.065   7.513  15.525  0.00  0.00    +0.000 C 
ATOM      2  C   UNL     1      49.698   8.652  16.512  0.00  0.00    +0.000 C 
ATOM      3  C   UNL     1      51.496   7.015  15.835  0.00  0.00    +0.000 C 
ENDROOT
BRANCH   1  16
ATOM      4  C   UNL     1      48.854   5.648  16.846  0.00  0.00    +0.000 A 
ATOM      5  C   UNL     1      47.876   4.662  16.879  0.00  0.00    +0.000 A 
ATOM      6  C   UNL     1      47.150   4.381  15.737  0.00  0.00    +0.000 A 
ATOM      7  C   UNL     1      47.375   5.094  14.566  0.00  0.00    +0.000 A 
ATOM      8  N   UNL     1      46.589   4.804  13.474  0.00  0.00    +0.000 N 
ATOM      9  C   UNL     1      46.327   5.802  12.442  0.00  0.00    +0.000 C 
ATOM     10  C   UNL     1      44.884   5.563  11.910  0.00  0.00    +0.000 C 
ATOM     11  N   UNL     1      44.651   4.174  11.434  0.00  0.00    +0.000 NA
ATOM     12  C   UNL     1      43.257   3.988  11.037  0.00  0.00    +0.000 C 
ATOM     13  C   UNL     1      45.009   3.211  12.501  0.00  0.00    +0.000 C 
ATOM     14  C   UNL     1      46.450   3.417  13.016  0.00  0.00    +0.000 C 
ATOM     15  N   UNL     1      48.289   6.091  14.528  0.00  0.00    +0.000 NA
ATOM     16  C   UNL     1      49.033   6.371  15.648  0.00  0.00    +0.000 A 
BRANCH   4  18
ATOM     17  C   UNL     1      50.191   4.855  18.639  0.00  0.00    +0.000 C 
ATOM     18  O   UNL     1      49.608   5.958  17.946  0.00  0.00    +0.000 OA
ENDBRANCH   4  18
ENDBRANCH   1  16
BRANCH   1  19
ATOM     19  C   UNL     1      50.080   8.196  14.116  0.00  0.00    +0.000 C 
BRANCH  19  20
ATOM     20  N   UNL     1      49.656   9.605  14.127  0.00  0.00    +0.000 N 
ATOM     21  H   UNL     1      50.431  10.180  13.773  0.00  0.00    +0.000 HD
BRANCH  20  22
ATOM     22  C   UNL     1      48.448   9.920  13.477  0.00  0.00    +0.000 A 
ATOM     23  C   UNL     1      48.326  10.939  12.526  0.00  0.00    +0.000 A 
ATOM     24  C   UNL     1      47.126  11.144  11.844  0.00  0.00    +0.000 A 
ATOM     25  C   UNL     1      46.066  10.291  12.105  0.00  0.00    +0.000 A 
ATOM     26  N   UNL     1      46.131   9.260  12.990  0.00  0.00    +0.000 NA
ATOM     27  C   UNL     1      47.322   9.100  13.629  0.00  0.00    +0.000 A 
BRANCH  25  28
ATOM     28  C   UNL     1      44.775  10.474  11.362  0.00  0.00    +0.000 C 
ATOM     29  N   UNL     1      43.643  10.392  12.123  0.00  0.00    +0.000 N 
ATOM     30  O   UNL     1      44.731  10.685  10.156  0.00  0.00    +0.000 OA
ATOM     31  H   UNL     1      43.722  10.198  13.114  0.00  0.00    +0.000 HD
ATOM     32  H   UNL     1      42.739  10.479  11.682  0.00  0.00    +0.000 HD
ENDBRANCH  25  28
ENDBRANCH  20  22
ENDBRANCH  19  20
ENDBRANCH   1  19
TORSDOF 6
ENDMDL
MODEL 9
REMARK VINA RESULT:    -5.806      4.120      8.547
REMARK INTER + INTRA:          -7.982
REMARK INTER:                  -7.012
REMARK INTRA:                  -0.970
REMARK UNBOUND:                -0.139
REMARK  Name = 
REMARK  10 active torsions:
REMARK  status: ('A' for Active; 'I' for Inactive)
REMARK    1  A    between atoms: C_1  and  O_2
REMARK    2  A    between atoms: O_2  and  C_3
REMARK    3  A    between atoms: N_10  and  C_11
REMARK    4  A    between atoms: C_15  and  C_16
REMARK    5  A    between atoms: C_16  and  C_17
REMARK    6  A    between atoms: C_16  and  C_18
REMARK    7  A    between atoms: C_16  and  C_19
REMARK    8  A    between atoms: C_19  and  N_20
REMARK    9  A    between atoms: N_20  and  C_21
REMARK   10  A    between atoms: C_24  and  C_25
REMARK                            x       y       z     vdW  Elec       q    Type
REMARK                         _______ _______ _______ _____ _____    ______ ____
ROOT
ATOM      1  C   UNL     1      51.891   9.147  14.781  0.00  0.00    +0.000 C 
ATOM      2  C   UNL     1      53.264   8.446  14.953  0.00  0.00    +0.000 C 
ATOM      3  C   UNL     1      52.110  10.674  14.685  0.00  0.00    +0.000 C 
ENDROOT
BRANCH   1  16
ATOM      4  C   UNL     1      51.735   8.749  12.230  0.00  0.00    +0.000 A 
ATOM      5  C   UNL     1      51.053   8.190  11.157  0.00  0.00    +0.000 A 
ATOM      6  C   UNL     1      49.843   7.558  11.371  0.00  0.00    +0.000 A 
ATOM      7  C   UNL     1      49.318   7.456  12.654  0.00  0.00    +0.000 A 
ATOM      8  N   UNL     1      48.133   6.773  12.813  0.00  0.00    +0.000 N 
ATOM      9  C   UNL     1      47.798   6.122  14.074  0.00  0.00    +0.000 C 
ATOM     10  C   UNL     1      46.987   4.836  13.741  0.00  0.00    +0.000 C 
ATOM     11  N   UNL     1      45.792   5.092  12.894  0.00  0.00    +0.000 NA
ATOM     12  C   UNL     1      45.130   3.839  12.537  0.00  0.00    +0.000 C 
ATOM     13  C   UNL     1      46.193   5.823  11.669  0.00  0.00    +0.000 C 
ATOM     14  C   UNL     1      46.970   7.117  11.987  0.00  0.00    +0.000 C 
ATOM     15  N   UNL     1      49.992   7.950  13.718  0.00  0.00    +0.000 NA
ATOM     16  C   UNL     1      51.186   8.599  13.521  0.00  0.00    +0.000 A 
BRANCH   4  18
ATOM     17  C   UNL     1      52.989  10.364  11.026  0.00  0.00    +0.000 C 
ATOM     18  O   UNL     1      52.932   9.394  12.071  0.00  0.00    +0.000 OA
ENDBRANCH   4  18
ENDBRANCH   1  16
BRANCH   1  19
ATOM     19  C   UNL     1      51.121   8.847  16.112  0.00  0.00    +0.000 C 
BRANCH  19  20
ATOM     20  N   UNL     1      51.561   7.622  16.798  0.00  0.00    +0.000 N 
ATOM     21  H   UNL     1      52.113   7.892  17.621  0.00  0.00    +0.000 HD
BRANCH  20  22
ATOM     22  C   UNL     1      50.570   6.679  17.132  0.00  0.00    +0.000 A 
ATOM     23  C   UNL     1      49.256   7.026  17.461  0.00  0.00    +0.000 A 
ATOM     24  C   UNL     1      48.291   6.045  17.691  0.00  0.00    +0.000 A 
ATOM     25  C   UNL     1      48.658   4.716  17.552  0.00  0.00    +0.000 A 
ATOM     26  N   UNL     1      49.908   4.314  17.199  0.00  0.00    +0.000 NA
ATOM     27  C   UNL     1      50.813   5.307  16.985  0.00  0.00    +0.000 A 
BRANCH  25  28
ATOM     28  C   UNL     1      47.630   3.644  17.766  0.00  0.00    +0.000 C 
ATOM     29  N   UNL     1      47.833   2.843  18.856  0.00  0.00    +0.000 N 
ATOM     30  O   UNL     1      46.669   3.490  17.020  0.00  0.00    +0.000 OA
ATOM     31  H   UNL     1      48.650   2.991  19.436  0.00  0.00    +0.000 HD
ATOM     32  H   UNL     1      47.195   2.085  19.042  0.00  0.00    +0.000 HD
ENDBRANCH  25  28
ENDBRANCH  20  22
ENDBRANCH  19  20
ENDBRANCH   1  19
TORSDOF 6
ENDMDL
