MODEL 1
REMARK VINA RESULT:    -7.671      0.000      0.000
REMARK INTER + INTRA:          -9.416
REMARK INTER:                  -9.016
REMARK INTRA:                  -0.399
REMARK UNBOUND:                -0.399
REMARK  Name = 
REMARK  3 active torsions:
REMARK  status: ('A' for Active; 'I' for Inactive)
REMARK    1  A    between atoms: C_2  and  C_4
REMARK    2  A    between atoms: N_8  and  C_9
REMARK    3  A    between atoms: C_9  and  C_10
REMARK                            x       y       z     vdW  Elec       q    Type
REMARK                         _______ _______ _______ _____ _____    ______ ____
ROOT
ATOM      1  C   UNL     1      46.537   4.996  13.463  0.00  0.00    +0.000 A 
ATOM      2  C   UNL     1      46.708   6.125  12.678  0.00  0.00    +0.000 A 
ATOM      3  C   UNL     1      46.182   6.141  11.382  0.00  0.00    +0.000 A 
ATOM      4  C   UNL     1      45.485   5.031  10.901  0.00  0.00    +0.000 A 
ATOM      5  N   UNL     1      44.985   5.060   9.591  0.00  0.00    +0.000 N 
ATOM      6  N   UNL     1      45.349   3.913  11.654  0.00  0.00    +0.000 NA
ATOM      7  C   UNL     1      45.873   3.916  12.905  0.00  0.00    +0.000 A 
ATOM      8  H   UNL     1      44.486   5.924   9.417  0.00  0.00    +0.000 HD
ENDROOT
BRANCH   1  10
ATOM      9  N   UNL     1      47.877   5.904  15.264  0.00  0.00    +0.000 N 
ATOM     10  C   UNL     1      47.047   4.901  14.849  0.00  0.00    +0.000 C 
ATOM     11  O   UNL     1      46.724   3.986  15.592  0.00  0.00    +0.000 OA
ATOM     12  H   UNL     1      48.168   5.883  16.236  0.00  0.00    +0.000 HD
ATOM     13  H   UNL     1      47.973   6.777  14.767  0.00  0.00    +0.000 HD
ENDBRANCH   1  10
BRANCH   5  14
ATOM     14  C   UNL     1      44.254   3.855   9.176  0.00  0.00    +0.000 C 
BRANCH  14  15
ATOM     15  C   UNL     1      45.038   3.058   8.111  0.00  0.00    +0.000 C 
ATOM     16  C   UNL     1      45.637   1.788   8.748  0.00  0.00    +0.000 C 
ATOM     17  C   UNL     1      46.507   1.000   7.770  0.00  0.00    +0.000 C 
ATOM     18  C   UNL     1      47.604   1.873   7.173  0.00  0.00    +0.000 C 
ATOM     19  C   UNL     1      47.022   3.117   6.513  0.00  0.00    +0.000 C 
ATOM     20  C   UNL     1      46.150   3.914   7.480  0.00  0.00    +0.000 C 
ENDBRANCH  14  15
ENDBRANCH   5  14
TORSDOF 3
ENDMDL
MODEL 2
REMARK VINA RESULT:    -7.413      3.088      6.400
REMARK INTER + INTRA:          -9.113
REMARK INTER:                  -8.820
REMARK INTRA:                  -0.293
REMARK UNBOUND:                -0.399
REMARK  Name = 
REMARK  3 active torsions:
REMARK  status: ('A' for Active; 'I' for Inactive)
REMARK    1  A    between atoms: C_2  and  C_4
REMARK    2  A    between atoms: N_8  and  C_9
REMARK    3  A    between atoms: C_9  and  C_10
REMARK                            x       y       z     vdW  Elec       q    Type
REMARK                         _______ _______ _______ _____ _____    ______ ____
ROOT
ATOM      1  C   UNL     1      46.545   2.535   7.359  0.00  0.00    +0.000 A 
ATOM      2  C   UNL     1      46.034   1.482   8.102  0.00  0.00    +0.000 A 
ATOM      3  C   UNL     1      45.133   1.752   9.138  0.00  0.00    +0.000 A 
ATOM      4  C   UNL     1      44.752   3.069   9.401  0.00  0.00    +0.000 A 
ATOM      5  N   UNL     1      43.864   3.318  10.458  0.00  0.00    +0.000 N 
ATOM      6  N   UNL     1      45.278   4.102   8.700  0.00  0.00    +0.000 NA
ATOM      7  C   UNL     1      46.155   3.818   7.705  0.00  0.00    +0.000 A 
ATOM      8  H   UNL     1      43.065   2.697  10.410  0.00  0.00    +0.000 HD
ENDROOT
BRANCH   1  10
ATOM      9  N   UNL     1      47.445   3.260   5.231  0.00  0.00    +0.000 N 
ATOM     10  C   UNL     1      47.490   2.337   6.238  0.00  0.00    +0.000 C 
ATOM     11  O   UNL     1      48.285   1.409   6.223  0.00  0.00    +0.000 OA
ATOM     12  H   UNL     1      48.142   3.170   4.499  0.00  0.00    +0.000 HD
ATOM     13  H   UNL     1      46.975   4.149   5.323  0.00  0.00    +0.000 HD
ENDBRANCH   1  10
BRANCH   5  14
ATOM     14  C   UNL     1      43.508   4.731  10.653  0.00  0.00    +0.000 C 
BRANCH  14  15
ATOM     15  C   UNL     1      44.246   5.338  11.865  0.00  0.00    +0.000 C 
ATOM     16  C   UNL     1      45.069   6.562  11.414  0.00  0.00    +0.000 C 
ATOM     17  C   UNL     1      45.901   7.155  12.549  0.00  0.00    +0.000 C 
ATOM     18  C   UNL     1      46.803   6.104  13.186  0.00  0.00    +0.000 C 
ATOM     19  C   UNL     1      45.998   4.901  13.664  0.00  0.00    +0.000 C 
ATOM     20  C   UNL     1      45.161   4.299  12.538  0.00  0.00    +0.000 C 
ENDBRANCH  14  15
ENDBRANCH   5  14
TORSDOF 3
ENDMDL
MODEL 3
REMARK VINA RESULT:    -7.017      1.949      2.708
REMARK INTER + INTRA:          -8.647
REMARK INTER:                  -8.541
REMARK INTRA:                  -0.105
REMARK UNBOUND:                -0.399
REMARK  Name = 
REMARK  3 active torsions:
REMARK  status: ('A' for Active; 'I' for Inactive)
REMARK    1  A    between atoms: C_2  and  C_4
REMARK    2  A    between atoms: N_8  and  C_9
REMARK    3  A    between atoms: C_9  and  C_10
REMARK                            x       y       z     vdW  Elec       q    Type
REMARK                         _______ _______ _______ _____ _____    ______ ____
ROOT
ATOM      1  C   UNL     1      45.846   6.719  12.408  0.00  0.00    +0.000 A 
ATOM      2  C   UNL     1      45.944   5.668  13.306  0.00  0.00    +0.000 A 
ATOM      3  C   UNL     1      45.625   4.374  12.879  0.00  0.00    +0.000 A 
ATOM      4  C   UNL     1      45.226   4.156  11.560  0.00  0.00    +0.000 A 
ATOM      5  N   UNL     1      44.890   2.855  11.159  0.00  0.00    +0.000 N 
ATOM      6  N   UNL     1      45.095   5.188  10.691  0.00  0.00    +0.000 NA
ATOM      7  C   UNL     1      45.402   6.435  11.127  0.00  0.00    +0.000 A 
ATOM      8  H   UNL     1      45.601   2.195  11.452  0.00  0.00    +0.000 HD
ENDROOT
BRANCH   1  10
ATOM      9  N   UNL     1      46.788   8.301  13.980  0.00  0.00    +0.000 N 
ATOM     10  C   UNL     1      46.179   8.114  12.772  0.00  0.00    +0.000 C 
ATOM     11  O   UNL     1      45.941   9.048  12.020  0.00  0.00    +0.000 OA
ATOM     12  H   UNL     1      47.085   9.247  14.200  0.00  0.00    +0.000 HD
ATOM     13  H   UNL     1      47.202   7.547  14.508  0.00  0.00    +0.000 HD
ENDBRANCH   1  10
BRANCH   5  14
ATOM     14  C   UNL     1      44.496   2.718   9.750  0.00  0.00    +0.000 C 
BRANCH  14  15
ATOM     15  C   UNL     1      45.728   2.642   8.823  0.00  0.00    +0.000 C 
ATOM     16  C   UNL     1      45.542   3.602   7.630  0.00  0.00    +0.000 C 
ATOM     17  C   UNL     1      46.685   3.507   6.621  0.00  0.00    +0.000 C 
ATOM     18  C   UNL     1      46.880   2.076   6.135  0.00  0.00    +0.000 C 
ATOM     19  C   UNL     1      47.096   1.121   7.304  0.00  0.00    +0.000 C 
ATOM     20  C   UNL     1      45.960   1.207   8.320  0.00  0.00    +0.000 C 
ENDBRANCH  14  15
ENDBRANCH   5  14
TORSDOF 3
ENDMDL
MODEL 4
REMARK VINA RESULT:    -6.701      3.016      6.322
REMARK INTER + INTRA:          -8.275
REMARK INTER:                  -8.487
REMARK INTRA:                   0.212
REMARK UNBOUND:                -0.399
REMARK  Name = 
REMARK  3 active torsions:
REMARK  status: ('A' for Active; 'I' for Inactive)
REMARK    1  A    between atoms: C_2  and  C_4
REMARK    2  A    between atoms: N_8  and  C_9
REMARK    3  A    between atoms: C_9  and  C_10
REMARK                            x       y       z     vdW  Elec       q    Type
REMARK                         _______ _______ _______ _____ _____    ______ ____
ROOT
ATOM      1  C   UNL     1      46.403   2.647   7.585  0.00  0.00    +0.000 A 
ATOM      2  C   UNL     1      45.803   1.689   8.387  0.00  0.00    +0.000 A 
ATOM      3  C   UNL     1      44.938   2.098   9.408  0.00  0.00    +0.000 A 
ATOM      4  C   UNL     1      44.681   3.456   9.598  0.00  0.00    +0.000 A 
ATOM      5  N   UNL     1      43.827   3.845  10.640  0.00  0.00    +0.000 N 
ATOM      6  N   UNL     1      45.295   4.396   8.839  0.00  0.00    +0.000 NA
ATOM      7  C   UNL     1      46.135   3.978   7.860  0.00  0.00    +0.000 A 
ATOM      8  H   UNL     1      42.975   3.298  10.629  0.00  0.00    +0.000 HD
ENDROOT
BRANCH   1  10
ATOM      9  N   UNL     1      47.223   3.064   5.345  0.00  0.00    +0.000 N 
ATOM     10  C   UNL     1      47.318   2.301   6.475  0.00  0.00    +0.000 C 
ATOM     11  O   UNL     1      48.132   1.395   6.572  0.00  0.00    +0.000 OA
ATOM     12  H   UNL     1      47.899   2.878   4.612  0.00  0.00    +0.000 HD
ATOM     13  H   UNL     1      46.737   3.948   5.321  0.00  0.00    +0.000 HD
ENDBRANCH   1  10
BRANCH   5  14
ATOM     14  C   UNL     1      43.603   5.293  10.756  0.00  0.00    +0.000 C 
BRANCH  14  15
ATOM     15  C   UNL     1      44.892   6.032  11.180  0.00  0.00    +0.000 C 
ATOM     16  C   UNL     1      45.481   5.368  12.441  0.00  0.00    +0.000 C 
ATOM     17  C   UNL     1      46.707   6.108  12.972  0.00  0.00    +0.000 C 
ATOM     18  C   UNL     1      46.400   7.579  13.230  0.00  0.00    +0.000 C 
ATOM     19  C   UNL     1      45.845   8.255  11.981  0.00  0.00    +0.000 C 
ATOM     20  C   UNL     1      44.619   7.524  11.441  0.00  0.00    +0.000 C 
ENDBRANCH  14  15
ENDBRANCH   5  14
TORSDOF 3
ENDMDL
MODEL 5
REMARK VINA RESULT:    -6.068      3.032      7.269
REMARK INTER + INTRA:          -7.531
REMARK INTER:                  -7.245
REMARK INTRA:                  -0.286
REMARK UNBOUND:                -0.399
REMARK  Name = 
REMARK  3 active torsions:
REMARK  status: ('A' for Active; 'I' for Inactive)
REMARK    1  A    between atoms: C_2  and  C_4
REMARK    2  A    between atoms: N_8  and  C_9
REMARK    3  A    between atoms: C_9  and  C_10
REMARK                            x       y       z     vdW  Elec       q    Type
REMARK                         _______ _______ _______ _____ _____    ______ ____
ROOT
ATOM      1  C   UNL     1      45.444   4.939  11.582  0.00  0.00    +0.000 A 
ATOM      2  C   UNL     1      46.262   6.011  11.903  0.00  0.00    +0.000 A 
ATOM      3  C   UNL     1      46.893   6.038  13.152  0.00  0.00    +0.000 A 
ATOM      4  C   UNL     1      46.701   4.986  14.049  0.00  0.00    +0.000 A 
ATOM      5  N   UNL     1      47.326   5.044  15.304  0.00  0.00    +0.000 N 
ATOM      6  N   UNL     1      45.873   3.956  13.751  0.00  0.00    +0.000 NA
ATOM      7  C   UNL     1      45.267   3.953  12.538  0.00  0.00    +0.000 A 
ATOM      8  H   UNL     1      48.305   5.284  15.207  0.00  0.00    +0.000 HD
ENDROOT
BRANCH   1  10
ATOM      9  N   UNL     1      45.479   5.159   9.171  0.00  0.00    +0.000 N 
ATOM     10  C   UNL     1      44.753   4.824  10.279  0.00  0.00    +0.000 C 
ATOM     11  O   UNL     1      43.600   4.427  10.196  0.00  0.00    +0.000 OA
ATOM     12  H   UNL     1      45.033   5.010   8.271  0.00  0.00    +0.000 HD
ATOM     13  H   UNL     1      46.483   5.262   9.183  0.00  0.00    +0.000 HD
ENDBRANCH   1  10
BRANCH   5  14
ATOM     14  C   UNL     1      47.079   3.888  16.177  0.00  0.00    +0.000 C 
BRANCH  14  15
ATOM     15  C   UNL     1      48.276   3.623  17.116  0.00  0.00    +0.000 C 
ATOM     16  C   UNL     1      49.179   4.872  17.172  0.00  0.00    +0.000 C 
ATOM     17  C   UNL     1      50.436   4.645  18.010  0.00  0.00    +0.000 C 
ATOM     18  C   UNL     1      51.221   3.434  17.520  0.00  0.00    +0.000 C 
ATOM     19  C   UNL     1      50.347   2.185  17.489  0.00  0.00    +0.000 C 
ATOM     20  C   UNL     1      49.087   2.399  16.655  0.00  0.00    +0.000 C 
ENDBRANCH  14  15
ENDBRANCH   5  14
TORSDOF 3
ENDMDL
MODEL 6
REMARK VINA RESULT:    -5.693      2.658      4.340
REMARK INTER + INTRA:          -7.091
REMARK INTER:                  -6.846
REMARK INTRA:                  -0.245
REMARK UNBOUND:                -0.399
REMARK  Name = 
REMARK  3 active torsions:
REMARK  status: ('A' for Active; 'I' for Inactive)
REMARK    1  A    between atoms: C_2  and  C_4
REMARK    2  A    between atoms: N_8  and  C_9
REMARK    3  A    between atoms: C_9  and  C_10
REMARK                            x       y       z     vdW  Elec       q    Type
REMARK                         _______ _______ _______ _____ _____    ______ ____
ROOT
ATOM      1  C   UNL     1      48.543   4.347  17.111  0.00  0.00    +0.000 A 
ATOM      2  C   UNL     1      48.877   5.536  16.482  0.00  0.00    +0.000 A 
ATOM      3  C   UNL     1      48.158   5.936  15.351  0.00  0.00    +0.000 A 
ATOM      4  C   UNL     1      47.110   5.144  14.878  0.00  0.00    +0.000 A 
ATOM      5  N   UNL     1      46.416   5.553  13.730  0.00  0.00    +0.000 N 
ATOM      6  N   UNL     1      46.806   3.964  15.469  0.00  0.00    +0.000 NA
ATOM      7  C   UNL     1      47.521   3.592  16.560  0.00  0.00    +0.000 A 
ATOM      8  H   UNL     1      46.150   6.528  13.800  0.00  0.00    +0.000 HD
ENDROOT
BRANCH   1  10
ATOM      9  N   UNL     1      48.458   3.323  19.303  0.00  0.00    +0.000 N 
ATOM     10  C   UNL     1      49.241   3.858  18.320  0.00  0.00    +0.000 C 
ATOM     11  O   UNL     1      50.458   3.909  18.424  0.00  0.00    +0.000 OA
ATOM     12  H   UNL     1      48.939   2.918  20.100  0.00  0.00    +0.000 HD
ATOM     13  H   UNL     1      47.496   3.056  19.153  0.00  0.00    +0.000 HD
ENDBRANCH   1  10
BRANCH   5  14
ATOM     14  C   UNL     1      45.321   4.666  13.314  0.00  0.00    +0.000 C 
BRANCH  14  15
ATOM     15  C   UNL     1      45.487   4.213  11.847  0.00  0.00    +0.000 C 
ATOM     16  C   UNL     1      45.459   5.443  10.917  0.00  0.00    +0.000 C 
ATOM     17  C   UNL     1      45.523   5.059   9.440  0.00  0.00    +0.000 C 
ATOM     18  C   UNL     1      44.414   4.080   9.071  0.00  0.00    +0.000 C 
ATOM     19  C   UNL     1      44.450   2.845   9.964  0.00  0.00    +0.000 C 
ATOM     20  C   UNL     1      44.387   3.215  11.443  0.00  0.00    +0.000 C 
ENDBRANCH  14  15
ENDBRANCH   5  14
TORSDOF 3
ENDMDL
MODEL 7
REMARK VINA RESULT:    -5.561      3.619      5.765
REMARK INTER + INTRA:          -6.936
REMARK INTER:                  -6.682
REMARK INTRA:                  -0.253
REMARK UNBOUND:                -0.399
REMARK  Name = 
REMARK  3 active torsions:
REMARK  status: ('A' for Active; 'I' for Inactive)
REMARK    1  A    between atoms: C_2  and  C_4
REMARK    2  A    between atoms: N_8  and  C_9
REMARK    3  A    between atoms: C_9  and  C_10
REMARK                            x       y       z     vdW  Elec       q    Type
REMARK                         _______ _______ _______ _____ _____    ______ ____
ROOT
ATOM      1  C   UNL     1      48.977   4.493  18.232  0.00  0.00    +0.000 A 
ATOM      2  C   UNL     1      48.161   3.380  18.096  0.00  0.00    +0.000 A 
ATOM      3  C   UNL     1      47.412   3.223  16.925  0.00  0.00    +0.000 A 
ATOM      4  C   UNL     1      47.503   4.175  15.909  0.00  0.00    +0.000 A 
ATOM      5  N   UNL     1      46.727   4.009  14.752  0.00  0.00    +0.000 N 
ATOM      6  N   UNL     1      48.271   5.282  16.056  0.00  0.00    +0.000 NA
ATOM      7  C   UNL     1      48.983   5.419  17.202  0.00  0.00    +0.000 A 
ATOM      8  H   UNL     1      46.816   3.065  14.394  0.00  0.00    +0.000 HD
ENDROOT
BRANCH   1  10
ATOM      9  N   UNL     1      49.345   4.225  20.611  0.00  0.00    +0.000 N 
ATOM     10  C   UNL     1      49.813   4.729  19.430  0.00  0.00    +0.000 C 
ATOM     11  O   UNL     1      50.878   5.325  19.363  0.00  0.00    +0.000 OA
ATOM     12  H   UNL     1      49.951   4.319  21.419  0.00  0.00    +0.000 HD
ATOM     13  H   UNL     1      48.604   3.541  20.659  0.00  0.00    +0.000 HD
ENDBRANCH   1  10
BRANCH   5  14
ATOM     14  C   UNL     1      46.898   5.052  13.731  0.00  0.00    +0.000 C 
BRANCH  14  15
ATOM     15  C   UNL     1      45.851   4.916  12.604  0.00  0.00    +0.000 C 
ATOM     16  C   UNL     1      44.652   5.840  12.892  0.00  0.00    +0.000 C 
ATOM     17  C   UNL     1      43.534   5.684  11.862  0.00  0.00    +0.000 C 
ATOM     18  C   UNL     1      43.081   4.233  11.749  0.00  0.00    +0.000 C 
ATOM     19  C   UNL     1      44.254   3.312  11.434  0.00  0.00    +0.000 C 
ATOM     20  C   UNL     1      45.378   3.459  12.455  0.00  0.00    +0.000 C 
ENDBRANCH  14  15
ENDBRANCH   5  14
TORSDOF 3
ENDMDL
MODEL 8
REMARK VINA RESULT:    -5.465      3.204      6.140
REMARK INTER + INTRA:          -6.823
REMARK INTER:                  -6.637
REMARK INTRA:                  -0.186
REMARK UNBOUND:                -0.399
REMARK  Name = 
REMARK  3 active torsions:
REMARK  status: ('A' for Active; 'I' for Inactive)
REMARK    1  A    between atoms: C_2  and  C_4
REMARK    2  A    between atoms: N_8  and  C_9
REMARK    3  A    between atoms: C_9  and  C_10
REMARK                            x       y       z     vdW  Elec       q    Type
REMARK                         _______ _______ _______ _____ _____    ______ ____
ROOT
ATOM      1  C   UNL     1      44.844   3.877  11.733  0.00  0.00    +0.000 A 
ATOM      2  C   UNL     1      45.624   3.610  12.848  0.00  0.00    +0.000 A 
ATOM      3  C   UNL     1      46.310   4.660  13.468  0.00  0.00    +0.000 A 
ATOM      4  C   UNL     1      46.194   5.958  12.967  0.00  0.00    +0.000 A 
ATOM      5  N   UNL     1      46.908   6.991  13.590  0.00  0.00    +0.000 N 
ATOM      6  N   UNL     1      45.462   6.214  11.855  0.00  0.00    +0.000 NA
ATOM      7  C   UNL     1      44.811   5.181  11.266  0.00  0.00    +0.000 A 
ATOM      8  H   UNL     1      46.779   6.961  14.595  0.00  0.00    +0.000 HD
ENDROOT
BRANCH   1  10
ATOM      9  N   UNL     1      44.636   2.320   9.890  0.00  0.00    +0.000 N 
ATOM     10  C   UNL     1      44.074   2.829  11.027  0.00  0.00    +0.000 C 
ATOM     11  O   UNL     1      43.002   2.424  11.451  0.00  0.00    +0.000 OA
ATOM     12  H   UNL     1      44.147   1.550   9.446  0.00  0.00    +0.000 HD
ATOM     13  H   UNL     1      45.606   2.461   9.648  0.00  0.00    +0.000 HD
ENDBRANCH   1  10
BRANCH   5  14
ATOM     14  C   UNL     1      46.714   8.325  13.004  0.00  0.00    +0.000 C 
BRANCH  14  15
ATOM     15  C   UNL     1      47.836   8.669  12.000  0.00  0.00    +0.000 C 
ATOM     16  C   UNL     1      49.058   7.765  12.256  0.00  0.00    +0.000 C 
ATOM     17  C   UNL     1      50.242   8.118  11.357  0.00  0.00    +0.000 C 
ATOM     18  C   UNL     1      50.622   9.588  11.489  0.00  0.00    +0.000 C 
ATOM     19  C   UNL     1      49.429  10.494  11.209  0.00  0.00    +0.000 C 
ATOM     20  C   UNL     1      48.239  10.151  12.100  0.00  0.00    +0.000 C 
ENDBRANCH  14  15
ENDBRANCH   5  14
TORSDOF 3
ENDMDL
MODEL 9
REMARK VINA RESULT:    -5.396      3.063      6.376
REMARK INTER + INTRA:          -6.742
REMARK INTER:                  -6.382
REMARK INTRA:                  -0.360
REMARK UNBOUND:                -0.399
REMARK  Name = 
REMARK  3 active torsions:
REMARK  status: ('A' for Active; 'I' for Inactive)
REMARK    1  A    between atoms: C_2  and  C_4
REMARK    2  A    between atoms: N_8  and  C_9
REMARK    3  A    between atoms: C_9  and  C_10
REMARK                            x       y       z     vdW  Elec       q    Type
REMARK                         _______ _______ _______ _____ _____    ______ ____
ROOT
ATOM      1  C   UNL     1      44.981   3.740  10.091  0.00  0.00    +0.000 A 
ATOM      2  C   UNL     1      44.881   3.265  11.390  0.00  0.00    +0.000 A 
ATOM      3  C   UNL     1      45.036   4.156  12.457  0.00  0.00    +0.000 A 
ATOM      4  C   UNL     1      45.278   5.507  12.203  0.00  0.00    +0.000 A 
ATOM      5  N   UNL     1      45.452   6.380  13.288  0.00  0.00    +0.000 N 
ATOM      6  N   UNL     1      45.413   5.967  10.936  0.00  0.00    +0.000 NA
ATOM      7  C   UNL     1      45.266   5.084   9.916  0.00  0.00    +0.000 A 
ATOM      8  H   UNL     1      44.719   6.250  13.974  0.00  0.00    +0.000 HD
ENDROOT
BRANCH   1  10
ATOM      9  N   UNL     1      44.644   1.535   9.148  0.00  0.00    +0.000 N 
ATOM     10  C   UNL     1      44.815   2.869   8.906  0.00  0.00    +0.000 C 
ATOM     11  O   UNL     1      44.808   3.323   7.772  0.00  0.00    +0.000 OA
ATOM     12  H   UNL     1      44.454   0.947   8.343  0.00  0.00    +0.000 HD
ATOM     13  H   UNL     1      44.414   1.169  10.060  0.00  0.00    +0.000 HD
ENDBRANCH   1  10
BRANCH   5  14
ATOM     14  C   UNL     1      45.688   7.785  12.926  0.00  0.00    +0.000 C 
BRANCH  14  15
ATOM     15  C   UNL     1      47.148   8.202  13.205  0.00  0.00    +0.000 C 
ATOM     16  C   UNL     1      47.836   8.604  11.884  0.00  0.00    +0.000 C 
ATOM     17  C   UNL     1      49.314   8.938  12.074  0.00  0.00    +0.000 C 
ATOM     18  C   UNL     1      50.062   7.792  12.745  0.00  0.00    +0.000 C 
ATOM     19  C   UNL     1      49.410   7.405  14.067  0.00  0.00    +0.000 C 
ATOM     20  C   UNL     1      47.932   7.069  13.890  0.00  0.00    +0.000 C 
ENDBRANCH  14  15
ENDBRANCH   5  14
TORSDOF 3
ENDMDL
