MODEL 1
REMARK VINA RESULT:    -7.281      0.000      0.000
REMARK INTER + INTRA:         -11.645
REMARK INTER:                 -10.687
REMARK INTRA:                  -0.959
REMARK UNBOUND:                -0.959
REMARK  Name = 
REMARK  9 active torsions:
REMARK  status: ('A' for Active; 'I' for Inactive)
REMARK    1  A    between atoms: N_1  and  C_2
REMARK    2  A    between atoms: C_2  and  C_3
REMARK    3  A    between atoms: C_3  and  N_4
REMARK    4  A    between atoms: C_7  and  C_8
REMARK    5  A    between atoms: C_8  and  N_9
REMARK    6  A    between atoms: C_10  and  C_12
REMARK    7  A    between atoms: N_18  and  C_19
REMARK    8  A    between atoms: C_19  and  C_20
REMARK    9  A    between atoms: C_20  and  O_21
REMARK                            x       y       z     vdW  Elec       q    Type
REMARK                         _______ _______ _______ _____ _____    ______ ____
ROOT
ATOM      1  N   UNL     1      45.622   4.720  11.675  0.00  0.00    +0.000 N 
ATOM      2  C   UNL     1      45.841   5.247  12.922  0.00  0.00    +0.000 C 
ATOM      3  O   UNL     1      45.648   4.609  13.953  0.00  0.00    +0.000 OA
ATOM      4  H   UNL     1      45.879   5.258  10.855  0.00  0.00    +0.000 HD
ENDROOT
BRANCH   2   5
ATOM      5  C   UNL     1      46.274   6.649  12.962  0.00  0.00    +0.000 A 
ATOM      6  C   UNL     1      47.455   6.986  13.608  0.00  0.00    +0.000 A 
ATOM      7  S   UNL     1      47.810   8.652  13.554  0.00  0.00    +0.000 S 
ATOM      8  C   UNL     1      46.417   8.975  12.630  0.00  0.00    +0.000 A 
ATOM      9  N   UNL     1      46.139  10.231  12.202  0.00  0.00    +0.000 NA
ATOM     10  C   UNL     1      45.091  10.327  11.454  0.00  0.00    +0.000 A 
ATOM     11  N   UNL     1      44.261   9.279  11.104  0.00  0.00    +0.000 N 
ATOM     12  C   UNL     1      44.457   8.002  11.614  0.00  0.00    +0.000 A 
ATOM     13  O   UNL     1      43.639   7.098  11.458  0.00  0.00    +0.000 OA
ATOM     14  C   UNL     1      45.674   7.835  12.394  0.00  0.00    +0.000 A 
BRANCH  11  15
ATOM     15  C   UNL     1      43.080   9.521  10.279  0.00  0.00    +0.000 C 
BRANCH  15  16
ATOM     16  C   UNL     1      41.920  10.105  11.088  0.00  0.00    +0.000 C 
BRANCH  16  17
ATOM     17  O   UNL     1      40.983   9.082  11.417  0.00  0.00    +0.000 OA
ATOM     18  H   UNL     1      41.143   8.332  10.819  0.00  0.00    +0.000 HD
ENDBRANCH  16  17
ENDBRANCH  15  16
ENDBRANCH  11  15
ENDBRANCH   2   5
BRANCH   1  19
ATOM     19  C   UNL     1      45.222   3.352  11.444  0.00  0.00    +0.000 C 
BRANCH  19  23
ATOM     20  N   UNL     1      45.623   3.153   7.762  0.00  0.00    +0.000 NA
ATOM     21  C   UNL     1      45.571   1.981   8.649  0.00  0.00    +0.000 C 
ATOM     22  C   UNL     1      44.297   1.973   9.495  0.00  0.00    +0.000 C 
ATOM     23  C   UNL     1      44.162   3.248  10.334  0.00  0.00    +0.000 C 
ATOM     24  C   UNL     1      44.244   4.454   9.389  0.00  0.00    +0.000 C 
ATOM     25  C   UNL     1      45.500   4.415   8.514  0.00  0.00    +0.000 C 
BRANCH  20  26
ATOM     26  C   UNL     1      46.872   3.180   6.969  0.00  0.00    +0.000 C 
BRANCH  26  27
ATOM     27  C   UNL     1      47.555   1.806   6.806  0.00  0.00    +0.000 C 
BRANCH  27  28
ATOM     28  N   UNL     1      48.579   1.831   5.756  0.00  0.00    +0.000 NA
ATOM     29  H   UNL     1      49.287   1.132   5.974  0.00  0.00    +0.000 HD
ATOM     30  H   UNL     1      49.056   2.732   5.776  0.00  0.00    +0.000 HD
ENDBRANCH  27  28
ENDBRANCH  26  27
ENDBRANCH  20  26
ENDBRANCH  19  23
ENDBRANCH   1  19
TORSDOF 9
ENDMDL
MODEL 2
REMARK VINA RESULT:    -6.820      2.141      4.089
REMARK INTER + INTRA:         -10.968
REMARK INTER:                 -10.283
REMARK INTRA:                  -0.685
REMARK UNBOUND:                -0.959
REMARK  Name = 
REMARK  9 active torsions:
REMARK  status: ('A' for Active; 'I' for Inactive)
REMARK    1  A    between atoms: N_1  and  C_2
REMARK    2  A    between atoms: C_2  and  C_3
REMARK    3  A    between atoms: C_3  and  N_4
REMARK    4  A    between atoms: C_7  and  C_8
REMARK    5  A    between atoms: C_8  and  N_9
REMARK    6  A    between atoms: C_10  and  C_12
REMARK    7  A    between atoms: N_18  and  C_19
REMARK    8  A    between atoms: C_19  and  C_20
REMARK    9  A    between atoms: C_20  and  O_21
REMARK                            x       y       z     vdW  Elec       q    Type
REMARK                         _______ _______ _______ _____ _____    ______ ____
ROOT
ATOM      1  N   UNL     1      45.494   4.659  11.468  0.00  0.00    +0.000 N 
ATOM      2  C   UNL     1      45.317   5.312  12.660  0.00  0.00    +0.000 C 
ATOM      3  O   UNL     1      44.796   4.779  13.635  0.00  0.00    +0.000 OA
ATOM      4  H   UNL     1      46.006   5.115  10.721  0.00  0.00    +0.000 HD
ENDROOT
BRANCH   2   5
ATOM      5  C   UNL     1      45.741   6.717  12.694  0.00  0.00    +0.000 A 
ATOM      6  C   UNL     1      44.911   7.698  12.168  0.00  0.00    +0.000 A 
ATOM      7  S   UNL     1      45.552   9.272  12.294  0.00  0.00    +0.000 S 
ATOM      8  C   UNL     1      46.944   8.701  13.091  0.00  0.00    +0.000 A 
ATOM      9  N   UNL     1      47.903   9.557  13.521  0.00  0.00    +0.000 NA
ATOM     10  C   UNL     1      48.871   9.002  14.170  0.00  0.00    +0.000 A 
ATOM     11  N   UNL     1      48.994   7.647  14.416  0.00  0.00    +0.000 N 
ATOM     12  C   UNL     1      48.085   6.734  13.897  0.00  0.00    +0.000 A 
ATOM     13  O   UNL     1      48.266   5.520  13.956  0.00  0.00    +0.000 OA
ATOM     14  C   UNL     1      46.936   7.327  13.231  0.00  0.00    +0.000 A 
BRANCH  11  15
ATOM     15  C   UNL     1      50.159   7.134  15.134  0.00  0.00    +0.000 C 
BRANCH  15  16
ATOM     16  C   UNL     1      49.820   6.732  16.571  0.00  0.00    +0.000 C 
BRANCH  16  17
ATOM     17  O   UNL     1      49.570   5.332  16.647  0.00  0.00    +0.000 OA
ATOM     18  H   UNL     1      48.715   5.160  16.216  0.00  0.00    +0.000 HD
ENDBRANCH  16  17
ENDBRANCH  15  16
ENDBRANCH  11  15
ENDBRANCH   2   5
BRANCH   1  19
ATOM     19  C   UNL     1      45.161   3.270  11.259  0.00  0.00    +0.000 C 
BRANCH  19  23
ATOM     20  N   UNL     1      45.751   3.113   7.601  0.00  0.00    +0.000 NA
ATOM     21  C   UNL     1      45.747   1.938   8.485  0.00  0.00    +0.000 C 
ATOM     22  C   UNL     1      44.439   1.830   9.269  0.00  0.00    +0.000 C 
ATOM     23  C   UNL     1      44.167   3.088  10.100  0.00  0.00    +0.000 C 
ATOM     24  C   UNL     1      44.201   4.299   9.160  0.00  0.00    +0.000 C 
ATOM     25  C   UNL     1      45.497   4.360   8.346  0.00  0.00    +0.000 C 
BRANCH  20  26
ATOM     26  C   UNL     1      47.032   3.238   6.869  0.00  0.00    +0.000 C 
BRANCH  26  27
ATOM     27  C   UNL     1      47.886   1.952   6.852  0.00  0.00    +0.000 C 
BRANCH  27  28
ATOM     28  N   UNL     1      48.567   1.772   5.566  0.00  0.00    +0.000 NA
ATOM     29  H   UNL     1      49.572   1.859   5.714  0.00  0.00    +0.000 HD
ATOM     30  H   UNL     1      48.307   2.533   4.940  0.00  0.00    +0.000 HD
ENDBRANCH  27  28
ENDBRANCH  26  27
ENDBRANCH  20  26
ENDBRANCH  19  23
ENDBRANCH   1  19
TORSDOF 9
ENDMDL
MODEL 3
REMARK VINA RESULT:    -6.710      3.323      5.870
REMARK INTER + INTRA:         -10.806
REMARK INTER:                  -9.546
REMARK INTRA:                  -1.260
REMARK UNBOUND:                -0.959
REMARK  Name = 
REMARK  9 active torsions:
REMARK  status: ('A' for Active; 'I' for Inactive)
REMARK    1  A    between atoms: N_1  and  C_2
REMARK    2  A    between atoms: C_2  and  C_3
REMARK    3  A    between atoms: C_3  and  N_4
REMARK    4  A    between atoms: C_7  and  C_8
REMARK    5  A    between atoms: C_8  and  N_9
REMARK    6  A    between atoms: C_10  and  C_12
REMARK    7  A    between atoms: N_18  and  C_19
REMARK    8  A    between atoms: C_19  and  C_20
REMARK    9  A    between atoms: C_20  and  O_21
REMARK                            x       y       z     vdW  Elec       q    Type
REMARK                         _______ _______ _______ _____ _____    ______ ____
ROOT
ATOM      1  N   UNL     1      45.933   7.004  13.345  0.00  0.00    +0.000 N 
ATOM      2  C   UNL     1      47.264   7.054  13.019  0.00  0.00    +0.000 C 
ATOM      3  O   UNL     1      47.678   6.815  11.889  0.00  0.00    +0.000 OA
ATOM      4  H   UNL     1      45.635   7.292  14.270  0.00  0.00    +0.000 HD
ENDROOT
BRANCH   2   5
ATOM      5  C   UNL     1      48.185   7.360  14.121  0.00  0.00    +0.000 A 
ATOM      6  C   UNL     1      48.815   8.596  14.166  0.00  0.00    +0.000 A 
ATOM      7  S   UNL     1      49.843   8.787  15.512  0.00  0.00    +0.000 S 
ATOM      8  C   UNL     1      49.451   7.238  16.102  0.00  0.00    +0.000 A 
ATOM      9  N   UNL     1      49.970   6.783  17.268  0.00  0.00    +0.000 NA
ATOM     10  C   UNL     1      49.538   5.623  17.636  0.00  0.00    +0.000 A 
ATOM     11  N   UNL     1      48.643   4.844  16.928  0.00  0.00    +0.000 N 
ATOM     12  C   UNL     1      48.176   5.234  15.679  0.00  0.00    +0.000 A 
ATOM     13  O   UNL     1      47.519   4.486  14.959  0.00  0.00    +0.000 OA
ATOM     14  C   UNL     1      48.574   6.572  15.269  0.00  0.00    +0.000 A 
BRANCH  11  15
ATOM     15  C   UNL     1      48.257   3.528  17.431  0.00  0.00    +0.000 C 
BRANCH  15  16
ATOM     16  C   UNL     1      49.342   2.476  17.188  0.00  0.00    +0.000 C 
BRANCH  16  17
ATOM     17  O   UNL     1      49.185   1.892  15.899  0.00  0.00    +0.000 OA
ATOM     18  H   UNL     1      49.930   1.282  15.757  0.00  0.00    +0.000 HD
ENDBRANCH  16  17
ENDBRANCH  15  16
ENDBRANCH  11  15
ENDBRANCH   2   5
BRANCH   1  19
ATOM     19  C   UNL     1      44.885   6.745  12.386  0.00  0.00    +0.000 C 
BRANCH  19  23
ATOM     20  N   UNL     1      44.211   3.450  10.823  0.00  0.00    +0.000 NA
ATOM     21  C   UNL     1      45.276   3.691  11.808  0.00  0.00    +0.000 C 
ATOM     22  C   UNL     1      44.721   4.292  13.100  0.00  0.00    +0.000 C 
ATOM     23  C   UNL     1      43.965   5.600  12.842  0.00  0.00    +0.000 C 
ATOM     24  C   UNL     1      42.878   5.326  11.795  0.00  0.00    +0.000 C 
ATOM     25  C   UNL     1      43.447   4.676  10.530  0.00  0.00    +0.000 C 
BRANCH  20  26
ATOM     26  C   UNL     1      44.753   2.903   9.560  0.00  0.00    +0.000 C 
BRANCH  26  27
ATOM     27  C   UNL     1      44.711   3.884   8.369  0.00  0.00    +0.000 C 
BRANCH  27  28
ATOM     28  N   UNL     1      46.057   4.311   7.972  0.00  0.00    +0.000 NA
ATOM     29  H   UNL     1      46.716   4.028   8.696  0.00  0.00    +0.000 HD
ATOM     30  H   UNL     1      46.090   5.329   7.941  0.00  0.00    +0.000 HD
ENDBRANCH  27  28
ENDBRANCH  26  27
ENDBRANCH  20  26
ENDBRANCH  19  23
ENDBRANCH   1  19
TORSDOF 9
ENDMDL
MODEL 4
REMARK VINA RESULT:    -6.594      3.229      7.716
REMARK INTER + INTRA:         -10.637
REMARK INTER:                  -9.741
REMARK INTRA:                  -0.896
REMARK UNBOUND:                -0.959
REMARK  Name = 
REMARK  9 active torsions:
REMARK  status: ('A' for Active; 'I' for Inactive)
REMARK    1  A    between atoms: N_1  and  C_2
REMARK    2  A    between atoms: C_2  and  C_3
REMARK    3  A    between atoms: C_3  and  N_4
REMARK    4  A    between atoms: C_7  and  C_8
REMARK    5  A    between atoms: C_8  and  N_9
REMARK    6  A    between atoms: C_10  and  C_12
REMARK    7  A    between atoms: N_18  and  C_19
REMARK    8  A    between atoms: C_19  and  C_20
REMARK    9  A    between atoms: C_20  and  O_21
REMARK                            x       y       z     vdW  Elec       q    Type
REMARK                         _______ _______ _______ _____ _____    ______ ____
ROOT
ATOM      1  N   UNL     1      46.318   6.868  11.833  0.00  0.00    +0.000 N 
ATOM      2  C   UNL     1      45.010   6.662  11.476  0.00  0.00    +0.000 C 
ATOM      3  O   UNL     1      44.201   7.578  11.371  0.00  0.00    +0.000 OA
ATOM      4  H   UNL     1      46.966   6.089  11.822  0.00  0.00    +0.000 HD
ENDROOT
BRANCH   2   5
ATOM      5  C   UNL     1      44.611   5.264  11.274  0.00  0.00    +0.000 A 
ATOM      6  C   UNL     1      43.797   4.640  12.210  0.00  0.00    +0.000 A 
ATOM      7  S   UNL     1      43.425   3.024  11.819  0.00  0.00    +0.000 S 
ATOM      8  C   UNL     1      44.307   3.114  10.366  0.00  0.00    +0.000 A 
ATOM      9  N   UNL     1      44.363   2.059   9.517  0.00  0.00    +0.000 NA
ATOM     10  C   UNL     1      45.005   2.282   8.419  0.00  0.00    +0.000 A 
ATOM     11  N   UNL     1      45.634   3.468   8.089  0.00  0.00    +0.000 N 
ATOM     12  C   UNL     1      45.686   4.530   8.983  0.00  0.00    +0.000 A 
ATOM     13  O   UNL     1      46.381   5.524   8.783  0.00  0.00    +0.000 OA
ATOM     14  C   UNL     1      44.903   4.348  10.195  0.00  0.00    +0.000 A 
BRANCH  11  15
ATOM     15  C   UNL     1      46.364   3.586   6.829  0.00  0.00    +0.000 C 
BRANCH  15  16
ATOM     16  C   UNL     1      47.507   2.574   6.726  0.00  0.00    +0.000 C 
BRANCH  16  17
ATOM     17  O   UNL     1      48.228   2.764   5.513  0.00  0.00    +0.000 OA
ATOM     18  H   UNL     1      47.698   2.384   4.791  0.00  0.00    +0.000 HD
ENDBRANCH  16  17
ENDBRANCH  15  16
ENDBRANCH  11  15
ENDBRANCH   2   5
BRANCH   1  19
ATOM     19  C   UNL     1      46.892   8.176  12.044  0.00  0.00    +0.000 C 
BRANCH  19  23
ATOM     20  N   UNL     1      49.837   8.800  14.212  0.00  0.00    +0.000 NA
ATOM     21  C   UNL     1      49.265   7.468  13.964  0.00  0.00    +0.000 C 
ATOM     22  C   UNL     1      49.201   7.154  12.469  0.00  0.00    +0.000 C 
ATOM     23  C   UNL     1      48.391   8.203  11.700  0.00  0.00    +0.000 C 
ATOM     24  C   UNL     1      48.992   9.582  11.995  0.00  0.00    +0.000 C 
ATOM     25  C   UNL     1      49.096   9.856  13.498  0.00  0.00    +0.000 C 
BRANCH  20  26
ATOM     26  C   UNL     1      49.865   9.119  15.657  0.00  0.00    +0.000 C 
BRANCH  26  27
ATOM     27  C   UNL     1      48.747   8.446  16.481  0.00  0.00    +0.000 C 
BRANCH  27  28
ATOM     28  N   UNL     1      47.588   9.329  16.643  0.00  0.00    +0.000 NA
ATOM     29  H   UNL     1      47.823  10.056  17.317  0.00  0.00    +0.000 HD
ATOM     30  H   UNL     1      46.819   8.801  17.054  0.00  0.00    +0.000 HD
ENDBRANCH  27  28
ENDBRANCH  26  27
ENDBRANCH  20  26
ENDBRANCH  19  23
ENDBRANCH   1  19
TORSDOF 9
ENDMDL
MODEL 5
REMARK VINA RESULT:    -6.583      4.361      7.269
REMARK INTER + INTRA:         -10.620
REMARK INTER:                  -9.619
REMARK INTRA:                  -1.000
REMARK UNBOUND:                -0.959
REMARK  Name = 
REMARK  9 active torsions:
REMARK  status: ('A' for Active; 'I' for Inactive)
REMARK    1  A    between atoms: N_1  and  C_2
REMARK    2  A    between atoms: C_2  and  C_3
REMARK    3  A    between atoms: C_3  and  N_4
REMARK    4  A    between atoms: C_7  and  C_8
REMARK    5  A    between atoms: C_8  and  N_9
REMARK    6  A    between atoms: C_10  and  C_12
REMARK    7  A    between atoms: N_18  and  C_19
REMARK    8  A    between atoms: C_19  and  C_20
REMARK    9  A    between atoms: C_20  and  O_21
REMARK                            x       y       z     vdW  Elec       q    Type
REMARK                         _______ _______ _______ _____ _____    ______ ____
ROOT
ATOM      1  N   UNL     1      48.237   6.860  15.502  0.00  0.00    +0.000 N 
ATOM      2  C   UNL     1      48.451   7.296  14.220  0.00  0.00    +0.000 C 
ATOM      3  O   UNL     1      49.575   7.462  13.756  0.00  0.00    +0.000 OA
ATOM      4  H   UNL     1      47.292   6.657  15.808  0.00  0.00    +0.000 HD
ENDROOT
BRANCH   2   5
ATOM      5  C   UNL     1      47.249   7.608  13.437  0.00  0.00    +0.000 A 
ATOM      6  C   UNL     1      46.959   8.929  13.121  0.00  0.00    +0.000 A 
ATOM      7  S   UNL     1      45.534   9.112  12.205  0.00  0.00    +0.000 S 
ATOM      8  C   UNL     1      45.276   7.430  12.165  0.00  0.00    +0.000 A 
ATOM      9  N   UNL     1      44.226   6.900  11.493  0.00  0.00    +0.000 NA
ATOM     10  C   UNL     1      44.185   5.610  11.484  0.00  0.00    +0.000 A 
ATOM     11  N   UNL     1      45.091   4.778  12.115  0.00  0.00    +0.000 N 
ATOM     12  C   UNL     1      46.115   5.291  12.901  0.00  0.00    +0.000 A 
ATOM     13  O   UNL     1      46.824   4.576  13.606  0.00  0.00    +0.000 OA
ATOM     14  C   UNL     1      46.244   6.739  12.868  0.00  0.00    +0.000 A 
BRANCH  11  15
ATOM     15  C   UNL     1      44.917   3.329  12.063  0.00  0.00    +0.000 C 
BRANCH  15  16
ATOM     16  C   UNL     1      43.789   2.916  11.114  0.00  0.00    +0.000 C 
BRANCH  16  17
ATOM     17  O   UNL     1      43.045   1.836  11.670  0.00  0.00    +0.000 OA
ATOM     18  H   UNL     1      42.706   1.299  10.932  0.00  0.00    +0.000 HD
ENDBRANCH  16  17
ENDBRANCH  15  16
ENDBRANCH  11  15
ENDBRANCH   2   5
BRANCH   1  19
ATOM     19  C   UNL     1      49.298   6.480  16.405  0.00  0.00    +0.000 C 
BRANCH  19  23
ATOM     20  N   UNL     1      49.485   2.984  17.627  0.00  0.00    +0.000 NA
ATOM     21  C   UNL     1      50.486   4.016  17.932  0.00  0.00    +0.000 C 
ATOM     22  C   UNL     1      49.846   5.245  18.580  0.00  0.00    +0.000 C 
ATOM     23  C   UNL     1      48.749   5.850  17.696  0.00  0.00    +0.000 C 
ATOM     24  C   UNL     1      47.733   4.747  17.374  0.00  0.00    +0.000 C 
ATOM     25  C   UNL     1      48.401   3.506  16.775  0.00  0.00    +0.000 C 
BRANCH  20  26
ATOM     26  C   UNL     1      50.098   1.809  16.968  0.00  0.00    +0.000 C 
BRANCH  26  27
ATOM     27  C   UNL     1      51.556   1.529  17.390  0.00  0.00    +0.000 C 
BRANCH  27  28
ATOM     28  N   UNL     1      51.677   0.256  18.106  0.00  0.00    +0.000 NA
ATOM     29  H   UNL     1      51.352   0.387  19.063  0.00  0.00    +0.000 HD
ATOM     30  H   UNL     1      52.661   0.001  18.174  0.00  0.00    +0.000 HD
ENDBRANCH  27  28
ENDBRANCH  26  27
ENDBRANCH  20  26
ENDBRANCH  19  23
ENDBRANCH   1  19
TORSDOF 9
ENDMDL
MODEL 6
REMARK VINA RESULT:    -6.314      3.927      5.823
REMARK INTER + INTRA:         -10.226
REMARK INTER:                  -9.213
REMARK INTRA:                  -1.012
REMARK UNBOUND:                -0.959
REMARK  Name = 
REMARK  9 active torsions:
REMARK  status: ('A' for Active; 'I' for Inactive)
REMARK    1  A    between atoms: N_1  and  C_2
REMARK    2  A    between atoms: C_2  and  C_3
REMARK    3  A    between atoms: C_3  and  N_4
REMARK    4  A    between atoms: C_7  and  C_8
REMARK    5  A    between atoms: C_8  and  N_9
REMARK    6  A    between atoms: C_10  and  C_12
REMARK    7  A    between atoms: N_18  and  C_19
REMARK    8  A    between atoms: C_19  and  C_20
REMARK    9  A    between atoms: C_20  and  O_21
REMARK                            x       y       z     vdW  Elec       q    Type
REMARK                         _______ _______ _______ _____ _____    ______ ____
ROOT
ATOM      1  N   UNL     1      46.536   4.767  14.564  0.00  0.00    +0.000 N 
ATOM      2  C   UNL     1      47.386   4.067  15.382  0.00  0.00    +0.000 C 
ATOM      3  O   UNL     1      47.724   2.911  15.149  0.00  0.00    +0.000 OA
ATOM      4  H   UNL     1      46.356   5.747  14.754  0.00  0.00    +0.000 HD
ENDROOT
BRANCH   2   5
ATOM      5  C   UNL     1      47.833   4.765  16.593  0.00  0.00    +0.000 A 
ATOM      6  C   UNL     1      47.512   4.248  17.841  0.00  0.00    +0.000 A 
ATOM      7  S   UNL     1      48.114   5.177  19.137  0.00  0.00    +0.000 S 
ATOM      8  C   UNL     1      48.857   6.280  18.075  0.00  0.00    +0.000 A 
ATOM      9  N   UNL     1      49.588   7.320  18.547  0.00  0.00    +0.000 NA
ATOM     10  C   UNL     1      50.154   8.039  17.637  0.00  0.00    +0.000 A 
ATOM     11  N   UNL     1      50.040   7.838  16.274  0.00  0.00    +0.000 N 
ATOM     12  C   UNL     1      49.212   6.849  15.758  0.00  0.00    +0.000 A 
ATOM     13  O   UNL     1      48.961   6.762  14.558  0.00  0.00    +0.000 OA
ATOM     14  C   UNL     1      48.624   5.965  16.751  0.00  0.00    +0.000 A 
BRANCH  11  15
ATOM     15  C   UNL     1      50.700   8.746  15.340  0.00  0.00    +0.000 C 
BRANCH  15  16
ATOM     16  C   UNL     1      51.967   8.134  14.739  0.00  0.00    +0.000 C 
BRANCH  16  17
ATOM     17  O   UNL     1      51.735   7.742  13.389  0.00  0.00    +0.000 OA
ATOM     18  H   UNL     1      52.297   8.296  12.819  0.00  0.00    +0.000 HD
ENDBRANCH  16  17
ENDBRANCH  15  16
ENDBRANCH  11  15
ENDBRANCH   2   5
BRANCH   1  19
ATOM     19  C   UNL     1      46.018   4.251  13.319  0.00  0.00    +0.000 C 
BRANCH  19  23
ATOM     20  N   UNL     1      44.178   4.197  10.100  0.00  0.00    +0.000 NA
ATOM     21  C   UNL     1      43.944   3.246  11.197  0.00  0.00    +0.000 C 
ATOM     22  C   UNL     1      43.608   3.968  12.502  0.00  0.00    +0.000 C 
ATOM     23  C   UNL     1      44.711   4.951  12.911  0.00  0.00    +0.000 C 
ATOM     24  C   UNL     1      44.951   5.914  11.741  0.00  0.00    +0.000 C 
ATOM     25  C   UNL     1      45.234   5.170  10.433  0.00  0.00    +0.000 C 
BRANCH  20  26
ATOM     26  C   UNL     1      44.538   3.500   8.845  0.00  0.00    +0.000 C 
BRANCH  26  27
ATOM     27  C   UNL     1      44.643   1.965   8.973  0.00  0.00    +0.000 C 
BRANCH  27  28
ATOM     28  N   UNL     1      45.952   1.473   8.534  0.00  0.00    +0.000 NA
ATOM     29  H   UNL     1      45.811   0.774   7.806  0.00  0.00    +0.000 HD
ATOM     30  H   UNL     1      46.404   0.988   9.308  0.00  0.00    +0.000 HD
ENDBRANCH  27  28
ENDBRANCH  26  27
ENDBRANCH  20  26
ENDBRANCH  19  23
ENDBRANCH   1  19
TORSDOF 9
ENDMDL
MODEL 7
REMARK VINA RESULT:    -6.250      4.054      6.391
REMARK INTER + INTRA:         -10.132
REMARK INTER:                  -9.201
REMARK INTRA:                  -0.931
REMARK UNBOUND:                -0.959
REMARK  Name = 
REMARK  9 active torsions:
REMARK  status: ('A' for Active; 'I' for Inactive)
REMARK    1  A    between atoms: N_1  and  C_2
REMARK    2  A    between atoms: C_2  and  C_3
REMARK    3  A    between atoms: C_3  and  N_4
REMARK    4  A    between atoms: C_7  and  C_8
REMARK    5  A    between atoms: C_8  and  N_9
REMARK    6  A    between atoms: C_10  and  C_12
REMARK    7  A    between atoms: N_18  and  C_19
REMARK    8  A    between atoms: C_19  and  C_20
REMARK    9  A    between atoms: C_20  and  O_21
REMARK                            x       y       z     vdW  Elec       q    Type
REMARK                         _______ _______ _______ _____ _____    ______ ____
ROOT
ATOM      1  N   UNL     1      46.906   5.635  14.380  0.00  0.00    +0.000 N 
ATOM      2  C   UNL     1      48.012   6.357  14.011  0.00  0.00    +0.000 C 
ATOM      3  O   UNL     1      48.564   6.212  12.925  0.00  0.00    +0.000 OA
ATOM      4  H   UNL     1      46.438   5.853  15.253  0.00  0.00    +0.000 HD
ENDROOT
BRANCH   2   5
ATOM      5  C   UNL     1      48.540   7.286  15.017  0.00  0.00    +0.000 A 
ATOM      6  C   UNL     1      48.524   8.652  14.767  0.00  0.00    +0.000 A 
ATOM      7  S   UNL     1      49.167   9.584  16.040  0.00  0.00    +0.000 S 
ATOM      8  C   UNL     1      49.454   8.198  16.986  0.00  0.00    +0.000 A 
ATOM      9  N   UNL     1      49.968   8.299  18.236  0.00  0.00    +0.000 NA
ATOM     10  C   UNL     1      50.071   7.180  18.870  0.00  0.00    +0.000 A 
ATOM     11  N   UNL     1      49.731   5.940  18.362  0.00  0.00    +0.000 N 
ATOM     12  C   UNL     1      49.303   5.791  17.049  0.00  0.00    +0.000 A 
ATOM     13  O   UNL     1      49.160   4.688  16.525  0.00  0.00    +0.000 OA
ATOM     14  C   UNL     1      49.095   7.037  16.329  0.00  0.00    +0.000 A 
BRANCH  11  15
ATOM     15  C   UNL     1      49.929   4.737  19.167  0.00  0.00    +0.000 C 
BRANCH  15  16
ATOM     16  C   UNL     1      49.153   4.791  20.485  0.00  0.00    +0.000 C 
BRANCH  16  17
ATOM     17  O   UNL     1      48.393   3.598  20.661  0.00  0.00    +0.000 OA
ATOM     18  H   UNL     1      48.627   3.224  21.528  0.00  0.00    +0.000 HD
ENDBRANCH  16  17
ENDBRANCH  15  16
ENDBRANCH  11  15
ENDBRANCH   2   5
BRANCH   1  19
ATOM     19  C   UNL     1      46.236   4.697  13.511  0.00  0.00    +0.000 C 
BRANCH  19  23
ATOM     20  N   UNL     1      44.388   4.275  10.324  0.00  0.00    +0.000 NA
ATOM     21  C   UNL     1      44.297   3.343  11.457  0.00  0.00    +0.000 C 
ATOM     22  C   UNL     1      43.879   4.061  12.741  0.00  0.00    +0.000 C 
ATOM     23  C   UNL     1      44.842   5.198  13.098  0.00  0.00    +0.000 C 
ATOM     24  C   UNL     1      44.937   6.140  11.892  0.00  0.00    +0.000 C 
ATOM     25  C   UNL     1      45.305   5.394  10.606  0.00  0.00    +0.000 C 
BRANCH  20  26
ATOM     26  C   UNL     1      44.828   3.588   9.089  0.00  0.00    +0.000 C 
BRANCH  26  27
ATOM     27  C   UNL     1      44.836   2.047   9.184  0.00  0.00    +0.000 C 
BRANCH  27  28
ATOM     28  N   UNL     1      45.997   1.469   8.499  0.00  0.00    +0.000 NA
ATOM     29  H   UNL     1      45.672   0.743   7.862  0.00  0.00    +0.000 HD
ATOM     30  H   UNL     1      46.590   1.000   9.182  0.00  0.00    +0.000 HD
ENDBRANCH  27  28
ENDBRANCH  26  27
ENDBRANCH  20  26
ENDBRANCH  19  23
ENDBRANCH   1  19
TORSDOF 9
ENDMDL
MODEL 8
REMARK VINA RESULT:    -6.237      4.302      8.313
REMARK INTER + INTRA:         -10.113
REMARK INTER:                  -9.601
REMARK INTRA:                  -0.512
REMARK UNBOUND:                -0.959
REMARK  Name = 
REMARK  9 active torsions:
REMARK  status: ('A' for Active; 'I' for Inactive)
REMARK    1  A    between atoms: N_1  and  C_2
REMARK    2  A    between atoms: C_2  and  C_3
REMARK    3  A    between atoms: C_3  and  N_4
REMARK    4  A    between atoms: C_7  and  C_8
REMARK    5  A    between atoms: C_8  and  N_9
REMARK    6  A    between atoms: C_10  and  C_12
REMARK    7  A    between atoms: N_18  and  C_19
REMARK    8  A    between atoms: C_19  and  C_20
REMARK    9  A    between atoms: C_20  and  O_21
REMARK                            x       y       z     vdW  Elec       q    Type
REMARK                         _______ _______ _______ _____ _____    ______ ____
ROOT
ATOM      1  N   UNL     1      47.105   4.802  16.185  0.00  0.00    +0.000 N 
ATOM      2  C   UNL     1      47.236   4.252  14.936  0.00  0.00    +0.000 C 
ATOM      3  O   UNL     1      47.584   3.089  14.759  0.00  0.00    +0.000 OA
ATOM      4  H   UNL     1      46.731   5.741  16.279  0.00  0.00    +0.000 HD
ENDROOT
BRANCH   2   5
ATOM      5  C   UNL     1      46.986   5.154  13.805  0.00  0.00    +0.000 A 
ATOM      6  C   UNL     1      47.587   6.405  13.779  0.00  0.00    +0.000 A 
ATOM      7  S   UNL     1      47.196   7.320  12.395  0.00  0.00    +0.000 S 
ATOM      8  C   UNL     1      46.239   6.060  11.765  0.00  0.00    +0.000 A 
ATOM      9  N   UNL     1      45.632   6.180  10.559  0.00  0.00    +0.000 NA
ATOM     10  C   UNL     1      44.996   5.128  10.167  0.00  0.00    +0.000 A 
ATOM     11  N   UNL     1      44.877   3.953  10.885  0.00  0.00    +0.000 N 
ATOM     12  C   UNL     1      45.396   3.836  12.168  0.00  0.00    +0.000 A 
ATOM     13  O   UNL     1      45.158   2.869  12.889  0.00  0.00    +0.000 OA
ATOM     14  C   UNL     1      46.192   4.970  12.611  0.00  0.00    +0.000 A 
BRANCH  11  15
ATOM     15  C   UNL     1      44.096   2.841  10.350  0.00  0.00    +0.000 C 
BRANCH  15  16
ATOM     16  C   UNL     1      44.576   2.414   8.960  0.00  0.00    +0.000 C 
BRANCH  16  17
ATOM     17  O   UNL     1      45.627   1.460   9.072  0.00  0.00    +0.000 OA
ATOM     18  H   UNL     1      46.372   1.892   9.527  0.00  0.00    +0.000 HD
ENDBRANCH  16  17
ENDBRANCH  15  16
ENDBRANCH  11  15
ENDBRANCH   2   5
BRANCH   1  19
ATOM     19  C   UNL     1      47.284   4.059  17.409  0.00  0.00    +0.000 C 
BRANCH  19  23
ATOM     20  N   UNL     1      48.672   6.678  19.638  0.00  0.00    +0.000 NA
ATOM     21  C   UNL     1      48.062   5.429  20.117  0.00  0.00    +0.000 C 
ATOM     22  C   UNL     1      48.742   4.203  19.509  0.00  0.00    +0.000 C 
ATOM     23  C   UNL     1      48.703   4.229  17.977  0.00  0.00    +0.000 C 
ATOM     24  C   UNL     1      49.323   5.550  17.506  0.00  0.00    +0.000 C 
ATOM     25  C   UNL     1      48.662   6.764  18.166  0.00  0.00    +0.000 C 
BRANCH  20  26
ATOM     26  C   UNL     1      47.991   7.867  20.197  0.00  0.00    +0.000 C 
BRANCH  26  27
ATOM     27  C   UNL     1      47.324   8.776  19.143  0.00  0.00    +0.000 C 
BRANCH  27  28
ATOM     28  N   UNL     1      47.564  10.195  19.423  0.00  0.00    +0.000 NA
ATOM     29  H   UNL     1      48.053  10.274  20.314  0.00  0.00    +0.000 HD
ATOM     30  H   UNL     1      46.670  10.668  19.549  0.00  0.00    +0.000 HD
ENDBRANCH  27  28
ENDBRANCH  26  27
ENDBRANCH  20  26
ENDBRANCH  19  23
ENDBRANCH   1  19
TORSDOF 9
ENDMDL
MODEL 9
REMARK VINA RESULT:    -6.219      1.705      2.237
REMARK INTER + INTRA:         -10.085
REMARK INTER:                  -9.034
REMARK INTRA:                  -1.051
REMARK UNBOUND:                -0.959
REMARK  Name = 
REMARK  9 active torsions:
REMARK  status: ('A' for Active; 'I' for Inactive)
REMARK    1  A    between atoms: N_1  and  C_2
REMARK    2  A    between atoms: C_2  and  C_3
REMARK    3  A    between atoms: C_3  and  N_4
REMARK    4  A    between atoms: C_7  and  C_8
REMARK    5  A    between atoms: C_8  and  N_9
REMARK    6  A    between atoms: C_10  and  C_12
REMARK    7  A    between atoms: N_18  and  C_19
REMARK    8  A    between atoms: C_19  and  C_20
REMARK    9  A    between atoms: C_20  and  O_21
REMARK                            x       y       z     vdW  Elec       q    Type
REMARK                         _______ _______ _______ _____ _____    ______ ____
ROOT
ATOM      1  N   UNL     1      46.348   5.542  12.564  0.00  0.00    +0.000 N 
ATOM      2  C   UNL     1      47.455   5.953  13.261  0.00  0.00    +0.000 C 
ATOM      3  O   UNL     1      47.860   5.370  14.262  0.00  0.00    +0.000 OA
ATOM      4  H   UNL     1      46.105   6.007  11.696  0.00  0.00    +0.000 HD
ENDROOT
BRANCH   2   5
ATOM      5  C   UNL     1      48.107   7.173  12.772  0.00  0.00    +0.000 A 
ATOM      6  C   UNL     1      49.486   7.198  12.610  0.00  0.00    +0.000 A 
ATOM      7  S   UNL     1      50.076   8.687  12.029  0.00  0.00    +0.000 S 
ATOM      8  C   UNL     1      48.506   9.337  11.936  0.00  0.00    +0.000 A 
ATOM      9  N   UNL     1      48.296  10.592  11.468  0.00  0.00    +0.000 NA
ATOM     10  C   UNL     1      47.055  10.937  11.384  0.00  0.00    +0.000 A 
ATOM     11  N   UNL     1      45.981  10.150  11.755  0.00  0.00    +0.000 N 
ATOM     12  C   UNL     1      46.167   8.903  12.339  0.00  0.00    +0.000 A 
ATOM     13  O   UNL     1      45.241   8.263  12.831  0.00  0.00    +0.000 OA
ATOM     14  C   UNL     1      47.547   8.445  12.373  0.00  0.00    +0.000 A 
BRANCH  11  15
ATOM     15  C   UNL     1      44.620  10.669  11.648  0.00  0.00    +0.000 C 
BRANCH  15  16
ATOM     16  C   UNL     1      43.890  10.126  10.417  0.00  0.00    +0.000 C 
BRANCH  16  17
ATOM     17  O   UNL     1      43.020   9.061  10.787  0.00  0.00    +0.000 OA
ATOM     18  H   UNL     1      43.164   8.876  11.732  0.00  0.00    +0.000 HD
ENDBRANCH  16  17
ENDBRANCH  15  16
ENDBRANCH  11  15
ENDBRANCH   2   5
BRANCH   1  19
ATOM     19  C   UNL     1      45.598   4.350  12.884  0.00  0.00    +0.000 C 
BRANCH  19  23
ATOM     20  N   UNL     1      44.124   3.491   9.591  0.00  0.00    +0.000 NA
ATOM     21  C   UNL     1      44.241   2.547  10.712  0.00  0.00    +0.000 C 
ATOM     22  C   UNL     1      43.566   3.087  11.973  0.00  0.00    +0.000 C 
ATOM     23  C   UNL     1      44.143   4.443  12.393  0.00  0.00    +0.000 C 
ATOM     24  C   UNL     1      44.032   5.400  11.200  0.00  0.00    +0.000 C 
ATOM     25  C   UNL     1      44.667   4.818   9.934  0.00  0.00    +0.000 C 
BRANCH  20  26
ATOM     26  C   UNL     1      44.809   2.986   8.380  0.00  0.00    +0.000 C 
BRANCH  26  27
ATOM     27  C   UNL     1      45.671   1.727   8.613  0.00  0.00    +0.000 C 
BRANCH  27  28
ATOM     28  N   UNL     1      46.783   1.649   7.660  0.00  0.00    +0.000 NA
ATOM     29  H   UNL     1      46.907   0.676   7.382  0.00  0.00    +0.000 HD
ATOM     30  H   UNL     1      47.646   1.921   8.129  0.00  0.00    +0.000 HD
ENDBRANCH  27  28
ENDBRANCH  26  27
ENDBRANCH  20  26
ENDBRANCH  19  23
ENDBRANCH   1  19
TORSDOF 9
ENDMDL
