MODEL 1
REMARK VINA RESULT:    -9.055      0.000      0.000
REMARK INTER + INTRA:         -11.061
REMARK INTER:                 -11.173
REMARK INTRA:                   0.112
REMARK UNBOUND:                 0.112
REMARK  Name = 
REMARK  5 active torsions:
REMARK  status: ('A' for Active; 'I' for Inactive)
REMARK    1  A    between atoms: C_1  and  O_2
REMARK    2  A    between atoms: O_2  and  C_3
REMARK    3  A    between atoms: C_5  and  C_6
REMARK    4  A    between atoms: C_6  and  N_7
REMARK    5  A    between atoms: C_11  and  C_12
REMARK                            x       y       z     vdW  Elec       q    Type
REMARK                         _______ _______ _______ _____ _____    ______ ____
ROOT
ATOM      1  N   UNL     1      44.442   5.135   9.925  0.00  0.00    +0.000 N 
ATOM      2  C   UNL     1      45.122   4.160   9.203  0.00  0.00    +0.000 A 
ATOM      3  C   UNL     1      45.181   2.822   9.571  0.00  0.00    +0.000 A 
ATOM      4  C   UNL     1      45.867   1.911   8.759  0.00  0.00    +0.000 A 
ATOM      5  C   UNL     1      46.475   2.363   7.590  0.00  0.00    +0.000 A 
ATOM      6  C   UNL     1      46.375   3.713   7.297  0.00  0.00    +0.000 A 
ATOM      7  N   UNL     1      45.707   4.607   8.071  0.00  0.00    +0.000 NA
ATOM      8  H   UNL     1      44.629   6.034   9.489  0.00  0.00    +0.000 HD
ENDROOT
BRANCH   5   9
ATOM      9  C   UNL     1      47.233   1.492   6.669  0.00  0.00    +0.000 C 
ATOM     10  N   UNL     1      48.215   2.067   5.914  0.00  0.00    +0.000 N 
ATOM     11  O   UNL     1      47.010   0.290   6.601  0.00  0.00    +0.000 OA
ATOM     12  H   UNL     1      48.595   2.983   6.109  0.00  0.00    +0.000 HD
ATOM     13  H   UNL     1      48.784   1.436   5.361  0.00  0.00    +0.000 HD
ENDBRANCH   5   9
BRANCH   1  14
ATOM     14  C   UNL     1      44.102   5.077  11.351  0.00  0.00    +0.000 C 
ATOM     15  C   UNL     1      42.726   5.485  11.837  0.00  0.00    +0.000 C 
ATOM     16  C   UNL     1      43.055   4.033  11.731  0.00  0.00    +0.000 C 
BRANCH  14  19
ATOM     17  C   UNL     1      46.913   4.251  13.822  0.00  0.00    +0.000 A 
ATOM     18  C   UNL     1      45.834   4.073  12.969  0.00  0.00    +0.000 A 
ATOM     19  C   UNL     1      45.307   5.175  12.285  0.00  0.00    +0.000 A 
ATOM     20  C   UNL     1      45.931   6.411  12.505  0.00  0.00    +0.000 A 
ATOM     21  C   UNL     1      47.020   6.490  13.357  0.00  0.00    +0.000 A 
ATOM     22  N   UNL     1      47.526   5.434  14.022  0.00  0.00    +0.000 NA
BRANCH  17  24
ATOM     23  C   UNL     1      47.651   3.390  15.856  0.00  0.00    +0.000 C 
ATOM     24  O   UNL     1      47.366   3.127  14.484  0.00  0.00    +0.000 OA
ENDBRANCH  17  24
ENDBRANCH  14  19
ENDBRANCH   1  14
TORSDOF 4
ENDMDL
MODEL 2
REMARK VINA RESULT:    -7.623      2.259      3.110
REMARK INTER + INTRA:          -9.294
REMARK INTER:                  -8.758
REMARK INTRA:                  -0.536
REMARK UNBOUND:                 0.112
REMARK  Name = 
REMARK  5 active torsions:
REMARK  status: ('A' for Active; 'I' for Inactive)
REMARK    1  A    between atoms: C_1  and  O_2
REMARK    2  A    between atoms: O_2  and  C_3
REMARK    3  A    between atoms: C_5  and  C_6
REMARK    4  A    between atoms: C_6  and  N_7
REMARK    5  A    between atoms: C_11  and  C_12
REMARK                            x       y       z     vdW  Elec       q    Type
REMARK                         _______ _______ _______ _____ _____    ______ ____
ROOT
ATOM      1  N   UNL     1      44.534   3.845  11.302  0.00  0.00    +0.000 N 
ATOM      2  C   UNL     1      45.100   3.612  10.052  0.00  0.00    +0.000 A 
ATOM      3  C   UNL     1      45.648   4.607   9.252  0.00  0.00    +0.000 A 
ATOM      4  C   UNL     1      46.221   4.266   8.021  0.00  0.00    +0.000 A 
ATOM      5  C   UNL     1      46.238   2.932   7.622  0.00  0.00    +0.000 A 
ATOM      6  C   UNL     1      45.666   2.002   8.475  0.00  0.00    +0.000 A 
ATOM      7  N   UNL     1      45.112   2.316   9.674  0.00  0.00    +0.000 NA
ATOM      8  H   UNL     1      44.136   2.970  11.631  0.00  0.00    +0.000 HD
ENDROOT
BRANCH   5   9
ATOM      9  C   UNL     1      46.805   2.465   6.341  0.00  0.00    +0.000 C 
ATOM     10  N   UNL     1      46.994   3.390   5.354  0.00  0.00    +0.000 N 
ATOM     11  O   UNL     1      47.120   1.294   6.174  0.00  0.00    +0.000 OA
ATOM     12  H   UNL     1      46.981   4.387   5.524  0.00  0.00    +0.000 HD
ATOM     13  H   UNL     1      47.471   3.066   4.521  0.00  0.00    +0.000 HD
ENDBRANCH   5   9
BRANCH   1  14
ATOM     14  C   UNL     1      43.987   5.118  11.780  0.00  0.00    +0.000 C 
ATOM     15  C   UNL     1      42.609   5.580  11.351  0.00  0.00    +0.000 C 
ATOM     16  C   UNL     1      42.786   5.003  12.716  0.00  0.00    +0.000 C 
BRANCH  14  19
ATOM     17  C   UNL     1      45.996   8.352  12.219  0.00  0.00    +0.000 A 
ATOM     18  C   UNL     1      44.977   7.493  11.834  0.00  0.00    +0.000 A 
ATOM     19  C   UNL     1      45.047   6.141  12.187  0.00  0.00    +0.000 A 
ATOM     20  C   UNL     1      46.163   5.740  12.935  0.00  0.00    +0.000 A 
ATOM     21  C   UNL     1      47.121   6.674  13.295  0.00  0.00    +0.000 A 
ATOM     22  N   UNL     1      47.061   7.975  12.953  0.00  0.00    +0.000 NA
BRANCH  17  24
ATOM     23  C   UNL     1      44.518  10.098  11.784  0.00  0.00    +0.000 C 
ATOM     24  O   UNL     1      45.876   9.667  11.816  0.00  0.00    +0.000 OA
ENDBRANCH  17  24
ENDBRANCH  14  19
ENDBRANCH   1  14
TORSDOF 4
ENDMDL
MODEL 3
REMARK VINA RESULT:    -7.324      2.284      6.617
REMARK INTER + INTRA:          -8.924
REMARK INTER:                  -8.412
REMARK INTRA:                  -0.512
REMARK UNBOUND:                 0.112
REMARK  Name = 
REMARK  5 active torsions:
REMARK  status: ('A' for Active; 'I' for Inactive)
REMARK    1  A    between atoms: C_1  and  O_2
REMARK    2  A    between atoms: O_2  and  C_3
REMARK    3  A    between atoms: C_5  and  C_6
REMARK    4  A    between atoms: C_6  and  N_7
REMARK    5  A    between atoms: C_11  and  C_12
REMARK                            x       y       z     vdW  Elec       q    Type
REMARK                         _______ _______ _______ _____ _____    ______ ____
ROOT
ATOM      1  N   UNL     1      44.856   6.512  11.606  0.00  0.00    +0.000 N 
ATOM      2  C   UNL     1      45.957   6.632  12.447  0.00  0.00    +0.000 A 
ATOM      3  C   UNL     1      46.703   5.554  12.908  0.00  0.00    +0.000 A 
ATOM      4  C   UNL     1      47.814   5.781  13.728  0.00  0.00    +0.000 A 
ATOM      5  C   UNL     1      48.157   7.088  14.064  0.00  0.00    +0.000 A 
ATOM      6  C   UNL     1      47.359   8.106  13.570  0.00  0.00    +0.000 A 
ATOM      7  N   UNL     1      46.283   7.902  12.768  0.00  0.00    +0.000 NA
ATOM      8  H   UNL     1      44.447   7.435  11.494  0.00  0.00    +0.000 HD
ENDROOT
BRANCH   5   9
ATOM      9  C   UNL     1      49.300   7.440  14.932  0.00  0.00    +0.000 C 
ATOM     10  N   UNL     1      50.548   7.424  14.376  0.00  0.00    +0.000 N 
ATOM     11  O   UNL     1      49.136   7.759  16.102  0.00  0.00    +0.000 OA
ATOM     12  H   UNL     1      50.706   7.409  13.378  0.00  0.00    +0.000 HD
ATOM     13  H   UNL     1      51.303   7.760  14.962  0.00  0.00    +0.000 HD
ENDBRANCH   5   9
BRANCH   1  14
ATOM     14  C   UNL     1      44.015   5.321  11.446  0.00  0.00    +0.000 C 
ATOM     15  C   UNL     1      43.171   4.807  12.595  0.00  0.00    +0.000 C 
ATOM     16  C   UNL     1      42.510   5.571  11.496  0.00  0.00    +0.000 C 
BRANCH  14  19
ATOM     17  C   UNL     1      45.615   3.850   8.289  0.00  0.00    +0.000 A 
ATOM     18  C   UNL     1      45.247   4.778   9.252  0.00  0.00    +0.000 A 
ATOM     19  C   UNL     1      44.491   4.363  10.354  0.00  0.00    +0.000 A 
ATOM     20  C   UNL     1      44.160   3.002  10.417  0.00  0.00    +0.000 A 
ATOM     21  C   UNL     1      44.592   2.143   9.420  0.00  0.00    +0.000 A 
ATOM     22  N   UNL     1      45.314   2.538   8.355  0.00  0.00    +0.000 NA
BRANCH  17  24
ATOM     23  C   UNL     1      46.688   3.299   6.297  0.00  0.00    +0.000 C 
ATOM     24  O   UNL     1      46.338   4.331   7.216  0.00  0.00    +0.000 OA
ENDBRANCH  17  24
ENDBRANCH  14  19
ENDBRANCH   1  14
TORSDOF 4
ENDMDL
MODEL 4
REMARK VINA RESULT:    -6.781      2.107      6.967
REMARK INTER + INTRA:          -8.254
REMARK INTER:                  -7.890
REMARK INTRA:                  -0.364
REMARK UNBOUND:                 0.112
REMARK  Name = 
REMARK  5 active torsions:
REMARK  status: ('A' for Active; 'I' for Inactive)
REMARK    1  A    between atoms: C_1  and  O_2
REMARK    2  A    between atoms: O_2  and  C_3
REMARK    3  A    between atoms: C_5  and  C_6
REMARK    4  A    between atoms: C_6  and  N_7
REMARK    5  A    between atoms: C_11  and  C_12
REMARK                            x       y       z     vdW  Elec       q    Type
REMARK                         _______ _______ _______ _____ _____    ______ ____
ROOT
ATOM      1  N   UNL     1      46.231   6.052  12.096  0.00  0.00    +0.000 N 
ATOM      2  C   UNL     1      46.780   5.730  13.333  0.00  0.00    +0.000 A 
ATOM      3  C   UNL     1      46.418   4.613  14.076  0.00  0.00    +0.000 A 
ATOM      4  C   UNL     1      47.052   4.359  15.298  0.00  0.00    +0.000 A 
ATOM      5  C   UNL     1      48.041   5.231  15.746  0.00  0.00    +0.000 A 
ATOM      6  C   UNL     1      48.340   6.324  14.951  0.00  0.00    +0.000 A 
ATOM      7  N   UNL     1      47.739   6.579  13.760  0.00  0.00    +0.000 NA
ATOM      8  H   UNL     1      46.605   6.953  11.814  0.00  0.00    +0.000 HD
ENDROOT
BRANCH   5   9
ATOM      9  C   UNL     1      48.763   5.065  17.024  0.00  0.00    +0.000 C 
ATOM     10  N   UNL     1      48.178   4.297  17.990  0.00  0.00    +0.000 N 
ATOM     11  O   UNL     1      49.860   5.576  17.206  0.00  0.00    +0.000 OA
ATOM     12  H   UNL     1      47.409   3.668  17.803  0.00  0.00    +0.000 HD
ATOM     13  H   UNL     1      48.733   4.119  18.820  0.00  0.00    +0.000 HD
ENDBRANCH   5   9
BRANCH   1  14
ATOM     14  C   UNL     1      44.927   5.615  11.589  0.00  0.00    +0.000 C 
ATOM     15  C   UNL     1      43.686   5.713  12.454  0.00  0.00    +0.000 C 
ATOM     16  C   UNL     1      43.901   6.727  11.379  0.00  0.00    +0.000 C 
BRANCH  14  19
ATOM     17  C   UNL     1      45.582   3.838   8.257  0.00  0.00    +0.000 A 
ATOM     18  C   UNL     1      45.574   4.833   9.224  0.00  0.00    +0.000 A 
ATOM     19  C   UNL     1      45.007   4.571  10.476  0.00  0.00    +0.000 A 
ATOM     20  C   UNL     1      44.483   3.286  10.676  0.00  0.00    +0.000 A 
ATOM     21  C   UNL     1      44.556   2.348   9.659  0.00  0.00    +0.000 A 
ATOM     22  N   UNL     1      45.096   2.597   8.451  0.00  0.00    +0.000 NA
BRANCH  17  24
ATOM     23  C   UNL     1      46.967   3.135   6.522  0.00  0.00    +0.000 C 
ATOM     24  O   UNL     1      46.135   4.172   7.036  0.00  0.00    +0.000 OA
ENDBRANCH  17  24
ENDBRANCH  14  19
ENDBRANCH   1  14
TORSDOF 4
ENDMDL
MODEL 5
REMARK VINA RESULT:    -6.579      2.051      6.560
REMARK INTER + INTRA:          -8.006
REMARK INTER:                  -8.298
REMARK INTRA:                   0.292
REMARK UNBOUND:                 0.112
REMARK  Name = 
REMARK  5 active torsions:
REMARK  status: ('A' for Active; 'I' for Inactive)
REMARK    1  A    between atoms: C_1  and  O_2
REMARK    2  A    between atoms: O_2  and  C_3
REMARK    3  A    between atoms: C_5  and  C_6
REMARK    4  A    between atoms: C_6  and  N_7
REMARK    5  A    between atoms: C_11  and  C_12
REMARK                            x       y       z     vdW  Elec       q    Type
REMARK                         _______ _______ _______ _____ _____    ______ ____
ROOT
ATOM      1  N   UNL     1      45.451   3.735  12.647  0.00  0.00    +0.000 N 
ATOM      2  C   UNL     1      45.991   4.989  12.912  0.00  0.00    +0.000 A 
ATOM      3  C   UNL     1      45.389   6.186  12.545  0.00  0.00    +0.000 A 
ATOM      4  C   UNL     1      45.998   7.400  12.885  0.00  0.00    +0.000 A 
ATOM      5  C   UNL     1      47.198   7.386  13.592  0.00  0.00    +0.000 A 
ATOM      6  C   UNL     1      47.736   6.151  13.915  0.00  0.00    +0.000 A 
ATOM      7  N   UNL     1      47.154   4.966  13.598  0.00  0.00    +0.000 NA
ATOM      8  H   UNL     1      46.127   3.036  12.942  0.00  0.00    +0.000 HD
ENDROOT
BRANCH   5   9
ATOM      9  C   UNL     1      47.931   8.605  13.989  0.00  0.00    +0.000 C 
ATOM     10  N   UNL     1      47.631   9.160  15.201  0.00  0.00    +0.000 N 
ATOM     11  O   UNL     1      48.795   9.090  13.272  0.00  0.00    +0.000 OA
ATOM     12  H   UNL     1      47.115   8.669  15.919  0.00  0.00    +0.000 HD
ATOM     13  H   UNL     1      48.211   9.938  15.494  0.00  0.00    +0.000 HD
ENDBRANCH   5   9
BRANCH   1  14
ATOM     14  C   UNL     1      44.488   3.413  11.589  0.00  0.00    +0.000 C 
ATOM     15  C   UNL     1      43.267   2.566  11.884  0.00  0.00    +0.000 C 
ATOM     16  C   UNL     1      43.107   4.044  11.748  0.00  0.00    +0.000 C 
BRANCH  14  19
ATOM     17  C   UNL     1      46.010   2.422   8.214  0.00  0.00    +0.000 A 
ATOM     18  C   UNL     1      45.460   2.300   9.482  0.00  0.00    +0.000 A 
ATOM     19  C   UNL     1      45.074   3.451  10.178  0.00  0.00    +0.000 A 
ATOM     20  C   UNL     1      45.263   4.677   9.525  0.00  0.00    +0.000 A 
ATOM     21  C   UNL     1      45.798   4.701   8.248  0.00  0.00    +0.000 A 
ATOM     22  N   UNL     1      46.177   3.597   7.577  0.00  0.00    +0.000 NA
BRANCH  17  24
ATOM     23  C   UNL     1      47.569   1.415   6.807  0.00  0.00    +0.000 C 
ATOM     24  O   UNL     1      46.393   1.249   7.595  0.00  0.00    +0.000 OA
ENDBRANCH  17  24
ENDBRANCH  14  19
ENDBRANCH   1  14
TORSDOF 4
ENDMDL
MODEL 6
REMARK VINA RESULT:    -6.457      3.725      6.412
REMARK INTER + INTRA:          -7.854
REMARK INTER:                  -7.733
REMARK INTRA:                  -0.121
REMARK UNBOUND:                 0.112
REMARK  Name = 
REMARK  5 active torsions:
REMARK  status: ('A' for Active; 'I' for Inactive)
REMARK    1  A    between atoms: C_1  and  O_2
REMARK    2  A    between atoms: O_2  and  C_3
REMARK    3  A    between atoms: C_5  and  C_6
REMARK    4  A    between atoms: C_6  and  N_7
REMARK    5  A    between atoms: C_11  and  C_12
REMARK                            x       y       z     vdW  Elec       q    Type
REMARK                         _______ _______ _______ _____ _____    ______ ____
ROOT
ATOM      1  N   UNL     1      47.613   3.002  15.319  0.00  0.00    +0.000 N 
ATOM      2  C   UNL     1      47.027   3.811  14.352  0.00  0.00    +0.000 A 
ATOM      3  C   UNL     1      47.094   5.199  14.356  0.00  0.00    +0.000 A 
ATOM      4  C   UNL     1      46.495   5.924  13.319  0.00  0.00    +0.000 A 
ATOM      5  C   UNL     1      45.845   5.239  12.296  0.00  0.00    +0.000 A 
ATOM      6  C   UNL     1      45.817   3.856  12.368  0.00  0.00    +0.000 A 
ATOM      7  N   UNL     1      46.399   3.139  13.363  0.00  0.00    +0.000 NA
ATOM      8  H   UNL     1      47.342   2.042  15.129  0.00  0.00    +0.000 HD
ENDROOT
BRANCH   5   9
ATOM      9  C   UNL     1      45.170   5.904  11.162  0.00  0.00    +0.000 C 
ATOM     10  N   UNL     1      45.627   5.634   9.903  0.00  0.00    +0.000 N 
ATOM     11  O   UNL     1      44.218   6.652  11.339  0.00  0.00    +0.000 OA
ATOM     12  H   UNL     1      46.233   4.853   9.693  0.00  0.00    +0.000 HD
ATOM     13  H   UNL     1      45.090   6.025   9.138  0.00  0.00    +0.000 HD
ENDBRANCH   5   9
BRANCH   1  14
ATOM     14  C   UNL     1      47.960   3.401  16.687  0.00  0.00    +0.000 C 
ATOM     15  C   UNL     1      47.114   4.410  17.438  0.00  0.00    +0.000 C 
ATOM     16  C   UNL     1      46.974   2.960  17.766  0.00  0.00    +0.000 C 
BRANCH  14  19
ATOM     17  C   UNL     1      51.423   1.916  17.384  0.00  0.00    +0.000 A 
ATOM     18  C   UNL     1      50.084   1.989  17.031  0.00  0.00    +0.000 A 
ATOM     19  C   UNL     1      49.439   3.231  17.032  0.00  0.00    +0.000 A 
ATOM     20  C   UNL     1      50.213   4.345  17.387  0.00  0.00    +0.000 A 
ATOM     21  C   UNL     1      51.552   4.179  17.702  0.00  0.00    +0.000 A 
ATOM     22  N   UNL     1      52.175   2.986  17.708  0.00  0.00    +0.000 NA
BRANCH  17  24
ATOM     23  C   UNL     1      53.415   0.709  17.346  0.00  0.00    +0.000 C 
ATOM     24  O   UNL     1      51.990   0.657  17.387  0.00  0.00    +0.000 OA
ENDBRANCH  17  24
ENDBRANCH  14  19
ENDBRANCH   1  14
TORSDOF 4
ENDMDL
