MODEL 1
REMARK VINA RESULT:    -7.905      0.000      0.000
REMARK INTER + INTRA:         -12.373
REMARK INTER:                 -11.139
REMARK INTRA:                  -1.233
REMARK UNBOUND:                -1.233
REMARK  Name = 
REMARK  7 active torsions:
REMARK  status: ('A' for Active; 'I' for Inactive)
REMARK    1  A    between atoms: C_2  and  C_3
REMARK    2  A    between atoms: C_3  and  N_4
REMARK    3  A    between atoms: C_3  and  C_17
REMARK    4  A    between atoms: C_5  and  C_7
REMARK    5  A    between atoms: C_20  and  C_21
REMARK    6  A    between atoms: C_21  and  N_22
REMARK    7  A    between atoms: C_23  and  C_25
REMARK                            x       y       z     vdW  Elec       q    Type
REMARK                         _______ _______ _______ _____ _____    ______ ____
ROOT
ATOM      1  C   UNL     1      47.698   4.836  15.285  0.00  0.00    +0.000 C 
ENDROOT
BRANCH   1   2
ATOM      2  C   UNL     1      46.869   4.748  14.005  0.00  0.00    +0.000 A 
ATOM      3  C   UNL     1      46.383   3.500  13.576  0.00  0.00    +0.000 A 
ATOM      4  C   UNL     1      45.653   3.381  12.388  0.00  0.00    +0.000 A 
ATOM      5  C   UNL     1      45.405   4.503  11.587  0.00  0.00    +0.000 A 
ATOM      6  C   UNL     1      45.885   5.748  12.009  0.00  0.00    +0.000 A 
ATOM      7  C   UNL     1      46.621   5.868  13.192  0.00  0.00    +0.000 A 
BRANCH   5   8
ATOM      8  C   UNL     1      44.624   4.382  10.303  0.00  0.00    +0.000 C 
BRANCH   8   9
ATOM      9  N   UNL     1      45.473   4.019   9.195  0.00  0.00    +0.000 N 
ATOM     10  C   UNL     1      45.485   2.739   8.702  0.00  0.00    +0.000 C 
ATOM     11  O   UNL     1      44.811   1.836   9.191  0.00  0.00    +0.000 OA
ATOM     12  H   UNL     1      45.970   4.752   8.710  0.00  0.00    +0.000 HD
BRANCH  10  13
ATOM     13  C   UNL     1      46.340   2.524   7.563  0.00  0.00    +0.000 A 
ATOM     14  C   UNL     1      46.546   3.219   6.387  0.00  0.00    +0.000 A 
ATOM     15  C   UNL     1      47.517   2.481   5.687  0.00  0.00    +0.000 A 
ATOM     16  N   UNL     1      47.909   1.397   6.355  0.00  0.00    +0.000 NA
ATOM     17  N   UNL     1      47.190   1.450   7.491  0.00  0.00    +0.000 N 
ATOM     18  H   UNL     1      47.313   0.721   8.188  0.00  0.00    +0.000 HD
ENDBRANCH  10  13
ENDBRANCH   8   9
ENDBRANCH   5   8
ENDBRANCH   1   2
BRANCH   1  19
ATOM     19  N   UNL     1      47.767   6.226  15.699  0.00  0.00    +0.000 N 
ATOM     20  C   UNL     1      48.965   6.840  15.957  0.00  0.00    +0.000 C 
ATOM     21  O   UNL     1      50.036   6.274  15.763  0.00  0.00    +0.000 OA
ATOM     22  H   UNL     1      46.913   6.627  16.073  0.00  0.00    +0.000 HD
BRANCH  20  23
ATOM     23  C   UNL     1      48.898   8.237  16.400  0.00  0.00    +0.000 A 
ATOM     24  C   UNL     1      49.456   9.239  15.619  0.00  0.00    +0.000 A 
ATOM     25  S   UNL     1      49.231  10.806  16.255  0.00  0.00    +0.000 S 
ATOM     26  C   UNL     1      48.432  10.194  17.627  0.00  0.00    +0.000 A 
ATOM     27  N   UNL     1      47.988  11.024  18.608  0.00  0.00    +0.000 NA
ATOM     28  C   UNL     1      47.444  10.421  19.613  0.00  0.00    +0.000 A 
ATOM     29  N   UNL     1      47.295   9.061  19.720  0.00  0.00    +0.000 N 
ATOM     30  C   UNL     1      47.670   8.190  18.725  0.00  0.00    +0.000 A 
ATOM     31  O   UNL     1      47.433   6.989  18.798  0.00  0.00    +0.000 OA
ATOM     32  C   UNL     1      48.320   8.816  17.589  0.00  0.00    +0.000 A 
ATOM     33  H   UNL     1      46.843   8.656  20.526  0.00  0.00    +0.000 HD
ENDBRANCH  20  23
ENDBRANCH   1  19
BRANCH   1  35
ATOM     34  N   UNL     1      46.763   3.291  17.221  0.00  0.00    +0.000 NA
ATOM     35  C   UNL     1      47.188   3.975  16.383  0.00  0.00    +0.000 C 
ENDBRANCH   1  35
TORSDOF 7
ENDMDL
MODEL 2
REMARK VINA RESULT:    -7.830      2.673      3.898
REMARK INTER + INTRA:         -12.268
REMARK INTER:                 -11.789
REMARK INTRA:                  -0.479
REMARK UNBOUND:                -1.233
REMARK  Name = 
REMARK  7 active torsions:
REMARK  status: ('A' for Active; 'I' for Inactive)
REMARK    1  A    between atoms: C_2  and  C_3
REMARK    2  A    between atoms: C_3  and  N_4
REMARK    3  A    between atoms: C_3  and  C_17
REMARK    4  A    between atoms: C_5  and  C_7
REMARK    5  A    between atoms: C_20  and  C_21
REMARK    6  A    between atoms: C_21  and  N_22
REMARK    7  A    between atoms: C_23  and  C_25
REMARK                            x       y       z     vdW  Elec       q    Type
REMARK                         _______ _______ _______ _____ _____    ______ ____
ROOT
ATOM      1  C   UNL     1      46.737   8.276  13.234  0.00  0.00    +0.000 C 
ENDROOT
BRANCH   1   2
ATOM      2  C   UNL     1      46.137   7.179  12.356  0.00  0.00    +0.000 A 
ATOM      3  C   UNL     1      46.663   6.951  11.072  0.00  0.00    +0.000 A 
ATOM      4  C   UNL     1      46.110   5.980  10.229  0.00  0.00    +0.000 A 
ATOM      5  C   UNL     1      45.004   5.225  10.639  0.00  0.00    +0.000 A 
ATOM      6  C   UNL     1      44.477   5.447  11.916  0.00  0.00    +0.000 A 
ATOM      7  C   UNL     1      45.023   6.422  12.757  0.00  0.00    +0.000 A 
BRANCH   5   8
ATOM      8  C   UNL     1      44.400   4.182   9.735  0.00  0.00    +0.000 C 
BRANCH   8   9
ATOM      9  N   UNL     1      45.249   3.897   8.605  0.00  0.00    +0.000 N 
ATOM     10  C   UNL     1      45.799   2.652   8.428  0.00  0.00    +0.000 C 
ATOM     11  O   UNL     1      45.628   1.735   9.227  0.00  0.00    +0.000 OA
ATOM     12  H   UNL     1      45.336   4.595   7.881  0.00  0.00    +0.000 HD
BRANCH  10  13
ATOM     13  C   UNL     1      46.586   2.490   7.233  0.00  0.00    +0.000 A 
ATOM     14  C   UNL     1      46.610   3.144   6.016  0.00  0.00    +0.000 A 
ATOM     15  C   UNL     1      47.613   2.499   5.270  0.00  0.00    +0.000 A 
ATOM     16  N   UNL     1      48.192   1.509   5.949  0.00  0.00    +0.000 NA
ATOM     17  N   UNL     1      47.560   1.529   7.136  0.00  0.00    +0.000 N 
ATOM     18  H   UNL     1      47.830   0.858   7.850  0.00  0.00    +0.000 HD
ENDBRANCH  10  13
ENDBRANCH   8   9
ENDBRANCH   5   8
ENDBRANCH   1   2
BRANCH   1  19
ATOM     19  N   UNL     1      47.278   7.665  14.435  0.00  0.00    +0.000 N 
ATOM     20  C   UNL     1      48.335   6.796  14.385  0.00  0.00    +0.000 C 
ATOM     21  O   UNL     1      48.932   6.564  13.337  0.00  0.00    +0.000 OA
ATOM     22  H   UNL     1      46.674   7.667  15.250  0.00  0.00    +0.000 HD
BRANCH  20  23
ATOM     23  C   UNL     1      48.767   6.222  15.664  0.00  0.00    +0.000 A 
ATOM     24  C   UNL     1      49.821   6.795  16.360  0.00  0.00    +0.000 A 
ATOM     25  S   UNL     1      50.145   6.036  17.854  0.00  0.00    +0.000 S 
ATOM     26  C   UNL     1      48.927   4.878  17.594  0.00  0.00    +0.000 A 
ATOM     27  N   UNL     1      48.688   3.894  18.501  0.00  0.00    +0.000 NA
ATOM     28  C   UNL     1      47.769   3.056  18.152  0.00  0.00    +0.000 A 
ATOM     29  N   UNL     1      47.058   3.121  16.980  0.00  0.00    +0.000 N 
ATOM     30  C   UNL     1      47.220   4.133  16.065  0.00  0.00    +0.000 A 
ATOM     31  O   UNL     1      46.502   4.227  15.075  0.00  0.00    +0.000 OA
ATOM     32  C   UNL     1      48.268   5.081  16.394  0.00  0.00    +0.000 A 
ATOM     33  H   UNL     1      46.338   2.443  16.778  0.00  0.00    +0.000 HD
ENDBRANCH  20  23
ENDBRANCH   1  19
BRANCH   1  35
ATOM     34  N   UNL     1      48.555   9.764  12.013  0.00  0.00    +0.000 NA
ATOM     35  C   UNL     1      47.765   9.095  12.540  0.00  0.00    +0.000 C 
ENDBRANCH   1  35
TORSDOF 7
ENDMDL
MODEL 3
REMARK VINA RESULT:    -7.228      2.889      4.113
REMARK INTER + INTRA:         -11.419
REMARK INTER:                 -10.553
REMARK INTRA:                  -0.865
REMARK UNBOUND:                -1.233
REMARK  Name = 
REMARK  7 active torsions:
REMARK  status: ('A' for Active; 'I' for Inactive)
REMARK    1  A    between atoms: C_2  and  C_3
REMARK    2  A    between atoms: C_3  and  N_4
REMARK    3  A    between atoms: C_3  and  C_17
REMARK    4  A    between atoms: C_5  and  C_7
REMARK    5  A    between atoms: C_20  and  C_21
REMARK    6  A    between atoms: C_21  and  N_22
REMARK    7  A    between atoms: C_23  and  C_25
REMARK                            x       y       z     vdW  Elec       q    Type
REMARK                         _______ _______ _______ _____ _____    ______ ____
ROOT
ATOM      1  C   UNL     1      47.656   7.411  13.792  0.00  0.00    +0.000 C 
ENDROOT
BRANCH   1   2
ATOM      2  C   UNL     1      46.685   6.657  12.884  0.00  0.00    +0.000 A 
ATOM      3  C   UNL     1      46.465   5.283  13.091  0.00  0.00    +0.000 A 
ATOM      4  C   UNL     1      45.612   4.557  12.253  0.00  0.00    +0.000 A 
ATOM      5  C   UNL     1      44.970   5.179  11.174  0.00  0.00    +0.000 A 
ATOM      6  C   UNL     1      45.185   6.546  10.964  0.00  0.00    +0.000 A 
ATOM      7  C   UNL     1      46.044   7.272  11.796  0.00  0.00    +0.000 A 
BRANCH   5   8
ATOM      8  C   UNL     1      44.055   4.402  10.263  0.00  0.00    +0.000 C 
BRANCH   8   9
ATOM      9  N   UNL     1      44.752   3.335   9.590  0.00  0.00    +0.000 N 
ATOM     10  C   UNL     1      45.573   3.589   8.520  0.00  0.00    +0.000 C 
ATOM     11  O   UNL     1      45.731   4.719   8.062  0.00  0.00    +0.000 OA
ATOM     12  H   UNL     1      44.720   2.410   9.993  0.00  0.00    +0.000 HD
BRANCH  10  13
ATOM     13  C   UNL     1      46.247   2.440   7.972  0.00  0.00    +0.000 A 
ATOM     14  C   UNL     1      46.071   1.078   8.118  0.00  0.00    +0.000 A 
ATOM     15  C   UNL     1      47.062   0.489   7.312  0.00  0.00    +0.000 A 
ATOM     16  N   UNL     1      47.817   1.396   6.693  0.00  0.00    +0.000 NA
ATOM     17  N   UNL     1      47.299   2.568   7.101  0.00  0.00    +0.000 N 
ATOM     18  H   UNL     1      47.705   3.435   6.756  0.00  0.00    +0.000 HD
ENDBRANCH  10  13
ENDBRANCH   8   9
ENDBRANCH   5   8
ENDBRANCH   1   2
BRANCH   1  19
ATOM     19  N   UNL     1      48.174   6.488  14.786  0.00  0.00    +0.000 N 
ATOM     20  C   UNL     1      48.665   6.928  15.987  0.00  0.00    +0.000 C 
ATOM     21  O   UNL     1      48.607   8.109  16.315  0.00  0.00    +0.000 OA
ATOM     22  H   UNL     1      48.432   5.566  14.451  0.00  0.00    +0.000 HD
BRANCH  20  23
ATOM     23  C   UNL     1      49.191   5.899  16.891  0.00  0.00    +0.000 A 
ATOM     24  C   UNL     1      48.316   5.123  17.639  0.00  0.00    +0.000 A 
ATOM     25  S   UNL     1      49.096   3.937  18.586  0.00  0.00    +0.000 S 
ATOM     26  C   UNL     1      50.633   4.461  18.076  0.00  0.00    +0.000 A 
ATOM     27  N   UNL     1      51.766   3.871  18.543  0.00  0.00    +0.000 NA
ATOM     28  C   UNL     1      52.861   4.401  18.110  0.00  0.00    +0.000 A 
ATOM     29  N   UNL     1      52.926   5.462  17.243  0.00  0.00    +0.000 N 
ATOM     30  C   UNL     1      51.809   6.047  16.697  0.00  0.00    +0.000 A 
ATOM     31  O   UNL     1      51.893   6.926  15.845  0.00  0.00    +0.000 OA
ATOM     32  C   UNL     1      50.550   5.511  17.179  0.00  0.00    +0.000 A 
ATOM     33  H   UNL     1      53.818   5.816  16.929  0.00  0.00    +0.000 HD
ENDBRANCH  20  23
ENDBRANCH   1  19
BRANCH   1  35
ATOM     34  N   UNL     1      49.601   8.631  12.475  0.00  0.00    +0.000 NA
ATOM     35  C   UNL     1      48.759   8.080  13.055  0.00  0.00    +0.000 C 
ENDBRANCH   1  35
TORSDOF 7
ENDMDL
MODEL 4
REMARK VINA RESULT:    -6.661      4.416      8.529
REMARK INTER + INTRA:         -10.620
REMARK INTER:                  -9.522
REMARK INTRA:                  -1.097
REMARK UNBOUND:                -1.233
REMARK  Name = 
REMARK  7 active torsions:
REMARK  status: ('A' for Active; 'I' for Inactive)
REMARK    1  A    between atoms: C_2  and  C_3
REMARK    2  A    between atoms: C_3  and  N_4
REMARK    3  A    between atoms: C_3  and  C_17
REMARK    4  A    between atoms: C_5  and  C_7
REMARK    5  A    between atoms: C_20  and  C_21
REMARK    6  A    between atoms: C_21  and  N_22
REMARK    7  A    between atoms: C_23  and  C_25
REMARK                            x       y       z     vdW  Elec       q    Type
REMARK                         _______ _______ _______ _____ _____    ______ ____
ROOT
ATOM      1  C   UNL     1      49.175   7.749  15.148  0.00  0.00    +0.000 C 
ENDROOT
BRANCH   1   2
ATOM      2  C   UNL     1      49.578   6.634  16.112  0.00  0.00    +0.000 A 
ATOM      3  C   UNL     1      50.936   6.448  16.429  0.00  0.00    +0.000 A 
ATOM      4  C   UNL     1      51.341   5.411  17.278  0.00  0.00    +0.000 A 
ATOM      5  C   UNL     1      50.403   4.522  17.818  0.00  0.00    +0.000 A 
ATOM      6  C   UNL     1      49.050   4.704  17.506  0.00  0.00    +0.000 A 
ATOM      7  C   UNL     1      48.644   5.734  16.651  0.00  0.00    +0.000 A 
BRANCH   5   8
ATOM      8  C   UNL     1      50.831   3.401  18.728  0.00  0.00    +0.000 C 
BRANCH   8   9
ATOM      9  N   UNL     1      52.070   2.804  18.293  0.00  0.00    +0.000 N 
ATOM     10  C   UNL     1      52.082   1.599  17.635  0.00  0.00    +0.000 C 
ATOM     11  O   UNL     1      51.059   0.956  17.413  0.00  0.00    +0.000 OA
ATOM     12  H   UNL     1      52.919   3.344  18.374  0.00  0.00    +0.000 HD
BRANCH  10  13
ATOM     13  C   UNL     1      53.380   1.141  17.212  0.00  0.00    +0.000 A 
ATOM     14  C   UNL     1      54.620   1.745  17.130  0.00  0.00    +0.000 A 
ATOM     15  C   UNL     1      55.483   0.751  16.634  0.00  0.00    +0.000 A 
ATOM     16  N   UNL     1      54.854  -0.402  16.413  0.00  0.00    +0.000 NA
ATOM     17  N   UNL     1      53.586  -0.145  16.779  0.00  0.00    +0.000 N 
ATOM     18  H   UNL     1      52.891  -0.884  16.709  0.00  0.00    +0.000 HD
ENDBRANCH  10  13
ENDBRANCH   8   9
ENDBRANCH   5   8
ENDBRANCH   1   2
BRANCH   1  19
ATOM     19  N   UNL     1      47.941   7.365  14.484  0.00  0.00    +0.000 N 
ATOM     20  C   UNL     1      47.948   6.676  13.300  0.00  0.00    +0.000 C 
ATOM     21  O   UNL     1      48.990   6.272  12.793  0.00  0.00    +0.000 OA
ATOM     22  H   UNL     1      47.107   7.871  14.760  0.00  0.00    +0.000 HD
BRANCH  20  23
ATOM     23  C   UNL     1      46.637   6.377  12.715  0.00  0.00    +0.000 A 
ATOM     24  C   UNL     1      45.877   7.397  12.159  0.00  0.00    +0.000 A 
ATOM     25  S   UNL     1      44.412   6.859  11.470  0.00  0.00    +0.000 S 
ATOM     26  C   UNL     1      44.714   5.253  11.943  0.00  0.00    +0.000 A 
ATOM     27  N   UNL     1      43.820   4.263  11.678  0.00  0.00    +0.000 NA
ATOM     28  C   UNL     1      44.155   3.103  12.138  0.00  0.00    +0.000 A 
ATOM     29  N   UNL     1      45.310   2.841  12.829  0.00  0.00    +0.000 N 
ATOM     30  C   UNL     1      46.271   3.796  13.064  0.00  0.00    +0.000 A 
ATOM     31  O   UNL     1      47.341   3.516  13.594  0.00  0.00    +0.000 OA
ATOM     32  C   UNL     1      45.925   5.126  12.598  0.00  0.00    +0.000 A 
ATOM     33  H   UNL     1      45.520   1.906  13.145  0.00  0.00    +0.000 HD
ENDBRANCH  20  23
ENDBRANCH   1  19
BRANCH   1  35
ATOM     34  N   UNL     1      48.971  10.117  16.315  0.00  0.00    +0.000 NA
ATOM     35  C   UNL     1      49.041   9.077  15.800  0.00  0.00    +0.000 C 
ENDBRANCH   1  35
TORSDOF 7
ENDMDL
MODEL 5
REMARK VINA RESULT:    -6.461      2.681      3.763
REMARK INTER + INTRA:         -10.338
REMARK INTER:                  -9.410
REMARK INTRA:                  -0.928
REMARK UNBOUND:                -1.233
REMARK  Name = 
REMARK  7 active torsions:
REMARK  status: ('A' for Active; 'I' for Inactive)
REMARK    1  A    between atoms: C_2  and  C_3
REMARK    2  A    between atoms: C_3  and  N_4
REMARK    3  A    between atoms: C_3  and  C_17
REMARK    4  A    between atoms: C_5  and  C_7
REMARK    5  A    between atoms: C_20  and  C_21
REMARK    6  A    between atoms: C_21  and  N_22
REMARK    7  A    between atoms: C_23  and  C_25
REMARK                            x       y       z     vdW  Elec       q    Type
REMARK                         _______ _______ _______ _____ _____    ______ ____
ROOT
ATOM      1  C   UNL     1      46.516   8.484  13.218  0.00  0.00    +0.000 C 
ENDROOT
BRANCH   1   2
ATOM      2  C   UNL     1      45.960   7.413  12.282  0.00  0.00    +0.000 A 
ATOM      3  C   UNL     1      44.667   7.561  11.747  0.00  0.00    +0.000 A 
ATOM      4  C   UNL     1      44.114   6.578  10.917  0.00  0.00    +0.000 A 
ATOM      5  C   UNL     1      44.831   5.413  10.615  0.00  0.00    +0.000 A 
ATOM      6  C   UNL     1      46.117   5.261  11.143  0.00  0.00    +0.000 A 
ATOM      7  C   UNL     1      46.669   6.238  11.979  0.00  0.00    +0.000 A 
BRANCH   5   8
ATOM      8  C   UNL     1      44.240   4.348   9.727  0.00  0.00    +0.000 C 
BRANCH   8   9
ATOM      9  N   UNL     1      45.123   4.011   8.638  0.00  0.00    +0.000 N 
ATOM     10  C   UNL     1      45.609   2.737   8.489  0.00  0.00    +0.000 C 
ATOM     11  O   UNL     1      45.351   1.834   9.281  0.00  0.00    +0.000 OA
ATOM     12  H   UNL     1      45.283   4.701   7.918  0.00  0.00    +0.000 HD
BRANCH  10  13
ATOM     13  C   UNL     1      46.440   2.525   7.331  0.00  0.00    +0.000 A 
ATOM     14  C   UNL     1      46.550   3.165   6.112  0.00  0.00    +0.000 A 
ATOM     15  C   UNL     1      47.553   2.465   5.417  0.00  0.00    +0.000 A 
ATOM     16  N   UNL     1      48.053   1.456   6.129  0.00  0.00    +0.000 NA
ATOM     17  N   UNL     1      47.370   1.518   7.286  0.00  0.00    +0.000 N 
ATOM     18  H   UNL     1      47.575   0.842   8.017  0.00  0.00    +0.000 HD
ENDBRANCH  10  13
ENDBRANCH   8   9
ENDBRANCH   5   8
ENDBRANCH   1   2
BRANCH   1  19
ATOM     19  N   UNL     1      47.850   8.089  13.634  0.00  0.00    +0.000 N 
ATOM     20  C   UNL     1      48.404   8.549  14.800  0.00  0.00    +0.000 C 
ATOM     21  O   UNL     1      47.767   9.240  15.589  0.00  0.00    +0.000 OA
ATOM     22  H   UNL     1      48.456   7.717  12.910  0.00  0.00    +0.000 HD
BRANCH  20  23
ATOM     23  C   UNL     1      49.771   8.103  15.091  0.00  0.00    +0.000 A 
ATOM     24  C   UNL     1      50.851   8.770  14.531  0.00  0.00    +0.000 A 
ATOM     25  S   UNL     1      52.364   8.156  15.027  0.00  0.00    +0.000 S 
ATOM     26  C   UNL     1      51.627   6.939  15.960  0.00  0.00    +0.000 A 
ATOM     27  N   UNL     1      52.373   6.031  16.644  0.00  0.00    +0.000 NA
ATOM     28  C   UNL     1      51.683   5.136  17.270  0.00  0.00    +0.000 A 
ATOM     29  N   UNL     1      50.312   5.074  17.282  0.00  0.00    +0.000 N 
ATOM     30  C   UNL     1      49.519   6.007  16.659  0.00  0.00    +0.000 A 
ATOM     31  O   UNL     1      48.297   5.990  16.769  0.00  0.00    +0.000 OA
ATOM     32  C   UNL     1      50.247   7.015  15.911  0.00  0.00    +0.000 A 
ATOM     33  H   UNL     1      49.835   4.357  17.808  0.00  0.00    +0.000 HD
ENDBRANCH  20  23
ENDBRANCH   1  19
BRANCH   1  35
ATOM     34  N   UNL     1      46.545  10.923  12.187  0.00  0.00    +0.000 NA
ATOM     35  C   UNL     1      46.521   9.846  12.624  0.00  0.00    +0.000 C 
ENDBRANCH   1  35
TORSDOF 7
ENDMDL
MODEL 6
REMARK VINA RESULT:    -6.303      4.314      5.909
REMARK INTER + INTRA:         -10.115
REMARK INTER:                  -9.267
REMARK INTRA:                  -0.848
REMARK UNBOUND:                -1.233
REMARK  Name = 
REMARK  7 active torsions:
REMARK  status: ('A' for Active; 'I' for Inactive)
REMARK    1  A    between atoms: C_2  and  C_3
REMARK    2  A    between atoms: C_3  and  N_4
REMARK    3  A    between atoms: C_3  and  C_17
REMARK    4  A    between atoms: C_5  and  C_7
REMARK    5  A    between atoms: C_20  and  C_21
REMARK    6  A    between atoms: C_21  and  N_22
REMARK    7  A    between atoms: C_23  and  C_25
REMARK                            x       y       z     vdW  Elec       q    Type
REMARK                         _______ _______ _______ _____ _____    ______ ____
ROOT
ATOM      1  C   UNL     1      48.339   4.140  18.004  0.00  0.00    +0.000 C 
ENDROOT
BRANCH   1   2
ATOM      2  C   UNL     1      48.078   4.762  16.633  0.00  0.00    +0.000 A 
ATOM      3  C   UNL     1      48.698   5.977  16.292  0.00  0.00    +0.000 A 
ATOM      4  C   UNL     1      48.448   6.591  15.059  0.00  0.00    +0.000 A 
ATOM      5  C   UNL     1      47.559   6.018  14.142  0.00  0.00    +0.000 A 
ATOM      6  C   UNL     1      46.939   4.808  14.476  0.00  0.00    +0.000 A 
ATOM      7  C   UNL     1      47.181   4.196  15.711  0.00  0.00    +0.000 A 
BRANCH   5   8
ATOM      8  C   UNL     1      47.280   6.676  12.815  0.00  0.00    +0.000 C 
BRANCH   8   9
ATOM      9  N   UNL     1      46.787   5.731  11.844  0.00  0.00    +0.000 N 
ATOM     10  C   UNL     1      45.557   5.895  11.257  0.00  0.00    +0.000 C 
ATOM     11  O   UNL     1      44.805   6.823  11.547  0.00  0.00    +0.000 OA
ATOM     12  H   UNL     1      47.412   5.010  11.514  0.00  0.00    +0.000 HD
BRANCH  10  13
ATOM     13  C   UNL     1      45.208   4.908  10.269  0.00  0.00    +0.000 A 
ATOM     14  C   UNL     1      44.668   3.639  10.345  0.00  0.00    +0.000 A 
ATOM     15  C   UNL     1      44.575   3.197   9.013  0.00  0.00    +0.000 A 
ATOM     16  N   UNL     1      45.016   4.106   8.145  0.00  0.00    +0.000 NA
ATOM     17  N   UNL     1      45.385   5.135   8.928  0.00  0.00    +0.000 N 
ATOM     18  H   UNL     1      45.760   5.976   8.495  0.00  0.00    +0.000 HD
ENDBRANCH  10  13
ENDBRANCH   8   9
ENDBRANCH   5   8
ENDBRANCH   1   2
BRANCH   1  19
ATOM     19  N   UNL     1      49.729   3.725  18.069  0.00  0.00    +0.000 N 
ATOM     20  C   UNL     1      50.182   2.625  17.390  0.00  0.00    +0.000 C 
ATOM     21  O   UNL     1      49.458   1.993  16.626  0.00  0.00    +0.000 OA
ATOM     22  H   UNL     1      50.269   4.086  18.848  0.00  0.00    +0.000 HD
BRANCH  20  23
ATOM     23  C   UNL     1      51.600   2.292  17.564  0.00  0.00    +0.000 A 
ATOM     24  C   UNL     1      51.989   0.965  17.688  0.00  0.00    +0.000 A 
ATOM     25  S   UNL     1      53.678   0.759  17.820  0.00  0.00    +0.000 S 
ATOM     26  C   UNL     1      53.943   2.440  17.776  0.00  0.00    +0.000 A 
ATOM     27  N   UNL     1      55.197   2.955  17.872  0.00  0.00    +0.000 NA
ATOM     28  C   UNL     1      55.245   4.246  17.874  0.00  0.00    +0.000 A 
ATOM     29  N   UNL     1      54.151   5.069  17.777  0.00  0.00    +0.000 N 
ATOM     30  C   UNL     1      52.873   4.592  17.613  0.00  0.00    +0.000 A 
ATOM     31  O   UNL     1      51.923   5.346  17.426  0.00  0.00    +0.000 OA
ATOM     32  C   UNL     1      52.761   3.146  17.641  0.00  0.00    +0.000 A 
ATOM     33  H   UNL     1      54.262   6.072  17.766  0.00  0.00    +0.000 HD
ENDBRANCH  20  23
ENDBRANCH   1  19
BRANCH   1  35
ATOM     34  N   UNL     1      47.745   5.720  20.045  0.00  0.00    +0.000 NA
ATOM     35  C   UNL     1      47.994   5.037  19.137  0.00  0.00    +0.000 C 
ENDBRANCH   1  35
TORSDOF 7
ENDMDL
MODEL 7
REMARK VINA RESULT:    -6.101      4.893      8.854
REMARK INTER + INTRA:          -9.830
REMARK INTER:                  -8.917
REMARK INTRA:                  -0.913
REMARK UNBOUND:                -1.233
REMARK  Name = 
REMARK  7 active torsions:
REMARK  status: ('A' for Active; 'I' for Inactive)
REMARK    1  A    between atoms: C_2  and  C_3
REMARK    2  A    between atoms: C_3  and  N_4
REMARK    3  A    between atoms: C_3  and  C_17
REMARK    4  A    between atoms: C_5  and  C_7
REMARK    5  A    between atoms: C_20  and  C_21
REMARK    6  A    between atoms: C_21  and  N_22
REMARK    7  A    between atoms: C_23  and  C_25
REMARK                            x       y       z     vdW  Elec       q    Type
REMARK                         _______ _______ _______ _____ _____    ______ ____
ROOT
ATOM      1  C   UNL     1      48.844   7.511  15.339  0.00  0.00    +0.000 C 
ENDROOT
BRANCH   1   2
ATOM      2  C   UNL     1      49.719   6.557  16.152  0.00  0.00    +0.000 A 
ATOM      3  C   UNL     1      49.114   5.576  16.958  0.00  0.00    +0.000 A 
ATOM      4  C   UNL     1      49.886   4.714  17.744  0.00  0.00    +0.000 A 
ATOM      5  C   UNL     1      51.282   4.820  17.760  0.00  0.00    +0.000 A 
ATOM      6  C   UNL     1      51.890   5.793  16.959  0.00  0.00    +0.000 A 
ATOM      7  C   UNL     1      51.120   6.662  16.179  0.00  0.00    +0.000 A 
BRANCH   5   8
ATOM      8  C   UNL     1      52.121   3.898  18.608  0.00  0.00    +0.000 C 
BRANCH   8   9
ATOM      9  N   UNL     1      52.846   2.945  17.804  0.00  0.00    +0.000 N 
ATOM     10  C   UNL     1      53.713   2.050  18.377  0.00  0.00    +0.000 C 
ATOM     11  O   UNL     1      53.944   2.033  19.584  0.00  0.00    +0.000 OA
ATOM     12  H   UNL     1      52.614   2.868  16.824  0.00  0.00    +0.000 HD
BRANCH  10  13
ATOM     13  C   UNL     1      54.333   1.122  17.466  0.00  0.00    +0.000 A 
ATOM     14  C   UNL     1      55.591   1.043  16.902  0.00  0.00    +0.000 A 
ATOM     15  C   UNL     1      55.562  -0.107  16.093  0.00  0.00    +0.000 A 
ATOM     16  N   UNL     1      54.382  -0.724  16.132  0.00  0.00    +0.000 NA
ATOM     17  N   UNL     1      53.659   0.033  16.976  0.00  0.00    +0.000 N 
ATOM     18  H   UNL     1      52.700  -0.236  17.183  0.00  0.00    +0.000 HD
ENDBRANCH  10  13
ENDBRANCH   8   9
ENDBRANCH   5   8
ENDBRANCH   1   2
BRANCH   1  19
ATOM     19  N   UNL     1      47.749   6.756  14.758  0.00  0.00    +0.000 N 
ATOM     20  C   UNL     1      47.841   6.205  13.507  0.00  0.00    +0.000 C 
ATOM     21  O   UNL     1      48.883   6.246  12.858  0.00  0.00    +0.000 OA
ATOM     22  H   UNL     1      46.834   6.903  15.170  0.00  0.00    +0.000 HD
BRANCH  20  23
ATOM     23  C   UNL     1      46.654   5.494  13.020  0.00  0.00    +0.000 A 
ATOM     24  C   UNL     1      46.577   4.113  13.137  0.00  0.00    +0.000 A 
ATOM     25  S   UNL     1      45.103   3.462  12.577  0.00  0.00    +0.000 S 
ATOM     26  C   UNL     1      44.541   4.997  12.103  0.00  0.00    +0.000 A 
ATOM     27  N   UNL     1      43.325   5.147  11.514  0.00  0.00    +0.000 NA
ATOM     28  C   UNL     1      43.048   6.359  11.162  0.00  0.00    +0.000 A 
ATOM     29  N   UNL     1      43.875   7.437  11.356  0.00  0.00    +0.000 N 
ATOM     30  C   UNL     1      45.083   7.341  12.004  0.00  0.00    +0.000 A 
ATOM     31  O   UNL     1      45.757   8.335  12.258  0.00  0.00    +0.000 OA
ATOM     32  C   UNL     1      45.457   5.994  12.388  0.00  0.00    +0.000 A 
ATOM     33  H   UNL     1      43.588   8.362  11.073  0.00  0.00    +0.000 HD
ENDBRANCH  20  23
ENDBRANCH   1  19
BRANCH   1  35
ATOM     34  N   UNL     1      47.971   9.567  16.762  0.00  0.00    +0.000 NA
ATOM     35  C   UNL     1      48.340   8.668  16.124  0.00  0.00    +0.000 C 
ENDBRANCH   1  35
TORSDOF 7
ENDMDL
MODEL 8
REMARK VINA RESULT:    -6.067      4.678      6.342
REMARK INTER + INTRA:          -9.782
REMARK INTER:                  -9.107
REMARK INTRA:                  -0.676
REMARK UNBOUND:                -1.233
REMARK  Name = 
REMARK  7 active torsions:
REMARK  status: ('A' for Active; 'I' for Inactive)
REMARK    1  A    between atoms: C_2  and  C_3
REMARK    2  A    between atoms: C_3  and  N_4
REMARK    3  A    between atoms: C_3  and  C_17
REMARK    4  A    between atoms: C_5  and  C_7
REMARK    5  A    between atoms: C_20  and  C_21
REMARK    6  A    between atoms: C_21  and  N_22
REMARK    7  A    between atoms: C_23  and  C_25
REMARK                            x       y       z     vdW  Elec       q    Type
REMARK                         _______ _______ _______ _____ _____    ______ ____
ROOT
ATOM      1  C   UNL     1      48.722   4.353  18.189  0.00  0.00    +0.000 C 
ENDROOT
BRANCH   1   2
ATOM      2  C   UNL     1      48.346   4.983  16.849  0.00  0.00    +0.000 A 
ATOM      3  C   UNL     1      47.427   4.331  16.008  0.00  0.00    +0.000 A 
ATOM      4  C   UNL     1      47.091   4.863  14.758  0.00  0.00    +0.000 A 
ATOM      5  C   UNL     1      47.679   6.052  14.307  0.00  0.00    +0.000 A 
ATOM      6  C   UNL     1      48.594   6.705  15.140  0.00  0.00    +0.000 A 
ATOM      7  C   UNL     1      48.937   6.171  16.386  0.00  0.00    +0.000 A 
BRANCH   5   8
ATOM      8  C   UNL     1      47.327   6.628  12.959  0.00  0.00    +0.000 C 
BRANCH   8   9
ATOM      9  N   UNL     1      46.712   5.645  12.102  0.00  0.00    +0.000 N 
ATOM     10  C   UNL     1      45.669   5.980  11.276  0.00  0.00    +0.000 C 
ATOM     11  O   UNL     1      45.186   7.109  11.245  0.00  0.00    +0.000 OA
ATOM     12  H   UNL     1      47.140   4.733  12.032  0.00  0.00    +0.000 HD
BRANCH  10  13
ATOM     13  C   UNL     1      45.181   4.916  10.437  0.00  0.00    +0.000 A 
ATOM     14  C   UNL     1      44.685   3.653  10.697  0.00  0.00    +0.000 A 
ATOM     15  C   UNL     1      44.382   3.108   9.437  0.00  0.00    +0.000 A 
ATOM     16  N   UNL     1      44.656   3.949   8.441  0.00  0.00    +0.000 NA
ATOM     17  N   UNL     1      45.130   5.039   9.071  0.00  0.00    +0.000 N 
ATOM     18  H   UNL     1      45.411   5.846   8.520  0.00  0.00    +0.000 HD
ENDBRANCH  10  13
ENDBRANCH   8   9
ENDBRANCH   5   8
ENDBRANCH   1   2
BRANCH   1  19
ATOM     19  N   UNL     1      50.169   4.251  18.264  0.00  0.00    +0.000 N 
ATOM     20  C   UNL     1      50.858   3.291  17.571  0.00  0.00    +0.000 C 
ATOM     21  O   UNL     1      50.296   2.532  16.787  0.00  0.00    +0.000 OA
ATOM     22  H   UNL     1      50.611   4.705  19.057  0.00  0.00    +0.000 HD
BRANCH  20  23
ATOM     23  C   UNL     1      52.312   3.272  17.758  0.00  0.00    +0.000 A 
ATOM     24  C   UNL     1      53.040   4.448  17.647  0.00  0.00    +0.000 A 
ATOM     25  S   UNL     1      54.707   4.251  17.955  0.00  0.00    +0.000 S 
ATOM     26  C   UNL     1      54.523   2.576  18.188  0.00  0.00    +0.000 A 
ATOM     27  N   UNL     1      55.593   1.784  18.465  0.00  0.00    +0.000 NA
ATOM     28  C   UNL     1      55.315   0.527  18.569  0.00  0.00    +0.000 A 
ATOM     29  N   UNL     1      54.060  -0.009  18.430  0.00  0.00    +0.000 N 
ATOM     30  C   UNL     1      52.941   0.759  18.213  0.00  0.00    +0.000 A 
ATOM     31  O   UNL     1      51.817   0.269  18.195  0.00  0.00    +0.000 OA
ATOM     32  C   UNL     1      53.205   2.177  18.054  0.00  0.00    +0.000 A 
ATOM     33  H   UNL     1      53.909  -1.001  18.542  0.00  0.00    +0.000 HD
ENDBRANCH  20  23
ENDBRANCH   1  19
BRANCH   1  35
ATOM     34  N   UNL     1      47.715   5.646  20.268  0.00  0.00    +0.000 NA
ATOM     35  C   UNL     1      48.175   5.082  19.362  0.00  0.00    +0.000 C 
ENDBRANCH   1  35
TORSDOF 7
ENDMDL
MODEL 9
REMARK VINA RESULT:    -5.940      4.481      7.488
REMARK INTER + INTRA:          -9.604
REMARK INTER:                  -8.434
REMARK INTRA:                  -1.169
REMARK UNBOUND:                -1.233
REMARK  Name = 
REMARK  7 active torsions:
REMARK  status: ('A' for Active; 'I' for Inactive)
REMARK    1  A    between atoms: C_2  and  C_3
REMARK    2  A    between atoms: C_3  and  N_4
REMARK    3  A    between atoms: C_3  and  C_17
REMARK    4  A    between atoms: C_5  and  C_7
REMARK    5  A    between atoms: C_20  and  C_21
REMARK    6  A    between atoms: C_21  and  N_22
REMARK    7  A    between atoms: C_23  and  C_25
REMARK                            x       y       z     vdW  Elec       q    Type
REMARK                         _______ _______ _______ _____ _____    ______ ____
ROOT
ATOM      1  C   UNL     1      47.465   7.105  12.917  0.00  0.00    +0.000 C 
ENDROOT
BRANCH   1   2
ATOM      2  C   UNL     1      47.539   6.092  14.058  0.00  0.00    +0.000 A 
ATOM      3  C   UNL     1      46.816   4.889  13.968  0.00  0.00    +0.000 A 
ATOM      4  C   UNL     1      46.833   3.959  15.014  0.00  0.00    +0.000 A 
ATOM      5  C   UNL     1      47.558   4.213  16.184  0.00  0.00    +0.000 A 
ATOM      6  C   UNL     1      48.281   5.408  16.279  0.00  0.00    +0.000 A 
ATOM      7  C   UNL     1      48.259   6.343  15.239  0.00  0.00    +0.000 A 
BRANCH   5   8
ATOM      8  C   UNL     1      47.577   3.219  17.317  0.00  0.00    +0.000 C 
BRANCH   8   9
ATOM      9  N   UNL     1      48.922   2.908  17.732  0.00  0.00    +0.000 N 
ATOM     10  C   UNL     1      49.733   2.107  16.967  0.00  0.00    +0.000 C 
ATOM     11  O   UNL     1      49.352   1.590  15.920  0.00  0.00    +0.000 OA
ATOM     12  H   UNL     1      49.300   3.388  18.536  0.00  0.00    +0.000 HD
BRANCH  10  13
ATOM     13  C   UNL     1      51.068   1.918  17.473  0.00  0.00    +0.000 A 
ATOM     14  C   UNL     1      52.100   2.785  17.774  0.00  0.00    +0.000 A 
ATOM     15  C   UNL     1      53.150   1.967  18.229  0.00  0.00    +0.000 A 
ATOM     16  N   UNL     1      52.823   0.675  18.224  0.00  0.00    +0.000 NA
ATOM     17  N   UNL     1      51.557   0.672  17.772  0.00  0.00    +0.000 N 
ATOM     18  H   UNL     1      51.067  -0.215  17.680  0.00  0.00    +0.000 HD
ENDBRANCH  10  13
ENDBRANCH   8   9
ENDBRANCH   5   8
ENDBRANCH   1   2
BRANCH   1  19
ATOM     19  N   UNL     1      48.813   7.525  12.580  0.00  0.00    +0.000 N 
ATOM     20  C   UNL     1      49.208   8.832  12.696  0.00  0.00    +0.000 C 
ATOM     21  O   UNL     1      48.472   9.689  13.175  0.00  0.00    +0.000 OA
ATOM     22  H   UNL     1      49.345   6.896  11.988  0.00  0.00    +0.000 HD
BRANCH  20  23
ATOM     23  C   UNL     1      50.586   9.133  12.293  0.00  0.00    +0.000 A 
ATOM     24  C   UNL     1      50.829   9.796  11.098  0.00  0.00    +0.000 A 
ATOM     25  S   UNL     1      52.481  10.118  10.819  0.00  0.00    +0.000 S 
ATOM     26  C   UNL     1      52.934   9.331  12.258  0.00  0.00    +0.000 A 
ATOM     27  N   UNL     1      54.241   9.223  12.617  0.00  0.00    +0.000 NA
ATOM     28  C   UNL     1      54.443   8.559  13.706  0.00  0.00    +0.000 A 
ATOM     29  N   UNL     1      53.454   8.001  14.475  0.00  0.00    +0.000 N 
ATOM     30  C   UNL     1      52.118   8.139  14.185  0.00  0.00    +0.000 A 
ATOM     31  O   UNL     1      51.247   7.720  14.942  0.00  0.00    +0.000 OA
ATOM     32  C   UNL     1      51.839   8.848  12.951  0.00  0.00    +0.000 A 
ATOM     33  H   UNL     1      53.680   7.509  15.327  0.00  0.00    +0.000 HD
ENDBRANCH  20  23
ENDBRANCH   1  19
BRANCH   1  35
ATOM     34  N   UNL     1      46.186   6.233  10.769  0.00  0.00    +0.000 NA
ATOM     35  C   UNL     1      46.747   6.598  11.720  0.00  0.00    +0.000 C 
ENDBRANCH   1  35
TORSDOF 7
ENDMDL
