MODEL 1
REMARK VINA RESULT:    -7.569      0.000      0.000
REMARK INTER + INTRA:         -11.323
REMARK INTER:                 -10.224
REMARK INTRA:                  -1.098
REMARK UNBOUND:                -1.098
REMARK  Name = 
REMARK  7 active torsions:
REMARK  status: ('A' for Active; 'I' for Inactive)
REMARK    1  A    between atoms: C_1  and  N_2
REMARK    2  A    between atoms: N_2  and  C_3
REMARK    3  A    between atoms: C_3  and  C_4
REMARK    4  A    between atoms: C_7  and  C_8
REMARK    5  A    between atoms: C_8  and  N_9
REMARK    6  A    between atoms: C_10  and  C_12
REMARK    7  A    between atoms: C_24  and  C_26
REMARK                            x       y       z     vdW  Elec       q    Type
REMARK                         _______ _______ _______ _____ _____    ______ ____
ROOT
ATOM      1  C   UNL     1      46.414   4.537  13.426  0.00  0.00    +0.000 A 
ATOM      2  C   UNL     1      46.666   4.017  14.704  0.00  0.00    +0.000 A 
ATOM      3  C   UNL     1      47.527   4.676  15.583  0.00  0.00    +0.000 A 
ATOM      4  C   UNL     1      48.141   5.874  15.203  0.00  0.00    +0.000 A 
ATOM      5  C   UNL     1      47.934   6.365  13.907  0.00  0.00    +0.000 A 
ATOM      6  C   UNL     1      47.069   5.708  13.028  0.00  0.00    +0.000 A 
ENDROOT
BRANCH   1   7
ATOM      7  C   UNL     1      45.447   3.840  12.504  0.00  0.00    +0.000 C 
BRANCH   7   9
ATOM      8  C   UNL     1      43.210   4.832  13.196  0.00  0.00    +0.000 C 
ATOM      9  N   UNL     1      44.197   4.526  12.163  0.00  0.00    +0.000 N 
ATOM     10  C   UNL     1      43.795   4.803  10.836  0.00  0.00    +0.000 C 
ATOM     11  O   UNL     1      42.711   5.355  10.638  0.00  0.00    +0.000 OA
BRANCH  10  12
ATOM     12  C   UNL     1      44.664   4.460   9.716  0.00  0.00    +0.000 A 
ATOM     13  C   UNL     1      45.678   5.137   9.062  0.00  0.00    +0.000 A 
ATOM     14  N   UNL     1      46.293   4.471   8.018  0.00  0.00    +0.000 NA
ATOM     15  C   UNL     1      45.788   3.261   7.927  0.00  0.00    +0.000 A 
ATOM     16  S   UNL     1      44.558   2.870   9.047  0.00  0.00    +0.000 S 
ENDBRANCH  10  12
ENDBRANCH   7   9
ENDBRANCH   1   7
BRANCH   4  17
ATOM     17  C   UNL     1      49.028   6.622  16.162  0.00  0.00    +0.000 C 
BRANCH  17  18
ATOM     18  N   UNL     1      50.096   5.789  16.642  0.00  0.00    +0.000 N 
ATOM     19  C   UNL     1      50.181   5.443  17.969  0.00  0.00    +0.000 C 
ATOM     20  O   UNL     1      49.332   5.788  18.785  0.00  0.00    +0.000 OA
ATOM     21  H   UNL     1      50.917   5.699  16.050  0.00  0.00    +0.000 HD
BRANCH  19  22
ATOM     22  C   UNL     1      51.315   4.596  18.352  0.00  0.00    +0.000 A 
ATOM     23  C   UNL     1      52.332   5.128  19.134  0.00  0.00    +0.000 A 
ATOM     24  S   UNL     1      53.544   3.999  19.539  0.00  0.00    +0.000 S 
ATOM     25  C   UNL     1      52.778   2.771  18.642  0.00  0.00    +0.000 A 
ATOM     26  N   UNL     1      53.322   1.528  18.554  0.00  0.00    +0.000 NA
ATOM     27  C   UNL     1      52.653   0.705  17.817  0.00  0.00    +0.000 A 
ATOM     28  N   UNL     1      51.487   1.012  17.163  0.00  0.00    +0.000 N 
ATOM     29  C   UNL     1      50.885   2.244  17.249  0.00  0.00    +0.000 A 
ATOM     30  O   UNL     1      49.818   2.472  16.691  0.00  0.00    +0.000 OA
ATOM     31  C   UNL     1      51.605   3.214  18.055  0.00  0.00    +0.000 A 
ATOM     32  H   UNL     1      51.008   0.317  16.611  0.00  0.00    +0.000 HD
ENDBRANCH  19  22
ENDBRANCH  17  18
ENDBRANCH   4  17
TORSDOF 6
ENDMDL
MODEL 2
REMARK VINA RESULT:    -7.297      2.636      3.222
REMARK INTER + INTRA:         -10.955
REMARK INTER:                 -10.392
REMARK INTRA:                  -0.562
REMARK UNBOUND:                -1.098
REMARK  Name = 
REMARK  7 active torsions:
REMARK  status: ('A' for Active; 'I' for Inactive)
REMARK    1  A    between atoms: C_1  and  N_2
REMARK    2  A    between atoms: N_2  and  C_3
REMARK    3  A    between atoms: C_3  and  C_4
REMARK    4  A    between atoms: C_7  and  C_8
REMARK    5  A    between atoms: C_8  and  N_9
REMARK    6  A    between atoms: C_10  and  C_12
REMARK    7  A    between atoms: C_24  and  C_26
REMARK                            x       y       z     vdW  Elec       q    Type
REMARK                         _______ _______ _______ _____ _____    ______ ____
ROOT
ATOM      1  C   UNL     1      45.166   6.976  11.510  0.00  0.00    +0.000 A 
ATOM      2  C   UNL     1      46.371   6.314  11.795  0.00  0.00    +0.000 A 
ATOM      3  C   UNL     1      47.306   6.883  12.660  0.00  0.00    +0.000 A 
ATOM      4  C   UNL     1      47.048   8.117  13.266  0.00  0.00    +0.000 A 
ATOM      5  C   UNL     1      45.871   8.804  12.939  0.00  0.00    +0.000 A 
ATOM      6  C   UNL     1      44.932   8.234  12.076  0.00  0.00    +0.000 A 
ENDROOT
BRANCH   1   7
ATOM      7  C   UNL     1      44.145   6.330  10.609  0.00  0.00    +0.000 C 
BRANCH   7   9
ATOM      8  C   UNL     1      42.616   5.111  12.234  0.00  0.00    +0.000 C 
ATOM      9  N   UNL     1      43.496   5.099  11.068  0.00  0.00    +0.000 N 
ATOM     10  C   UNL     1      43.777   3.821  10.532  0.00  0.00    +0.000 C 
ATOM     11  O   UNL     1      43.209   2.833  11.001  0.00  0.00    +0.000 OA
BRANCH  10  12
ATOM     12  C   UNL     1      44.711   3.677   9.421  0.00  0.00    +0.000 A 
ATOM     13  C   UNL     1      45.453   4.583   8.685  0.00  0.00    +0.000 A 
ATOM     14  N   UNL     1      46.251   4.060   7.683  0.00  0.00    +0.000 NA
ATOM     15  C   UNL     1      46.163   2.749   7.708  0.00  0.00    +0.000 A 
ATOM     16  S   UNL     1      45.123   2.085   8.891  0.00  0.00    +0.000 S 
ENDBRANCH  10  12
ENDBRANCH   7   9
ENDBRANCH   1   7
BRANCH   4  17
ATOM     17  C   UNL     1      48.024   8.714  14.245  0.00  0.00    +0.000 C 
BRANCH  17  18
ATOM     18  N   UNL     1      48.245   7.836  15.362  0.00  0.00    +0.000 N 
ATOM     19  C   UNL     1      49.368   7.048  15.431  0.00  0.00    +0.000 C 
ATOM     20  O   UNL     1      50.244   7.091  14.574  0.00  0.00    +0.000 OA
ATOM     21  H   UNL     1      47.441   7.610  15.940  0.00  0.00    +0.000 HD
BRANCH  19  22
ATOM     22  C   UNL     1      49.488   6.184  16.610  0.00  0.00    +0.000 A 
ATOM     23  C   UNL     1      50.474   6.449  17.553  0.00  0.00    +0.000 A 
ATOM     24  S   UNL     1      50.442   5.390  18.888  0.00  0.00    +0.000 S 
ATOM     25  C   UNL     1      49.143   4.508  18.230  0.00  0.00    +0.000 A 
ATOM     26  N   UNL     1      48.632   3.428  18.879  0.00  0.00    +0.000 NA
ATOM     27  C   UNL     1      47.671   2.836  18.252  0.00  0.00    +0.000 A 
ATOM     28  N   UNL     1      47.173   3.228  17.036  0.00  0.00    +0.000 N 
ATOM     29  C   UNL     1      47.636   4.330  16.359  0.00  0.00    +0.000 A 
ATOM     30  O   UNL     1      47.137   4.683  15.297  0.00  0.00    +0.000 OA
ATOM     31  C   UNL     1      48.729   5.026  17.014  0.00  0.00    +0.000 A 
ATOM     32  H   UNL     1      46.411   2.726  16.605  0.00  0.00    +0.000 HD
ENDBRANCH  19  22
ENDBRANCH  17  18
ENDBRANCH   4  17
TORSDOF 6
ENDMDL
MODEL 3
REMARK VINA RESULT:    -7.294      2.788      9.743
REMARK INTER + INTRA:         -10.951
REMARK INTER:                  -9.992
REMARK INTRA:                  -0.958
REMARK UNBOUND:                -1.098
REMARK  Name = 
REMARK  7 active torsions:
REMARK  status: ('A' for Active; 'I' for Inactive)
REMARK    1  A    between atoms: C_1  and  N_2
REMARK    2  A    between atoms: N_2  and  C_3
REMARK    3  A    between atoms: C_3  and  C_4
REMARK    4  A    between atoms: C_7  and  C_8
REMARK    5  A    between atoms: C_8  and  N_9
REMARK    6  A    between atoms: C_10  and  C_12
REMARK    7  A    between atoms: C_24  and  C_26
REMARK                            x       y       z     vdW  Elec       q    Type
REMARK                         _______ _______ _______ _____ _____    ______ ____
ROOT
ATOM      1  C   UNL     1      51.373   3.680  17.729  0.00  0.00    +0.000 A 
ATOM      2  C   UNL     1      50.790   2.451  17.385  0.00  0.00    +0.000 A 
ATOM      3  C   UNL     1      49.420   2.360  17.135  0.00  0.00    +0.000 A 
ATOM      4  C   UNL     1      48.611   3.498  17.213  0.00  0.00    +0.000 A 
ATOM      5  C   UNL     1      49.183   4.714  17.612  0.00  0.00    +0.000 A 
ATOM      6  C   UNL     1      50.554   4.808  17.858  0.00  0.00    +0.000 A 
ENDROOT
BRANCH   1   7
ATOM      7  C   UNL     1      52.860   3.773  17.952  0.00  0.00    +0.000 C 
BRANCH   7   9
ATOM      8  C   UNL     1      53.281   4.020  20.447  0.00  0.00    +0.000 C 
ATOM      9  N   UNL     1      53.407   3.255  19.209  0.00  0.00    +0.000 N 
ATOM     10  C   UNL     1      54.200   2.087  19.295  0.00  0.00    +0.000 C 
ATOM     11  O   UNL     1      54.647   1.741  20.389  0.00  0.00    +0.000 OA
BRANCH  10  12
ATOM     12  C   UNL     1      54.466   1.289  18.103  0.00  0.00    +0.000 A 
ATOM     13  C   UNL     1      53.826   0.208  17.524  0.00  0.00    +0.000 A 
ATOM     14  N   UNL     1      54.385  -0.294  16.363  0.00  0.00    +0.000 NA
ATOM     15  C   UNL     1      55.412   0.454  16.026  0.00  0.00    +0.000 A 
ATOM     16  S   UNL     1      55.772   1.757  17.072  0.00  0.00    +0.000 S 
ENDBRANCH  10  12
ENDBRANCH   7   9
ENDBRANCH   1   7
BRANCH   4  17
ATOM     17  C   UNL     1      47.142   3.423  16.892  0.00  0.00    +0.000 C 
BRANCH  17  18
ATOM     18  N   UNL     1      46.779   4.384  15.886  0.00  0.00    +0.000 N 
ATOM     19  C   UNL     1      46.967   4.115  14.552  0.00  0.00    +0.000 C 
ATOM     20  O   UNL     1      47.405   3.038  14.162  0.00  0.00    +0.000 OA
ATOM     21  H   UNL     1      46.649   5.345  16.187  0.00  0.00    +0.000 HD
BRANCH  19  22
ATOM     22  C   UNL     1      46.570   5.168  13.611  0.00  0.00    +0.000 A 
ATOM     23  C   UNL     1      47.477   6.166  13.279  0.00  0.00    +0.000 A 
ATOM     24  S   UNL     1      46.881   7.277  12.132  0.00  0.00    +0.000 S 
ATOM     25  C   UNL     1      45.370   6.493  12.075  0.00  0.00    +0.000 A 
ATOM     26  N   UNL     1      44.369   6.963  11.284  0.00  0.00    +0.000 NA
ATOM     27  C   UNL     1      43.269   6.291  11.363  0.00  0.00    +0.000 A 
ATOM     28  N   UNL     1      43.081   5.190  12.158  0.00  0.00    +0.000 N 
ATOM     29  C   UNL     1      44.072   4.662  12.949  0.00  0.00    +0.000 A 
ATOM     30  O   UNL     1      43.887   3.648  13.612  0.00  0.00    +0.000 OA
ATOM     31  C   UNL     1      45.329   5.389  12.910  0.00  0.00    +0.000 A 
ATOM     32  H   UNL     1      42.197   4.703  12.164  0.00  0.00    +0.000 HD
ENDBRANCH  19  22
ENDBRANCH  17  18
ENDBRANCH   4  17
TORSDOF 6
ENDMDL
MODEL 4
REMARK VINA RESULT:    -6.965      2.435      8.684
REMARK INTER + INTRA:         -10.507
REMARK INTER:                  -9.576
REMARK INTRA:                  -0.931
REMARK UNBOUND:                -1.098
REMARK  Name = 
REMARK  7 active torsions:
REMARK  status: ('A' for Active; 'I' for Inactive)
REMARK    1  A    between atoms: C_1  and  N_2
REMARK    2  A    between atoms: N_2  and  C_3
REMARK    3  A    between atoms: C_3  and  C_4
REMARK    4  A    between atoms: C_7  and  C_8
REMARK    5  A    between atoms: C_8  and  N_9
REMARK    6  A    between atoms: C_10  and  C_12
REMARK    7  A    between atoms: C_24  and  C_26
REMARK                            x       y       z     vdW  Elec       q    Type
REMARK                         _______ _______ _______ _____ _____    ______ ____
ROOT
ATOM      1  C   UNL     1      50.142   6.944  15.748  0.00  0.00    +0.000 A 
ATOM      2  C   UNL     1      48.844   6.514  15.434  0.00  0.00    +0.000 A 
ATOM      3  C   UNL     1      48.241   6.892  14.234  0.00  0.00    +0.000 A 
ATOM      4  C   UNL     1      48.931   7.695  13.319  0.00  0.00    +0.000 A 
ATOM      5  C   UNL     1      50.207   8.170  13.657  0.00  0.00    +0.000 A 
ATOM      6  C   UNL     1      50.812   7.789  14.856  0.00  0.00    +0.000 A 
ENDROOT
BRANCH   1   7
ATOM      7  C   UNL     1      50.798   6.492  17.027  0.00  0.00    +0.000 C 
BRANCH   7   9
ATOM      8  C   UNL     1      49.835   7.499  19.153  0.00  0.00    +0.000 C 
ATOM      9  N   UNL     1      49.967   6.376  18.229  0.00  0.00    +0.000 N 
ATOM     10  C   UNL     1      49.370   5.166  18.652  0.00  0.00    +0.000 C 
ATOM     11  O   UNL     1      48.713   5.151  19.695  0.00  0.00    +0.000 OA
BRANCH  10  12
ATOM     12  C   UNL     1      49.511   3.956  17.852  0.00  0.00    +0.000 A 
ATOM     13  C   UNL     1      50.581   3.125  17.571  0.00  0.00    +0.000 A 
ATOM     14  N   UNL     1      50.324   2.040  16.752  0.00  0.00    +0.000 NA
ATOM     15  C   UNL     1      49.041   2.013  16.469  0.00  0.00    +0.000 A 
ATOM     16  S   UNL     1      48.095   3.272  17.133  0.00  0.00    +0.000 S 
ENDBRANCH  10  12
ENDBRANCH   7   9
ENDBRANCH   1   7
BRANCH   4  17
ATOM     17  C   UNL     1      48.313   8.062  11.997  0.00  0.00    +0.000 C 
BRANCH  17  18
ATOM     18  N   UNL     1      47.608   6.949  11.425  0.00  0.00    +0.000 N 
ATOM     19  C   UNL     1      46.235   6.922  11.395  0.00  0.00    +0.000 C 
ATOM     20  O   UNL     1      45.558   7.857  11.811  0.00  0.00    +0.000 OA
ATOM     21  H   UNL     1      48.126   6.084  11.302  0.00  0.00    +0.000 HD
BRANCH  19  22
ATOM     22  C   UNL     1      45.617   5.734  10.795  0.00  0.00    +0.000 A 
ATOM     23  C   UNL     1      45.760   5.504   9.433  0.00  0.00    +0.000 A 
ATOM     24  S   UNL     1      45.033   4.055   8.905  0.00  0.00    +0.000 S 
ATOM     25  C   UNL     1      44.459   3.708  10.470  0.00  0.00    +0.000 A 
ATOM     26  N   UNL     1      43.720   2.592  10.711  0.00  0.00    +0.000 NA
ATOM     27  C   UNL     1      43.324   2.470  11.934  0.00  0.00    +0.000 A 
ATOM     28  N   UNL     1      43.602   3.361  12.938  0.00  0.00    +0.000 N 
ATOM     29  C   UNL     1      44.370   4.485  12.749  0.00  0.00    +0.000 A 
ATOM     30  O   UNL     1      44.642   5.236  13.678  0.00  0.00    +0.000 OA
ATOM     31  C   UNL     1      44.830   4.679  11.385  0.00  0.00    +0.000 A 
ATOM     32  H   UNL     1      43.271   3.199  13.877  0.00  0.00    +0.000 HD
ENDBRANCH  19  22
ENDBRANCH  17  18
ENDBRANCH   4  17
TORSDOF 6
ENDMDL
MODEL 5
REMARK VINA RESULT:    -6.860      2.816      8.906
REMARK INTER + INTRA:         -10.364
REMARK INTER:                  -9.215
REMARK INTRA:                  -1.149
REMARK UNBOUND:                -1.098
REMARK  Name = 
REMARK  7 active torsions:
REMARK  status: ('A' for Active; 'I' for Inactive)
REMARK    1  A    between atoms: C_1  and  N_2
REMARK    2  A    between atoms: N_2  and  C_3
REMARK    3  A    between atoms: C_3  and  C_4
REMARK    4  A    between atoms: C_7  and  C_8
REMARK    5  A    between atoms: C_8  and  N_9
REMARK    6  A    between atoms: C_10  and  C_12
REMARK    7  A    between atoms: C_24  and  C_26
REMARK                            x       y       z     vdW  Elec       q    Type
REMARK                         _______ _______ _______ _____ _____    ______ ____
ROOT
ATOM      1  C   UNL     1      49.243   7.848  15.879  0.00  0.00    +0.000 A 
ATOM      2  C   UNL     1      48.268   8.813  15.584  0.00  0.00    +0.000 A 
ATOM      3  C   UNL     1      47.655   8.844  14.330  0.00  0.00    +0.000 A 
ATOM      4  C   UNL     1      47.997   7.902  13.354  0.00  0.00    +0.000 A 
ATOM      5  C   UNL     1      49.010   6.973  13.629  0.00  0.00    +0.000 A 
ATOM      6  C   UNL     1      49.621   6.939  14.884  0.00  0.00    +0.000 A 
ENDROOT
BRANCH   1   7
ATOM      7  C   UNL     1      49.864   7.797  17.251  0.00  0.00    +0.000 C 
BRANCH   7   9
ATOM      8  C   UNL     1      48.731   8.773  19.307  0.00  0.00    +0.000 C 
ATOM      9  N   UNL     1      48.976   7.648  18.408  0.00  0.00    +0.000 N 
ATOM     10  C   UNL     1      48.425   6.412  18.817  0.00  0.00    +0.000 C 
ATOM     11  O   UNL     1      47.715   6.372  19.823  0.00  0.00    +0.000 OA
BRANCH  10  12
ATOM     12  C   UNL     1      48.676   5.202  18.043  0.00  0.00    +0.000 A 
ATOM     13  C   UNL     1      49.792   4.402  17.871  0.00  0.00    +0.000 A 
ATOM     14  N   UNL     1      49.646   3.306  17.040  0.00  0.00    +0.000 NA
ATOM     15  C   UNL     1      48.397   3.238  16.638  0.00  0.00    +0.000 A 
ATOM     16  S   UNL     1      47.356   4.472  17.200  0.00  0.00    +0.000 S 
ENDBRANCH  10  12
ENDBRANCH   7   9
ENDBRANCH   1   7
BRANCH   4  17
ATOM     17  C   UNL     1      47.304   7.891  12.018  0.00  0.00    +0.000 C 
BRANCH  17  18
ATOM     18  N   UNL     1      46.693   6.616  11.759  0.00  0.00    +0.000 N 
ATOM     19  C   UNL     1      45.329   6.491  11.666  0.00  0.00    +0.000 C 
ATOM     20  O   UNL     1      44.581   7.459  11.753  0.00  0.00    +0.000 OA
ATOM     21  H   UNL     1      47.260   5.788  11.923  0.00  0.00    +0.000 HD
BRANCH  19  22
ATOM     22  C   UNL     1      44.812   5.143  11.407  0.00  0.00    +0.000 A 
ATOM     23  C   UNL     1      44.093   4.484  12.397  0.00  0.00    +0.000 A 
ATOM     24  S   UNL     1      43.515   2.955  11.917  0.00  0.00    +0.000 S 
ATOM     25  C   UNL     1      44.246   3.096  10.386  0.00  0.00    +0.000 A 
ATOM     26  N   UNL     1      44.151   2.093   9.472  0.00  0.00    +0.000 NA
ATOM     27  C   UNL     1      44.779   2.320   8.366  0.00  0.00    +0.000 A 
ATOM     28  N   UNL     1      45.490   3.460   8.091  0.00  0.00    +0.000 N 
ATOM     29  C   UNL     1      45.586   4.511   8.971  0.00  0.00    +0.000 A 
ATOM     30  O   UNL     1      46.188   5.537   8.676  0.00  0.00    +0.000 OA
ATOM     31  C   UNL     1      44.910   4.302  10.239  0.00  0.00    +0.000 A 
ATOM     32  H   UNL     1      45.948   3.579   7.201  0.00  0.00    +0.000 HD
ENDBRANCH  19  22
ENDBRANCH  17  18
ENDBRANCH   4  17
TORSDOF 6
ENDMDL
MODEL 6
REMARK VINA RESULT:    -6.699      1.995      3.030
REMARK INTER + INTRA:         -10.147
REMARK INTER:                  -9.201
REMARK INTRA:                  -0.946
REMARK UNBOUND:                -1.098
REMARK  Name = 
REMARK  7 active torsions:
REMARK  status: ('A' for Active; 'I' for Inactive)
REMARK    1  A    between atoms: C_1  and  N_2
REMARK    2  A    between atoms: N_2  and  C_3
REMARK    3  A    between atoms: C_3  and  C_4
REMARK    4  A    between atoms: C_7  and  C_8
REMARK    5  A    between atoms: C_8  and  N_9
REMARK    6  A    between atoms: C_10  and  C_12
REMARK    7  A    between atoms: C_24  and  C_26
REMARK                            x       y       z     vdW  Elec       q    Type
REMARK                         _______ _______ _______ _____ _____    ______ ____
ROOT
ATOM      1  C   UNL     1      47.404   5.705  13.703  0.00  0.00    +0.000 A 
ATOM      2  C   UNL     1      48.109   6.227  14.797  0.00  0.00    +0.000 A 
ATOM      3  C   UNL     1      48.213   5.504  15.986  0.00  0.00    +0.000 A 
ATOM      4  C   UNL     1      47.624   4.240  16.097  0.00  0.00    +0.000 A 
ATOM      5  C   UNL     1      46.872   3.743  15.024  0.00  0.00    +0.000 A 
ATOM      6  C   UNL     1      46.771   4.463  13.832  0.00  0.00    +0.000 A 
ENDROOT
BRANCH   1   7
ATOM      7  C   UNL     1      47.338   6.476  12.409  0.00  0.00    +0.000 C 
BRANCH   7   9
ATOM      8  C   UNL     1      46.195   8.691  12.909  0.00  0.00    +0.000 C 
ATOM      9  N   UNL     1      46.223   7.407  12.214  0.00  0.00    +0.000 N 
ATOM     10  C   UNL     1      45.056   7.086  11.481  0.00  0.00    +0.000 C 
ATOM     11  O   UNL     1      44.152   7.918  11.395  0.00  0.00    +0.000 OA
BRANCH  10  12
ATOM     12  C   UNL     1      44.936   5.794  10.817  0.00  0.00    +0.000 A 
ATOM     13  C   UNL     1      45.572   5.225   9.728  0.00  0.00    +0.000 A 
ATOM     14  N   UNL     1      45.185   3.943   9.384  0.00  0.00    +0.000 NA
ATOM     15  C   UNL     1      44.302   3.515  10.258  0.00  0.00    +0.000 A 
ATOM     16  S   UNL     1      43.877   4.610  11.500  0.00  0.00    +0.000 S 
ENDBRANCH  10  12
ENDBRANCH   7   9
ENDBRANCH   1   7
BRANCH   4  17
ATOM     17  C   UNL     1      47.776   3.427  17.355  0.00  0.00    +0.000 C 
BRANCH  17  18
ATOM     18  N   UNL     1      49.161   3.239  17.689  0.00  0.00    +0.000 N 
ATOM     19  C   UNL     1      49.937   2.337  17.003  0.00  0.00    +0.000 C 
ATOM     20  O   UNL     1      49.499   1.692  16.056  0.00  0.00    +0.000 OA
ATOM     21  H   UNL     1      49.469   3.572  18.598  0.00  0.00    +0.000 HD
BRANCH  19  22
ATOM     22  C   UNL     1      51.335   2.219  17.431  0.00  0.00    +0.000 A 
ATOM     23  C   UNL     1      51.882   0.959  17.639  0.00  0.00    +0.000 A 
ATOM     24  S   UNL     1      53.529   0.993  18.076  0.00  0.00    +0.000 S 
ATOM     25  C   UNL     1      53.558   2.695  18.052  0.00  0.00    +0.000 A 
ATOM     26  N   UNL     1      54.691   3.380  18.363  0.00  0.00    +0.000 NA
ATOM     27  C   UNL     1      54.562   4.664  18.335  0.00  0.00    +0.000 A 
ATOM     28  N   UNL     1      53.403   5.327  18.021  0.00  0.00    +0.000 N 
ATOM     29  C   UNL     1      52.244   4.678  17.670  0.00  0.00    +0.000 A 
ATOM     30  O   UNL     1      51.238   5.300  17.348  0.00  0.00    +0.000 OA
ATOM     31  C   UNL     1      52.329   3.229  17.700  0.00  0.00    +0.000 A 
ATOM     32  H   UNL     1      53.373   6.335  18.007  0.00  0.00    +0.000 HD
ENDBRANCH  19  22
ENDBRANCH  17  18
ENDBRANCH   4  17
TORSDOF 6
ENDMDL
MODEL 7
REMARK VINA RESULT:    -6.549      5.972      9.065
REMARK INTER + INTRA:          -9.944
REMARK INTER:                  -8.996
REMARK INTRA:                  -0.948
REMARK UNBOUND:                -1.098
REMARK  Name = 
REMARK  7 active torsions:
REMARK  status: ('A' for Active; 'I' for Inactive)
REMARK    1  A    between atoms: C_1  and  N_2
REMARK    2  A    between atoms: N_2  and  C_3
REMARK    3  A    between atoms: C_3  and  C_4
REMARK    4  A    between atoms: C_7  and  C_8
REMARK    5  A    between atoms: C_8  and  N_9
REMARK    6  A    between atoms: C_10  and  C_12
REMARK    7  A    between atoms: C_24  and  C_26
REMARK                            x       y       z     vdW  Elec       q    Type
REMARK                         _______ _______ _______ _____ _____    ______ ____
ROOT
ATOM      1  C   UNL     1      50.295   8.951  11.370  0.00  0.00    +0.000 A 
ATOM      2  C   UNL     1      49.483  10.018  11.782  0.00  0.00    +0.000 A 
ATOM      3  C   UNL     1      48.241   9.780  12.370  0.00  0.00    +0.000 A 
ATOM      4  C   UNL     1      47.793   8.470  12.568  0.00  0.00    +0.000 A 
ATOM      5  C   UNL     1      48.578   7.405  12.106  0.00  0.00    +0.000 A 
ATOM      6  C   UNL     1      49.824   7.641  11.521  0.00  0.00    +0.000 A 
ENDROOT
BRANCH   1   7
ATOM      7  C   UNL     1      51.655   9.220  10.778  0.00  0.00    +0.000 C 
BRANCH   7   9
ATOM      8  C   UNL     1      53.243   8.529  12.639  0.00  0.00    +0.000 C 
ATOM      9  N   UNL     1      52.789   8.424  11.255  0.00  0.00    +0.000 N 
ATOM     10  C   UNL     1      53.598   7.630  10.409  0.00  0.00    +0.000 C 
ATOM     11  O   UNL     1      54.553   7.018  10.889  0.00  0.00    +0.000 OA
BRANCH  10  12
ATOM     12  C   UNL     1      53.291   7.521   8.987  0.00  0.00    +0.000 A 
ATOM     13  C   UNL     1      52.423   6.722   8.264  0.00  0.00    +0.000 A 
ATOM     14  N   UNL     1      52.404   6.911   6.894  0.00  0.00    +0.000 NA
ATOM     15  C   UNL     1      53.209   7.903   6.588  0.00  0.00    +0.000 A 
ATOM     16  S   UNL     1      54.036   8.634   7.894  0.00  0.00    +0.000 S 
ENDBRANCH  10  12
ENDBRANCH   7   9
ENDBRANCH   1   7
BRANCH   4  17
ATOM     17  C   UNL     1      46.479   8.200  13.251  0.00  0.00    +0.000 C 
BRANCH  17  18
ATOM     18  N   UNL     1      45.992   6.884  12.941  0.00  0.00    +0.000 N 
ATOM     19  C   UNL     1      45.111   6.682  11.905  0.00  0.00    +0.000 C 
ATOM     20  O   UNL     1      44.742   7.599  11.180  0.00  0.00    +0.000 OA
ATOM     21  H   UNL     1      46.089   6.171  13.658  0.00  0.00    +0.000 HD
BRANCH  19  22
ATOM     22  C   UNL     1      44.672   5.301  11.681  0.00  0.00    +0.000 A 
ATOM     23  C   UNL     1      43.995   4.626  12.689  0.00  0.00    +0.000 A 
ATOM     24  S   UNL     1      43.504   3.055  12.249  0.00  0.00    +0.000 S 
ATOM     25  C   UNL     1      44.223   3.200  10.712  0.00  0.00    +0.000 A 
ATOM     26  N   UNL     1      44.184   2.172   9.823  0.00  0.00    +0.000 NA
ATOM     27  C   UNL     1      44.796   2.407   8.710  0.00  0.00    +0.000 A 
ATOM     28  N   UNL     1      45.440   3.579   8.405  0.00  0.00    +0.000 N 
ATOM     29  C   UNL     1      45.477   4.655   9.259  0.00  0.00    +0.000 A 
ATOM     30  O   UNL     1      46.019   5.706   8.937  0.00  0.00    +0.000 OA
ATOM     31  C   UNL     1      44.816   4.438  10.534  0.00  0.00    +0.000 A 
ATOM     32  H   UNL     1      45.889   3.702   7.511  0.00  0.00    +0.000 HD
ENDBRANCH  19  22
ENDBRANCH  17  18
ENDBRANCH   4  17
TORSDOF 6
ENDMDL
MODEL 8
REMARK VINA RESULT:    -6.518      2.958      9.193
REMARK INTER + INTRA:          -9.902
REMARK INTER:                  -8.743
REMARK INTRA:                  -1.159
REMARK UNBOUND:                -1.098
REMARK  Name = 
REMARK  7 active torsions:
REMARK  status: ('A' for Active; 'I' for Inactive)
REMARK    1  A    between atoms: C_1  and  N_2
REMARK    2  A    between atoms: N_2  and  C_3
REMARK    3  A    between atoms: C_3  and  C_4
REMARK    4  A    between atoms: C_7  and  C_8
REMARK    5  A    between atoms: C_8  and  N_9
REMARK    6  A    between atoms: C_10  and  C_12
REMARK    7  A    between atoms: C_24  and  C_26
REMARK                            x       y       z     vdW  Elec       q    Type
REMARK                         _______ _______ _______ _____ _____    ______ ____
ROOT
ATOM      1  C   UNL     1      51.113   4.039  18.465  0.00  0.00    +0.000 A 
ATOM      2  C   UNL     1      50.848   3.015  17.543  0.00  0.00    +0.000 A 
ATOM      3  C   UNL     1      49.548   2.786  17.090  0.00  0.00    +0.000 A 
ATOM      4  C   UNL     1      48.492   3.586  17.542  0.00  0.00    +0.000 A 
ATOM      5  C   UNL     1      48.748   4.572  18.504  0.00  0.00    +0.000 A 
ATOM      6  C   UNL     1      50.049   4.804  18.955  0.00  0.00    +0.000 A 
ENDROOT
BRANCH   1   7
ATOM      7  C   UNL     1      52.528   4.305  18.911  0.00  0.00    +0.000 C 
BRANCH   7   9
ATOM      8  C   UNL     1      54.540   3.291  17.732  0.00  0.00    +0.000 C 
ATOM      9  N   UNL     1      53.575   4.377  17.888  0.00  0.00    +0.000 N 
ATOM     10  C   UNL     1      53.820   5.525  17.100  0.00  0.00    +0.000 C 
ATOM     11  O   UNL     1      54.744   5.511  16.285  0.00  0.00    +0.000 OA
BRANCH  10  12
ATOM     12  C   UNL     1      52.973   6.705  17.234  0.00  0.00    +0.000 A 
ATOM     13  C   UNL     1      53.012   7.809  18.067  0.00  0.00    +0.000 A 
ATOM     14  N   UNL     1      52.013   8.750  17.894  0.00  0.00    +0.000 NA
ATOM     15  C   UNL     1      51.257   8.389  16.882  0.00  0.00    +0.000 A 
ATOM     16  S   UNL     1      51.676   6.922  16.113  0.00  0.00    +0.000 S 
ENDBRANCH  10  12
ENDBRANCH   7   9
ENDBRANCH   1   7
BRANCH   4  17
ATOM     17  C   UNL     1      47.095   3.384  17.018  0.00  0.00    +0.000 C 
BRANCH  17  18
ATOM     18  N   UNL     1      46.767   4.365  16.020  0.00  0.00    +0.000 N 
ATOM     19  C   UNL     1      46.945   4.100  14.684  0.00  0.00    +0.000 C 
ATOM     20  O   UNL     1      47.345   3.011  14.286  0.00  0.00    +0.000 OA
ATOM     21  H   UNL     1      46.670   5.328  16.328  0.00  0.00    +0.000 HD
BRANCH  19  22
ATOM     22  C   UNL     1      46.586   5.173  13.751  0.00  0.00    +0.000 A 
ATOM     23  C   UNL     1      47.506   6.177  13.476  0.00  0.00    +0.000 A 
ATOM     24  S   UNL     1      46.956   7.313  12.331  0.00  0.00    +0.000 S 
ATOM     25  C   UNL     1      45.448   6.533  12.198  0.00  0.00    +0.000 A 
ATOM     26  N   UNL     1      44.479   7.021  11.379  0.00  0.00    +0.000 NA
ATOM     27  C   UNL     1      43.376   6.349  11.400  0.00  0.00    +0.000 A 
ATOM     28  N   UNL     1      43.156   5.232  12.164  0.00  0.00    +0.000 N 
ATOM     29  C   UNL     1      44.116   4.685  12.981  0.00  0.00    +0.000 A 
ATOM     30  O   UNL     1      43.904   3.657  13.614  0.00  0.00    +0.000 OA
ATOM     31  C   UNL     1      45.373   5.411  13.007  0.00  0.00    +0.000 A 
ATOM     32  H   UNL     1      42.273   4.746  12.124  0.00  0.00    +0.000 HD
ENDBRANCH  19  22
ENDBRANCH  17  18
ENDBRANCH   4  17
TORSDOF 6
ENDMDL
MODEL 9
REMARK VINA RESULT:    -6.223      1.790      2.516
REMARK INTER + INTRA:          -9.505
REMARK INTER:                  -8.801
REMARK INTRA:                  -0.703
REMARK UNBOUND:                -1.098
REMARK  Name = 
REMARK  7 active torsions:
REMARK  status: ('A' for Active; 'I' for Inactive)
REMARK    1  A    between atoms: C_1  and  N_2
REMARK    2  A    between atoms: N_2  and  C_3
REMARK    3  A    between atoms: C_3  and  C_4
REMARK    4  A    between atoms: C_7  and  C_8
REMARK    5  A    between atoms: C_8  and  N_9
REMARK    6  A    between atoms: C_10  and  C_12
REMARK    7  A    between atoms: C_24  and  C_26
REMARK                            x       y       z     vdW  Elec       q    Type
REMARK                         _______ _______ _______ _____ _____    ______ ____
ROOT
ATOM      1  C   UNL     1      47.346   5.762  13.708  0.00  0.00    +0.000 A 
ATOM      2  C   UNL     1      48.230   6.430  14.569  0.00  0.00    +0.000 A 
ATOM      3  C   UNL     1      48.486   5.934  15.848  0.00  0.00    +0.000 A 
ATOM      4  C   UNL     1      47.873   4.755  16.284  0.00  0.00    +0.000 A 
ATOM      5  C   UNL     1      46.947   4.118  15.445  0.00  0.00    +0.000 A 
ATOM      6  C   UNL     1      46.693   4.611  14.164  0.00  0.00    +0.000 A 
ENDROOT
BRANCH   1   7
ATOM      7  C   UNL     1      47.113   6.282  12.313  0.00  0.00    +0.000 C 
BRANCH   7   9
ATOM      8  C   UNL     1      45.822   8.456  12.579  0.00  0.00    +0.000 C 
ATOM      9  N   UNL     1      45.916   7.092  12.066  0.00  0.00    +0.000 N 
ATOM     10  C   UNL     1      44.741   6.587  11.463  0.00  0.00    +0.000 C 
ATOM     11  O   UNL     1      43.768   7.329  11.324  0.00  0.00    +0.000 OA
BRANCH  10  12
ATOM     12  C   UNL     1      44.690   5.208  10.991  0.00  0.00    +0.000 A 
ATOM     13  C   UNL     1      44.171   4.042  11.525  0.00  0.00    +0.000 A 
ATOM     14  N   UNL     1      44.313   2.896  10.764  0.00  0.00    +0.000 NA
ATOM     15  C   UNL     1      44.881   3.209   9.621  0.00  0.00    +0.000 A 
ATOM     16  S   UNL     1      45.290   4.855   9.409  0.00  0.00    +0.000 S 
ENDBRANCH  10  12
ENDBRANCH   7   9
ENDBRANCH   1   7
BRANCH   4  17
ATOM     17  C   UNL     1      48.184   4.181  17.640  0.00  0.00    +0.000 C 
BRANCH  17  18
ATOM     18  N   UNL     1      49.597   4.194  17.899  0.00  0.00    +0.000 N 
ATOM     19  C   UNL     1      50.420   3.222  17.383  0.00  0.00    +0.000 C 
ATOM     20  O   UNL     1      49.995   2.336  16.649  0.00  0.00    +0.000 OA
ATOM     21  H   UNL     1      49.921   4.759  18.679  0.00  0.00    +0.000 HD
BRANCH  19  22
ATOM     22  C   UNL     1      51.844   3.327  17.716  0.00  0.00    +0.000 A 
ATOM     23  C   UNL     1      52.456   4.574  17.719  0.00  0.00    +0.000 A 
ATOM     24  S   UNL     1      54.095   4.530  18.183  0.00  0.00    +0.000 S 
ATOM     25  C   UNL     1      54.061   2.836  18.348  0.00  0.00    +0.000 A 
ATOM     26  N   UNL     1      55.176   2.146  18.709  0.00  0.00    +0.000 NA
ATOM     27  C   UNL     1      55.015   0.866  18.765  0.00  0.00    +0.000 A 
ATOM     28  N   UNL     1      53.839   0.214  18.497  0.00  0.00    +0.000 N 
ATOM     29  C   UNL     1      52.680   0.870  18.160  0.00  0.00    +0.000 A 
ATOM     30  O   UNL     1      51.633   0.262  17.975  0.00  0.00    +0.000 OA
ATOM     31  C   UNL     1      52.809   2.314  18.068  0.00  0.00    +0.000 A 
ATOM     32  H   UNL     1      53.779  -0.791  18.571  0.00  0.00    +0.000 HD
ENDBRANCH  19  22
ENDBRANCH  17  18
ENDBRANCH   4  17
TORSDOF 6
ENDMDL
