MODEL 1
REMARK VINA RESULT:    -9.107      0.000      0.000
REMARK INTER + INTRA:         -12.381
REMARK INTER:                 -11.769
REMARK INTRA:                  -0.611
REMARK UNBOUND:                -0.611
REMARK  Name = 
REMARK  5 active torsions:
REMARK  status: ('A' for Active; 'I' for Inactive)
REMARK    1  A    between atoms: C_2  and  C_18
REMARK    2  A    between atoms: N_3  and  C_4
REMARK    3  A    between atoms: C_4  and  C_5
REMARK    4  A    between atoms: C_8  and  C_9
REMARK    5  A    between atoms: C_9  and  C_10
REMARK                            x       y       z     vdW  Elec       q    Type
REMARK                         _______ _______ _______ _____ _____    ______ ____
ROOT
ATOM      1  O   UNL     1      47.003   3.259  14.009  0.00  0.00    +0.000 OA
ATOM      2  C   UNL     1      46.780   4.438  14.251  0.00  0.00    +0.000 C 
ATOM      3  N   UNL     1      45.617   5.097  13.931  0.00  0.00    +0.000 N 
ATOM      4  H   UNL     1      45.459   6.007  14.336  0.00  0.00    +0.000 HD
ENDROOT
BRANCH   2   5
ATOM      5  C   UNL     1      47.631   5.265  15.097  0.00  0.00    +0.000 A 
ATOM      6  C   UNL     1      48.239   6.421  14.643  0.00  0.00    +0.000 A 
ATOM      7  S   UNL     1      49.563   6.874  15.637  0.00  0.00    +0.000 S 
ATOM      8  C   UNL     1      49.250   5.606  16.734  0.00  0.00    +0.000 A 
ATOM      9  N   UNL     1      50.088   5.304  17.762  0.00  0.00    +0.000 NA
ATOM     10  C   UNL     1      49.675   4.334  18.513  0.00  0.00    +0.000 A 
ATOM     11  N   UNL     1      48.479   3.674  18.364  0.00  0.00    +0.000 N 
ATOM     12  C   UNL     1      47.587   3.964  17.359  0.00  0.00    +0.000 A 
ATOM     13  O   UNL     1      46.485   3.433  17.293  0.00  0.00    +0.000 OA
ATOM     14  C   UNL     1      48.079   4.950  16.421  0.00  0.00    +0.000 A 
ATOM     15  H   UNL     1      48.182   2.981  19.035  0.00  0.00    +0.000 HD
ENDBRANCH   2   5
BRANCH   3  16
ATOM     16  C   UNL     1      44.447   4.425  13.443  0.00  0.00    +0.000 C 
BRANCH  16  17
ATOM     17  C   UNL     1      44.568   4.230  11.953  0.00  0.00    +0.000 A 
ATOM     18  C   UNL     1      44.040   3.085  11.350  0.00  0.00    +0.000 A 
ATOM     19  C   UNL     1      44.176   2.884   9.977  0.00  0.00    +0.000 A 
ATOM     20  C   UNL     1      44.815   3.834   9.169  0.00  0.00    +0.000 A 
ATOM     21  C   UNL     1      45.381   4.959   9.777  0.00  0.00    +0.000 A 
ATOM     22  C   UNL     1      45.273   5.150  11.159  0.00  0.00    +0.000 A 
BRANCH  20  23
ATOM     23  C   UNL     1      44.873   3.652   7.667  0.00  0.00    +0.000 C 
BRANCH  23  24
ATOM     24  C   UNL     1      46.087   2.900   7.159  0.00  0.00    +0.000 A 
ATOM     25  C   UNL     1      46.772   3.323   6.031  0.00  0.00    +0.000 A 
ATOM     26  C   UNL     1      47.817   2.532   5.611  0.00  0.00    +0.000 A 
ATOM     27  N   UNL     1      48.187   1.399   6.231  0.00  0.00    +0.000 NA
ATOM     28  C   UNL     1      47.465   1.074   7.312  0.00  0.00    +0.000 A 
ATOM     29  N   UNL     1      46.426   1.765   7.811  0.00  0.00    +0.000 NA
ENDBRANCH  23  24
ENDBRANCH  20  23
ENDBRANCH  16  17
ENDBRANCH   3  16
TORSDOF 5
ENDMDL
MODEL 2
REMARK VINA RESULT:    -8.309      1.884      2.921
REMARK INTER + INTRA:         -11.349
REMARK INTER:                 -10.415
REMARK INTRA:                  -0.933
REMARK UNBOUND:                -0.611
REMARK  Name = 
REMARK  5 active torsions:
REMARK  status: ('A' for Active; 'I' for Inactive)
REMARK    1  A    between atoms: C_2  and  C_18
REMARK    2  A    between atoms: N_3  and  C_4
REMARK    3  A    between atoms: C_4  and  C_5
REMARK    4  A    between atoms: C_8  and  C_9
REMARK    5  A    between atoms: C_9  and  C_10
REMARK                            x       y       z     vdW  Elec       q    Type
REMARK                         _______ _______ _______ _____ _____    ______ ____
ROOT
ATOM      1  O   UNL     1      46.936   3.852  14.136  0.00  0.00    +0.000 OA
ATOM      2  C   UNL     1      46.980   5.074  14.127  0.00  0.00    +0.000 C 
ATOM      3  N   UNL     1      45.981   5.892  13.655  0.00  0.00    +0.000 N 
ATOM      4  H   UNL     1      46.035   6.877  13.862  0.00  0.00    +0.000 HD
ENDROOT
BRANCH   2   5
ATOM      5  C   UNL     1      48.012   5.851  14.802  0.00  0.00    +0.000 A 
ATOM      6  C   UNL     1      48.405   5.601  16.104  0.00  0.00    +0.000 A 
ATOM      7  S   UNL     1      49.204   6.953  16.797  0.00  0.00    +0.000 S 
ATOM      8  C   UNL     1      49.136   7.820  15.330  0.00  0.00    +0.000 A 
ATOM      9  N   UNL     1      49.511   9.124  15.232  0.00  0.00    +0.000 NA
ATOM     10  C   UNL     1      49.425   9.610  14.036  0.00  0.00    +0.000 A 
ATOM     11  N   UNL     1      49.052   8.901  12.920  0.00  0.00    +0.000 N 
ATOM     12  C   UNL     1      48.694   7.575  12.964  0.00  0.00    +0.000 A 
ATOM     13  O   UNL     1      48.453   6.931  11.950  0.00  0.00    +0.000 OA
ATOM     14  C   UNL     1      48.647   7.036  14.307  0.00  0.00    +0.000 A 
ATOM     15  H   UNL     1      49.085   9.322  12.003  0.00  0.00    +0.000 HD
ENDBRANCH   2   5
BRANCH   3  16
ATOM     16  C   UNL     1      44.681   5.406  13.293  0.00  0.00    +0.000 C 
BRANCH  16  17
ATOM     17  C   UNL     1      44.706   4.932  11.862  0.00  0.00    +0.000 A 
ATOM     18  C   UNL     1      44.047   3.753  11.500  0.00  0.00    +0.000 A 
ATOM     19  C   UNL     1      44.092   3.293  10.185  0.00  0.00    +0.000 A 
ATOM     20  C   UNL     1      44.771   4.013   9.193  0.00  0.00    +0.000 A 
ATOM     21  C   UNL     1      45.467   5.170   9.561  0.00  0.00    +0.000 A 
ATOM     22  C   UNL     1      45.449   5.618  10.886  0.00  0.00    +0.000 A 
BRANCH  20  23
ATOM     23  C   UNL     1      44.735   3.557   7.750  0.00  0.00    +0.000 C 
BRANCH  23  24
ATOM     24  C   UNL     1      45.969   2.813   7.281  0.00  0.00    +0.000 A 
ATOM     25  C   UNL     1      46.730   3.282   6.223  0.00  0.00    +0.000 A 
ATOM     26  C   UNL     1      47.790   2.497   5.828  0.00  0.00    +0.000 A 
ATOM     27  N   UNL     1      48.105   1.328   6.411  0.00  0.00    +0.000 NA
ATOM     28  C   UNL     1      47.313   0.961   7.427  0.00  0.00    +0.000 A 
ATOM     29  N   UNL     1      46.253   1.642   7.894  0.00  0.00    +0.000 NA
ENDBRANCH  23  24
ENDBRANCH  20  23
ENDBRANCH  16  17
ENDBRANCH   3  16
TORSDOF 5
ENDMDL
MODEL 3
REMARK VINA RESULT:    -8.110      1.897      2.471
REMARK INTER + INTRA:         -11.093
REMARK INTER:                 -10.650
REMARK INTRA:                  -0.442
REMARK UNBOUND:                -0.611
REMARK  Name = 
REMARK  5 active torsions:
REMARK  status: ('A' for Active; 'I' for Inactive)
REMARK    1  A    between atoms: C_2  and  C_18
REMARK    2  A    between atoms: N_3  and  C_4
REMARK    3  A    between atoms: C_4  and  C_5
REMARK    4  A    between atoms: C_8  and  C_9
REMARK    5  A    between atoms: C_9  and  C_10
REMARK                            x       y       z     vdW  Elec       q    Type
REMARK                         _______ _______ _______ _____ _____    ______ ____
ROOT
ATOM      1  O   UNL     1      48.867   6.345  13.348  0.00  0.00    +0.000 OA
ATOM      2  C   UNL     1      47.939   6.183  14.128  0.00  0.00    +0.000 C 
ATOM      3  N   UNL     1      46.654   6.627  13.922  0.00  0.00    +0.000 N 
ATOM      4  H   UNL     1      45.928   6.283  14.532  0.00  0.00    +0.000 HD
ENDROOT
BRANCH   2   5
ATOM      5  C   UNL     1      48.009   5.318  15.298  0.00  0.00    +0.000 A 
ATOM      6  C   UNL     1      47.246   4.171  15.428  0.00  0.00    +0.000 A 
ATOM      7  S   UNL     1      47.127   3.669  17.065  0.00  0.00    +0.000 S 
ATOM      8  C   UNL     1      48.187   4.901  17.582  0.00  0.00    +0.000 A 
ATOM      9  N   UNL     1      48.427   5.158  18.896  0.00  0.00    +0.000 NA
ATOM     10  C   UNL     1      49.285   6.105  19.102  0.00  0.00    +0.000 A 
ATOM     11  N   UNL     1      49.964   6.783  18.119  0.00  0.00    +0.000 N 
ATOM     12  C   UNL     1      49.778   6.537  16.779  0.00  0.00    +0.000 A 
ATOM     13  O   UNL     1      50.457   7.083  15.918  0.00  0.00    +0.000 OA
ATOM     14  C   UNL     1      48.727   5.580  16.510  0.00  0.00    +0.000 A 
ATOM     15  H   UNL     1      50.680   7.455  18.353  0.00  0.00    +0.000 HD
ENDBRANCH   2   5
BRANCH   3  16
ATOM     16  C   UNL     1      46.206   7.168  12.671  0.00  0.00    +0.000 C 
BRANCH  16  17
ATOM     17  C   UNL     1      45.785   6.042  11.762  0.00  0.00    +0.000 A 
ATOM     18  C   UNL     1      45.976   6.145  10.381  0.00  0.00    +0.000 A 
ATOM     19  C   UNL     1      45.561   5.120   9.532  0.00  0.00    +0.000 A 
ATOM     20  C   UNL     1      44.973   3.955  10.043  0.00  0.00    +0.000 A 
ATOM     21  C   UNL     1      44.742   3.868  11.420  0.00  0.00    +0.000 A 
ATOM     22  C   UNL     1      45.130   4.908  12.272  0.00  0.00    +0.000 A 
BRANCH  20  23
ATOM     23  C   UNL     1      44.613   2.808   9.122  0.00  0.00    +0.000 C 
BRANCH  23  24
ATOM     24  C   UNL     1      45.743   2.311   8.244  0.00  0.00    +0.000 A 
ATOM     25  C   UNL     1      46.339   3.137   7.305  0.00  0.00    +0.000 A 
ATOM     26  C   UNL     1      47.308   2.569   6.509  0.00  0.00    +0.000 A 
ATOM     27  N   UNL     1      47.687   1.283   6.603  0.00  0.00    +0.000 NA
ATOM     28  C   UNL     1      47.055   0.566   7.542  0.00  0.00    +0.000 A 
ATOM     29  N   UNL     1      46.095   1.011   8.371  0.00  0.00    +0.000 NA
ENDBRANCH  23  24
ENDBRANCH  20  23
ENDBRANCH  16  17
ENDBRANCH   3  16
TORSDOF 5
ENDMDL
MODEL 4
REMARK VINA RESULT:    -8.076      1.382      1.720
REMARK INTER + INTRA:         -11.049
REMARK INTER:                 -10.453
REMARK INTRA:                  -0.596
REMARK UNBOUND:                -0.611
REMARK  Name = 
REMARK  5 active torsions:
REMARK  status: ('A' for Active; 'I' for Inactive)
REMARK    1  A    between atoms: C_2  and  C_18
REMARK    2  A    between atoms: N_3  and  C_4
REMARK    3  A    between atoms: C_4  and  C_5
REMARK    4  A    between atoms: C_8  and  C_9
REMARK    5  A    between atoms: C_9  and  C_10
REMARK                            x       y       z     vdW  Elec       q    Type
REMARK                         _______ _______ _______ _____ _____    ______ ____
ROOT
ATOM      1  O   UNL     1      47.870   4.611  13.567  0.00  0.00    +0.000 OA
ATOM      2  C   UNL     1      47.559   5.792  13.634  0.00  0.00    +0.000 C 
ATOM      3  N   UNL     1      46.294   6.284  13.414  0.00  0.00    +0.000 N 
ATOM      4  H   UNL     1      46.103   7.239  13.674  0.00  0.00    +0.000 HD
ENDROOT
BRANCH   2   5
ATOM      5  C   UNL     1      48.437   6.831  14.157  0.00  0.00    +0.000 A 
ATOM      6  C   UNL     1      48.754   7.972  13.444  0.00  0.00    +0.000 A 
ATOM      7  S   UNL     1      50.176   8.722  14.045  0.00  0.00    +0.000 S 
ATOM      8  C   UNL     1      50.298   7.601  15.325  0.00  0.00    +0.000 A 
ATOM      9  N   UNL     1      51.370   7.557  16.160  0.00  0.00    +0.000 NA
ATOM     10  C   UNL     1      51.276   6.666  17.095  0.00  0.00    +0.000 A 
ATOM     11  N   UNL     1      50.189   5.853  17.304  0.00  0.00    +0.000 N 
ATOM     12  C   UNL     1      49.070   5.884  16.506  0.00  0.00    +0.000 A 
ATOM     13  O   UNL     1      48.072   5.220  16.759  0.00  0.00    +0.000 OA
ATOM     14  C   UNL     1      49.198   6.771  15.370  0.00  0.00    +0.000 A 
ATOM     15  H   UNL     1      50.148   5.237  18.103  0.00  0.00    +0.000 HD
ENDBRANCH   2   5
BRANCH   3  16
ATOM     16  C   UNL     1      45.143   5.440  13.266  0.00  0.00    +0.000 C 
BRANCH  16  17
ATOM     17  C   UNL     1      45.053   4.964  11.839  0.00  0.00    +0.000 A 
ATOM     18  C   UNL     1      44.366   3.785  11.534  0.00  0.00    +0.000 A 
ATOM     19  C   UNL     1      44.305   3.323  10.220  0.00  0.00    +0.000 A 
ATOM     20  C   UNL     1      44.902   4.041   9.175  0.00  0.00    +0.000 A 
ATOM     21  C   UNL     1      45.626   5.198   9.484  0.00  0.00    +0.000 A 
ATOM     22  C   UNL     1      45.715   5.648  10.805  0.00  0.00    +0.000 A 
BRANCH  20  23
ATOM     23  C   UNL     1      44.749   3.582   7.741  0.00  0.00    +0.000 C 
BRANCH  23  24
ATOM     24  C   UNL     1      45.962   2.884   7.158  0.00  0.00    +0.000 A 
ATOM     25  C   UNL     1      46.510   3.287   5.951  0.00  0.00    +0.000 A 
ATOM     26  C   UNL     1      47.566   2.544   5.473  0.00  0.00    +0.000 A 
ATOM     27  N   UNL     1      48.069   1.473   6.111  0.00  0.00    +0.000 NA
ATOM     28  C   UNL     1      47.473   1.164   7.271  0.00  0.00    +0.000 A 
ATOM     29  N   UNL     1      46.438   1.812   7.831  0.00  0.00    +0.000 NA
ENDBRANCH  23  24
ENDBRANCH  20  23
ENDBRANCH  16  17
ENDBRANCH   3  16
TORSDOF 5
ENDMDL
MODEL 5
REMARK VINA RESULT:    -7.719      2.099      3.327
REMARK INTER + INTRA:         -10.586
REMARK INTER:                  -9.628
REMARK INTRA:                  -0.958
REMARK UNBOUND:                -0.611
REMARK  Name = 
REMARK  5 active torsions:
REMARK  status: ('A' for Active; 'I' for Inactive)
REMARK    1  A    between atoms: C_2  and  C_18
REMARK    2  A    between atoms: N_3  and  C_4
REMARK    3  A    between atoms: C_4  and  C_5
REMARK    4  A    between atoms: C_8  and  C_9
REMARK    5  A    between atoms: C_9  and  C_10
REMARK                            x       y       z     vdW  Elec       q    Type
REMARK                         _______ _______ _______ _____ _____    ______ ____
ROOT
ATOM      1  O   UNL     1      48.519   8.147  16.795  0.00  0.00    +0.000 OA
ATOM      2  C   UNL     1      48.700   7.022  16.349  0.00  0.00    +0.000 C 
ATOM      3  N   UNL     1      48.344   6.612  15.086  0.00  0.00    +0.000 N 
ATOM      4  H   UNL     1      48.702   5.730  14.753  0.00  0.00    +0.000 HD
ENDROOT
BRANCH   2   5
ATOM      5  C   UNL     1      49.506   6.008  17.017  0.00  0.00    +0.000 A 
ATOM      6  C   UNL     1      50.740   6.283  17.578  0.00  0.00    +0.000 A 
ATOM      7  S   UNL     1      51.669   4.856  17.799  0.00  0.00    +0.000 S 
ATOM      8  C   UNL     1      50.387   3.867  17.264  0.00  0.00    +0.000 A 
ATOM      9  N   UNL     1      50.529   2.530  17.058  0.00  0.00    +0.000 NA
ATOM     10  C   UNL     1      49.443   1.933  16.686  0.00  0.00    +0.000 A 
ATOM     11  N   UNL     1      48.216   2.537  16.553  0.00  0.00    +0.000 N 
ATOM     12  C   UNL     1      48.016   3.878  16.781  0.00  0.00    +0.000 A 
ATOM     13  O   UNL     1      46.901   4.384  16.749  0.00  0.00    +0.000 OA
ATOM     14  C   UNL     1      49.237   4.601  17.065  0.00  0.00    +0.000 A 
ATOM     15  H   UNL     1      47.392   1.995  16.338  0.00  0.00    +0.000 HD
ENDBRANCH   2   5
BRANCH   3  16
ATOM     16  C   UNL     1      47.888   7.517  14.071  0.00  0.00    +0.000 C 
BRANCH  16  17
ATOM     17  C   UNL     1      46.935   6.796  13.151  0.00  0.00    +0.000 A 
ATOM     18  C   UNL     1      46.174   7.515  12.225  0.00  0.00    +0.000 A 
ATOM     19  C   UNL     1      45.269   6.858  11.392  0.00  0.00    +0.000 A 
ATOM     20  C   UNL     1      45.124   5.465  11.443  0.00  0.00    +0.000 A 
ATOM     21  C   UNL     1      45.854   4.749  12.399  0.00  0.00    +0.000 A 
ATOM     22  C   UNL     1      46.740   5.409  13.256  0.00  0.00    +0.000 A 
BRANCH  20  23
ATOM     23  C   UNL     1      44.210   4.751  10.470  0.00  0.00    +0.000 C 
BRANCH  23  24
ATOM     24  C   UNL     1      44.914   3.880   9.450  0.00  0.00    +0.000 A 
ATOM     25  C   UNL     1      44.933   2.500   9.575  0.00  0.00    +0.000 A 
ATOM     26  C   UNL     1      45.659   1.804   8.635  0.00  0.00    +0.000 A 
ATOM     27  N   UNL     1      46.332   2.393   7.632  0.00  0.00    +0.000 NA
ATOM     28  C   UNL     1      46.252   3.730   7.594  0.00  0.00    +0.000 A 
ATOM     29  N   UNL     1      45.579   4.511   8.456  0.00  0.00    +0.000 NA
ENDBRANCH  23  24
ENDBRANCH  20  23
ENDBRANCH  16  17
ENDBRANCH   3  16
TORSDOF 5
ENDMDL
MODEL 6
REMARK VINA RESULT:    -7.630      2.926      8.758
REMARK INTER + INTRA:         -10.472
REMARK INTER:                  -9.583
REMARK INTRA:                  -0.889
REMARK UNBOUND:                -0.611
REMARK  Name = 
REMARK  5 active torsions:
REMARK  status: ('A' for Active; 'I' for Inactive)
REMARK    1  A    between atoms: C_2  and  C_18
REMARK    2  A    between atoms: N_3  and  C_4
REMARK    3  A    between atoms: C_4  and  C_5
REMARK    4  A    between atoms: C_8  and  C_9
REMARK    5  A    between atoms: C_9  and  C_10
REMARK                            x       y       z     vdW  Elec       q    Type
REMARK                         _______ _______ _______ _____ _____    ______ ____
ROOT
ATOM      1  O   UNL     1      45.157   7.326  11.296  0.00  0.00    +0.000 OA
ATOM      2  C   UNL     1      45.497   6.168  11.501  0.00  0.00    +0.000 C 
ATOM      3  N   UNL     1      46.583   5.792  12.255  0.00  0.00    +0.000 N 
ATOM      4  H   UNL     1      46.668   4.821  12.515  0.00  0.00    +0.000 HD
ENDROOT
BRANCH   2   5
ATOM      5  C   UNL     1      44.685   5.012  11.145  0.00  0.00    +0.000 A 
ATOM      6  C   UNL     1      43.682   4.522  11.963  0.00  0.00    +0.000 A 
ATOM      7  S   UNL     1      43.279   2.900  11.570  0.00  0.00    +0.000 S 
ATOM      8  C   UNL     1      44.346   2.894  10.240  0.00  0.00    +0.000 A 
ATOM      9  N   UNL     1      44.619   1.770   9.525  0.00  0.00    +0.000 NA
ATOM     10  C   UNL     1      45.424   1.958   8.529  0.00  0.00    +0.000 A 
ATOM     11  N   UNL     1      45.939   3.174   8.149  0.00  0.00    +0.000 N 
ATOM     12  C   UNL     1      45.668   4.342   8.822  0.00  0.00    +0.000 A 
ATOM     13  O   UNL     1      46.058   5.430   8.419  0.00  0.00    +0.000 OA
ATOM     14  C   UNL     1      44.881   4.145  10.021  0.00  0.00    +0.000 A 
ATOM     15  H   UNL     1      46.497   3.262   7.313  0.00  0.00    +0.000 HD
ENDBRANCH   2   5
BRANCH   3  16
ATOM     16  C   UNL     1      47.337   6.715  13.053  0.00  0.00    +0.000 C 
BRANCH  16  17
ATOM     17  C   UNL     1      47.744   6.044  14.341  0.00  0.00    +0.000 A 
ATOM     18  C   UNL     1      47.114   4.865  14.748  0.00  0.00    +0.000 A 
ATOM     19  C   UNL     1      47.465   4.256  15.952  0.00  0.00    +0.000 A 
ATOM     20  C   UNL     1      48.474   4.793  16.764  0.00  0.00    +0.000 A 
ATOM     21  C   UNL     1      49.076   5.996  16.378  0.00  0.00    +0.000 A 
ATOM     22  C   UNL     1      48.705   6.625  15.186  0.00  0.00    +0.000 A 
BRANCH  20  23
ATOM     23  C   UNL     1      48.913   4.073  18.021  0.00  0.00    +0.000 C 
BRANCH  23  24
ATOM     24  C   UNL     1      50.238   3.344  17.913  0.00  0.00    +0.000 A 
ATOM     25  C   UNL     1      50.315   2.072  17.373  0.00  0.00    +0.000 A 
ATOM     26  C   UNL     1      51.552   1.468  17.385  0.00  0.00    +0.000 A 
ATOM     27  N   UNL     1      52.655   2.048  17.888  0.00  0.00    +0.000 NA
ATOM     28  C   UNL     1      52.481   3.280  18.387  0.00  0.00    +0.000 A 
ATOM     29  N   UNL     1      51.324   3.962  18.431  0.00  0.00    +0.000 NA
ENDBRANCH  23  24
ENDBRANCH  20  23
ENDBRANCH  16  17
ENDBRANCH   3  16
TORSDOF 5
ENDMDL
MODEL 7
REMARK VINA RESULT:    -7.508      3.217      4.141
REMARK INTER + INTRA:         -10.314
REMARK INTER:                 -10.188
REMARK INTRA:                  -0.126
REMARK UNBOUND:                -0.611
REMARK  Name = 
REMARK  5 active torsions:
REMARK  status: ('A' for Active; 'I' for Inactive)
REMARK    1  A    between atoms: C_2  and  C_18
REMARK    2  A    between atoms: N_3  and  C_4
REMARK    3  A    between atoms: C_4  and  C_5
REMARK    4  A    between atoms: C_8  and  C_9
REMARK    5  A    between atoms: C_9  and  C_10
REMARK                            x       y       z     vdW  Elec       q    Type
REMARK                         _______ _______ _______ _____ _____    ______ ____
ROOT
ATOM      1  O   UNL     1      44.838   8.658  12.904  0.00  0.00    +0.000 OA
ATOM      2  C   UNL     1      46.003   8.286  12.937  0.00  0.00    +0.000 C 
ATOM      3  N   UNL     1      46.408   6.994  13.175  0.00  0.00    +0.000 N 
ATOM      4  H   UNL     1      47.371   6.756  12.998  0.00  0.00    +0.000 HD
ENDROOT
BRANCH   2   5
ATOM      5  C   UNL     1      47.129   9.115  12.525  0.00  0.00    +0.000 A 
ATOM      6  C   UNL     1      46.971  10.292  11.816  0.00  0.00    +0.000 A 
ATOM      7  S   UNL     1      48.421  10.755  11.023  0.00  0.00    +0.000 S 
ATOM      8  C   UNL     1      49.286   9.462  11.722  0.00  0.00    +0.000 A 
ATOM      9  N   UNL     1      50.564   9.159  11.369  0.00  0.00    +0.000 NA
ATOM     10  C   UNL     1      51.075   8.169  12.027  0.00  0.00    +0.000 A 
ATOM     11  N   UNL     1      50.447   7.487  13.041  0.00  0.00    +0.000 N 
ATOM     12  C   UNL     1      49.168   7.776  13.454  0.00  0.00    +0.000 A 
ATOM     13  O   UNL     1      48.655   7.223  14.419  0.00  0.00    +0.000 OA
ATOM     14  C   UNL     1      48.518   8.788  12.647  0.00  0.00    +0.000 A 
ATOM     15  H   UNL     1      50.934   6.777  13.568  0.00  0.00    +0.000 HD
ENDBRANCH   2   5
BRANCH   3  16
ATOM     16  C   UNL     1      45.496   5.887  13.224  0.00  0.00    +0.000 C 
BRANCH  16  17
ATOM     17  C   UNL     1      45.302   5.338  11.833  0.00  0.00    +0.000 A 
ATOM     18  C   UNL     1      46.025   5.870  10.761  0.00  0.00    +0.000 A 
ATOM     19  C   UNL     1      45.828   5.388   9.468  0.00  0.00    +0.000 A 
ATOM     20  C   UNL     1      44.927   4.345   9.217  0.00  0.00    +0.000 A 
ATOM     21  C   UNL     1      44.172   3.841  10.282  0.00  0.00    +0.000 A 
ATOM     22  C   UNL     1      44.345   4.342  11.576  0.00  0.00    +0.000 A 
BRANCH  20  23
ATOM     23  C   UNL     1      44.790   3.764   7.826  0.00  0.00    +0.000 C 
BRANCH  23  24
ATOM     24  C   UNL     1      45.963   2.924   7.363  0.00  0.00    +0.000 A 
ATOM     25  C   UNL     1      46.716   3.287   6.258  0.00  0.00    +0.000 A 
ATOM     26  C   UNL     1      47.714   2.421   5.878  0.00  0.00    +0.000 A 
ATOM     27  N   UNL     1      47.979   1.268   6.515  0.00  0.00    +0.000 NA
ATOM     28  C   UNL     1      47.200   1.004   7.573  0.00  0.00    +0.000 A 
ATOM     29  N   UNL     1      46.197   1.772   8.032  0.00  0.00    +0.000 NA
ENDBRANCH  23  24
ENDBRANCH  20  23
ENDBRANCH  16  17
ENDBRANCH   3  16
TORSDOF 5
ENDMDL
MODEL 8
REMARK VINA RESULT:    -6.958      2.814      3.917
REMARK INTER + INTRA:          -9.604
REMARK INTER:                  -8.576
REMARK INTRA:                  -1.028
REMARK UNBOUND:                -0.611
REMARK  Name = 
REMARK  5 active torsions:
REMARK  status: ('A' for Active; 'I' for Inactive)
REMARK    1  A    between atoms: C_2  and  C_18
REMARK    2  A    between atoms: N_3  and  C_4
REMARK    3  A    between atoms: C_4  and  C_5
REMARK    4  A    between atoms: C_8  and  C_9
REMARK    5  A    between atoms: C_9  and  C_10
REMARK                            x       y       z     vdW  Elec       q    Type
REMARK                         _______ _______ _______ _____ _____    ______ ____
ROOT
ATOM      1  O   UNL     1      49.674   9.446  15.811  0.00  0.00    +0.000 OA
ATOM      2  C   UNL     1      48.598   8.938  16.093  0.00  0.00    +0.000 C 
ATOM      3  N   UNL     1      47.570   8.734  15.203  0.00  0.00    +0.000 N 
ATOM      4  H   UNL     1      46.803   8.144  15.488  0.00  0.00    +0.000 HD
ENDROOT
BRANCH   2   5
ATOM      5  C   UNL     1      48.320   8.286  17.366  0.00  0.00    +0.000 A 
ATOM      6  C   UNL     1      47.800   8.962  18.455  0.00  0.00    +0.000 A 
ATOM      7  S   UNL     1      48.079   8.115  19.921  0.00  0.00    +0.000 S 
ATOM      8  C   UNL     1      48.779   6.796  19.095  0.00  0.00    +0.000 A 
ATOM      9  N   UNL     1      49.378   5.761  19.742  0.00  0.00    +0.000 NA
ATOM     10  C   UNL     1      49.824   4.833  18.958  0.00  0.00    +0.000 A 
ATOM     11  N   UNL     1      49.679   4.818  17.592  0.00  0.00    +0.000 N 
ATOM     12  C   UNL     1      49.054   5.826  16.897  0.00  0.00    +0.000 A 
ATOM     13  O   UNL     1      48.850   5.755  15.691  0.00  0.00    +0.000 OA
ATOM     14  C   UNL     1      48.666   6.944  17.730  0.00  0.00    +0.000 A 
ATOM     15  H   UNL     1      49.979   4.022  17.048  0.00  0.00    +0.000 HD
ENDBRANCH   2   5
BRANCH   3  16
ATOM     16  C   UNL     1      47.713   8.921  13.788  0.00  0.00    +0.000 C 
BRANCH  16  17
ATOM     17  C   UNL     1      46.747   8.017  13.065  0.00  0.00    +0.000 A 
ATOM     18  C   UNL     1      46.901   6.629  13.129  0.00  0.00    +0.000 A 
ATOM     19  C   UNL     1      46.029   5.789  12.438  0.00  0.00    +0.000 A 
ATOM     20  C   UNL     1      44.965   6.313  11.691  0.00  0.00    +0.000 A 
ATOM     21  C   UNL     1      44.835   7.702  11.591  0.00  0.00    +0.000 A 
ATOM     22  C   UNL     1      45.726   8.549  12.259  0.00  0.00    +0.000 A 
BRANCH  20  23
ATOM     23  C   UNL     1      43.968   5.390  11.022  0.00  0.00    +0.000 C 
BRANCH  23  24
ATOM     24  C   UNL     1      44.566   4.400  10.043  0.00  0.00    +0.000 A 
ATOM     25  C   UNL     1      45.399   4.818   9.019  0.00  0.00    +0.000 A 
ATOM     26  C   UNL     1      45.833   3.851   8.141  0.00  0.00    +0.000 A 
ATOM     27  N   UNL     1      45.488   2.555   8.235  0.00  0.00    +0.000 NA
ATOM     28  C   UNL     1      44.681   2.248   9.259  0.00  0.00    +0.000 A 
ATOM     29  N   UNL     1      44.194   3.106  10.172  0.00  0.00    +0.000 NA
ENDBRANCH  23  24
ENDBRANCH  20  23
ENDBRANCH  16  17
ENDBRANCH   3  16
TORSDOF 5
ENDMDL
MODEL 9
REMARK VINA RESULT:    -6.836      3.827      8.634
REMARK INTER + INTRA:          -9.446
REMARK INTER:                  -8.440
REMARK INTRA:                  -1.005
REMARK UNBOUND:                -0.611
REMARK  Name = 
REMARK  5 active torsions:
REMARK  status: ('A' for Active; 'I' for Inactive)
REMARK    1  A    between atoms: C_2  and  C_18
REMARK    2  A    between atoms: N_3  and  C_4
REMARK    3  A    between atoms: C_4  and  C_5
REMARK    4  A    between atoms: C_8  and  C_9
REMARK    5  A    between atoms: C_9  and  C_10
REMARK                            x       y       z     vdW  Elec       q    Type
REMARK                         _______ _______ _______ _____ _____    ______ ____
ROOT
ATOM      1  O   UNL     1      47.512   2.910  14.341  0.00  0.00    +0.000 OA
ATOM      2  C   UNL     1      47.008   4.002  14.565  0.00  0.00    +0.000 C 
ATOM      3  N   UNL     1      46.752   4.506  15.818  0.00  0.00    +0.000 N 
ATOM      4  H   UNL     1      46.510   5.481  15.898  0.00  0.00    +0.000 HD
ENDROOT
BRANCH   2   5
ATOM      5  C   UNL     1      46.792   5.017  13.542  0.00  0.00    +0.000 A 
ATOM      6  C   UNL     1      47.624   6.111  13.386  0.00  0.00    +0.000 A 
ATOM      7  S   UNL     1      46.857   7.372  12.510  0.00  0.00    +0.000 S 
ATOM      8  C   UNL     1      45.471   6.418  12.233  0.00  0.00    +0.000 A 
ATOM      9  N   UNL     1      44.341   6.915  11.662  0.00  0.00    +0.000 NA
ATOM     10  C   UNL     1      43.402   6.040  11.498  0.00  0.00    +0.000 A 
ATOM     11  N   UNL     1      43.506   4.704  11.802  0.00  0.00    +0.000 N 
ATOM     12  C   UNL     1      44.637   4.150  12.351  0.00  0.00    +0.000 A 
ATOM     13  O   UNL     1      44.750   2.943  12.531  0.00  0.00    +0.000 OA
ATOM     14  C   UNL     1      45.657   5.125  12.675  0.00  0.00    +0.000 A 
ATOM     15  H   UNL     1      42.762   4.060  11.572  0.00  0.00    +0.000 HD
ENDBRANCH   2   5
BRANCH   3  16
ATOM     16  C   UNL     1      47.226   3.884  17.021  0.00  0.00    +0.000 C 
BRANCH  16  17
ATOM     17  C   UNL     1      48.631   4.350  17.303  0.00  0.00    +0.000 A 
ATOM     18  C   UNL     1      48.934   5.715  17.295  0.00  0.00    +0.000 A 
ATOM     19  C   UNL     1      50.238   6.151  17.525  0.00  0.00    +0.000 A 
ATOM     20  C   UNL     1      51.265   5.238  17.799  0.00  0.00    +0.000 A 
ATOM     21  C   UNL     1      50.973   3.870  17.766  0.00  0.00    +0.000 A 
ATOM     22  C   UNL     1      49.672   3.428  17.505  0.00  0.00    +0.000 A 
BRANCH  20  23
ATOM     23  C   UNL     1      52.657   5.726  18.141  0.00  0.00    +0.000 C 
BRANCH  23  24
ATOM     24  C   UNL     1      53.652   5.680  17.000  0.00  0.00    +0.000 A 
ATOM     25  C   UNL     1      54.730   4.810  17.022  0.00  0.00    +0.000 A 
ATOM     26  C   UNL     1      55.615   4.895  15.971  0.00  0.00    +0.000 A 
ATOM     27  N   UNL     1      55.479   5.765  14.955  0.00  0.00    +0.000 NA
ATOM     28  C   UNL     1      54.405   6.562  15.021  0.00  0.00    +0.000 A 
ATOM     29  N   UNL     1      53.480   6.570  15.996  0.00  0.00    +0.000 NA
ENDBRANCH  23  24
ENDBRANCH  20  23
ENDBRANCH  16  17
ENDBRANCH   3  16
TORSDOF 5
ENDMDL
