MODEL 1
REMARK VINA RESULT:    -7.763      0.000      0.000
REMARK INTER + INTRA:         -12.698
REMARK INTER:                 -11.848
REMARK INTRA:                  -0.850
REMARK UNBOUND:                -0.850
REMARK  Name = 
REMARK  13 active torsions:
REMARK  status: ('A' for Active; 'I' for Inactive)
REMARK    1  A    between atoms: C_1  and  C_2
REMARK    2  A    between atoms: C_2  and  C_3
REMARK    3  A    between atoms: C_2  and  N_4
REMARK    4  A    between atoms: C_5  and  C_7
REMARK    5  A    between atoms: C_10  and  N_11
REMARK    6  A    between atoms: N_11  and  C_12
REMARK    7  A    between atoms: C_12  and  C_13
REMARK    8  A    between atoms: C_13  and  C_14
REMARK    9  A    between atoms: C_13  and  C_15
REMARK   10  A    between atoms: C_13  and  C_16
REMARK   11  A    between atoms: C_20  and  O_21
REMARK   12  A    between atoms: O_21  and  C_22
REMARK   13  A    between atoms: C_22  and  C_23
REMARK                            x       y       z     vdW  Elec       q    Type
REMARK                         _______ _______ _______ _____ _____    ______ ____
ROOT
ATOM      1  C   UNL     1      44.649   5.019  12.945  0.00  0.00    +0.000 C 
ENDROOT
BRANCH   1   2
ATOM      2  C   UNL     1      44.384   5.588  11.504  0.00  0.00    +0.000 C 
ATOM      3  C   UNL     1      42.911   6.052  11.382  0.00  0.00    +0.000 C 
ATOM      4  C   UNL     1      45.289   6.825  11.277  0.00  0.00    +0.000 C 
BRANCH   2   5
ATOM      5  C   UNL     1      44.626   4.480  10.447  0.00  0.00    +0.000 A 
ATOM      6  C   UNL     1      44.081   3.189  10.567  0.00  0.00    +0.000 A 
ATOM      7  C   UNL     1      44.315   2.207   9.600  0.00  0.00    +0.000 A 
ATOM      8  C   UNL     1      45.090   2.490   8.480  0.00  0.00    +0.000 A 
ATOM      9  C   UNL     1      45.639   3.758   8.326  0.00  0.00    +0.000 A 
ATOM     10  C   UNL     1      45.430   4.730   9.314  0.00  0.00    +0.000 A 
BRANCH   9  11
ATOM     11  O   UNL     1      46.433   4.141   7.277  0.00  0.00    +0.000 OA
BRANCH  11  12
ATOM     12  C   UNL     1      46.403   3.270   6.136  0.00  0.00    +0.000 C 
BRANCH  12  13
ATOM     13  C   UNL     1      47.613   2.339   6.104  0.00  0.00    +0.000 C 
ATOM     14  F   UNL     1      48.616   2.740   6.912  0.00  0.00    +0.000 F 
ATOM     15  F   UNL     1      47.259   1.089   6.490  0.00  0.00    +0.000 F 
ATOM     16  F   UNL     1      48.115   2.240   4.850  0.00  0.00    +0.000 F 
ENDBRANCH  12  13
ENDBRANCH  11  12
ENDBRANCH   9  11
ENDBRANCH   2   5
ENDBRANCH   1   2
BRANCH   1  17
ATOM     17  N   UNL     1      45.948   4.329  13.050  0.00  0.00    +0.000 N 
ATOM     18  H   UNL     1      46.502   4.386  12.203  0.00  0.00    +0.000 HD
BRANCH  17  22
ATOM     19  C   UNL     1      48.416   5.486  16.135  0.00  0.00    +0.000 A 
ATOM     20  C   UNL     1      47.591   4.379  16.268  0.00  0.00    +0.000 A 
ATOM     21  N   UNL     1      46.761   3.956  15.274  0.00  0.00    +0.000 NA
ATOM     22  C   UNL     1      46.764   4.679  14.137  0.00  0.00    +0.000 A 
ATOM     23  C   UNL     1      47.613   5.793  14.023  0.00  0.00    +0.000 A 
ATOM     24  N   UNL     1      48.448   6.236  15.002  0.00  0.00    +0.000 NA
BRANCH  19  26
ATOM     25  N   UNL     1      50.082   4.825  17.770  0.00  0.00    +0.000 N 
ATOM     26  C   UNL     1      49.338   5.862  17.243  0.00  0.00    +0.000 C 
ATOM     27  O   UNL     1      49.396   7.021  17.645  0.00  0.00    +0.000 OA
ATOM     28  H   UNL     1      50.023   3.933  17.283  0.00  0.00    +0.000 HD
BRANCH  25  30
ATOM     29  C   UNL     1      50.343   4.959  20.201  0.00  0.00    +0.000 C 
ATOM     30  C   UNL     1      51.041   5.015  18.846  0.00  0.00    +0.000 C 
ATOM     31  C   UNL     1      52.158   3.979  18.769  0.00  0.00    +0.000 C 
ENDBRANCH  25  30
ENDBRANCH  19  26
ENDBRANCH  17  22
ENDBRANCH   1  17
TORSDOF 9
ENDMDL
MODEL 2
REMARK VINA RESULT:    -7.623      1.251      1.719
REMARK INTER + INTRA:         -12.484
REMARK INTER:                 -11.527
REMARK INTRA:                  -0.957
REMARK UNBOUND:                -0.850
REMARK  Name = 
REMARK  13 active torsions:
REMARK  status: ('A' for Active; 'I' for Inactive)
REMARK    1  A    between atoms: C_1  and  C_2
REMARK    2  A    between atoms: C_2  and  C_3
REMARK    3  A    between atoms: C_2  and  N_4
REMARK    4  A    between atoms: C_5  and  C_7
REMARK    5  A    between atoms: C_10  and  N_11
REMARK    6  A    between atoms: N_11  and  C_12
REMARK    7  A    between atoms: C_12  and  C_13
REMARK    8  A    between atoms: C_13  and  C_14
REMARK    9  A    between atoms: C_13  and  C_15
REMARK   10  A    between atoms: C_13  and  C_16
REMARK   11  A    between atoms: C_20  and  O_21
REMARK   12  A    between atoms: O_21  and  C_22
REMARK   13  A    between atoms: C_22  and  C_23
REMARK                            x       y       z     vdW  Elec       q    Type
REMARK                         _______ _______ _______ _____ _____    ______ ____
ROOT
ATOM      1  C   UNL     1      46.526   5.212  12.899  0.00  0.00    +0.000 C 
ENDROOT
BRANCH   1   2
ATOM      2  C   UNL     1      45.298   5.639  12.015  0.00  0.00    +0.000 C 
ATOM      3  C   UNL     1      44.021   5.717  12.887  0.00  0.00    +0.000 C 
ATOM      4  C   UNL     1      45.562   7.051  11.436  0.00  0.00    +0.000 C 
BRANCH   2   5
ATOM      5  C   UNL     1      45.056   4.583  10.905  0.00  0.00    +0.000 A 
ATOM      6  C   UNL     1      44.344   3.393  11.137  0.00  0.00    +0.000 A 
ATOM      7  C   UNL     1      44.141   2.456  10.119  0.00  0.00    +0.000 A 
ATOM      8  C   UNL     1      44.631   2.689   8.838  0.00  0.00    +0.000 A 
ATOM      9  C   UNL     1      45.334   3.859   8.572  0.00  0.00    +0.000 A 
ATOM     10  C   UNL     1      45.565   4.779   9.603  0.00  0.00    +0.000 A 
BRANCH   9  11
ATOM     11  O   UNL     1      45.878   4.181   7.357  0.00  0.00    +0.000 OA
BRANCH  11  12
ATOM     12  C   UNL     1      47.171   3.617   7.094  0.00  0.00    +0.000 C 
BRANCH  12  13
ATOM     13  C   UNL     1      47.092   2.454   6.108  0.00  0.00    +0.000 C 
ATOM     14  F   UNL     1      46.157   2.630   5.152  0.00  0.00    +0.000 F 
ATOM     15  F   UNL     1      48.282   2.282   5.482  0.00  0.00    +0.000 F 
ATOM     16  F   UNL     1      46.809   1.294   6.748  0.00  0.00    +0.000 F 
ENDBRANCH  12  13
ENDBRANCH  11  12
ENDBRANCH   9  11
ENDBRANCH   2   5
ENDBRANCH   1   2
BRANCH   1  17
ATOM     17  N   UNL     1      46.119   4.517  14.134  0.00  0.00    +0.000 N 
ATOM     18  H   UNL     1      45.716   3.603  13.965  0.00  0.00    +0.000 HD
BRANCH  17  22
ATOM     19  C   UNL     1      49.036   4.316  17.032  0.00  0.00    +0.000 A 
ATOM     20  C   UNL     1      48.175   3.249  16.820  0.00  0.00    +0.000 A 
ATOM     21  N   UNL     1      47.198   3.268  15.872  0.00  0.00    +0.000 NA
ATOM     22  C   UNL     1      47.090   4.394  15.139  0.00  0.00    +0.000 A 
ATOM     23  C   UNL     1      47.977   5.460  15.367  0.00  0.00    +0.000 A 
ATOM     24  N   UNL     1      48.958   5.465  16.310  0.00  0.00    +0.000 NA
BRANCH  19  26
ATOM     25  N   UNL     1      51.300   3.659  17.602  0.00  0.00    +0.000 N 
ATOM     26  C   UNL     1      50.116   4.208  18.052  0.00  0.00    +0.000 C 
ATOM     27  O   UNL     1      49.927   4.579  19.208  0.00  0.00    +0.000 OA
ATOM     28  H   UNL     1      51.367   3.489  16.601  0.00  0.00    +0.000 HD
BRANCH  25  30
ATOM     29  C   UNL     1      53.057   2.097  18.289  0.00  0.00    +0.000 C 
ATOM     30  C   UNL     1      52.463   3.491  18.459  0.00  0.00    +0.000 C 
ATOM     31  C   UNL     1      53.509   4.564  18.172  0.00  0.00    +0.000 C 
ENDBRANCH  25  30
ENDBRANCH  19  26
ENDBRANCH  17  22
ENDBRANCH   1  17
TORSDOF 9
ENDMDL
MODEL 3
REMARK VINA RESULT:    -7.284      1.546      2.065
REMARK INTER + INTRA:         -11.966
REMARK INTER:                 -10.935
REMARK INTRA:                  -1.031
REMARK UNBOUND:                -0.850
REMARK  Name = 
REMARK  13 active torsions:
REMARK  status: ('A' for Active; 'I' for Inactive)
REMARK    1  A    between atoms: C_1  and  C_2
REMARK    2  A    between atoms: C_2  and  C_3
REMARK    3  A    between atoms: C_2  and  N_4
REMARK    4  A    between atoms: C_5  and  C_7
REMARK    5  A    between atoms: C_10  and  N_11
REMARK    6  A    between atoms: N_11  and  C_12
REMARK    7  A    between atoms: C_12  and  C_13
REMARK    8  A    between atoms: C_13  and  C_14
REMARK    9  A    between atoms: C_13  and  C_15
REMARK   10  A    between atoms: C_13  and  C_16
REMARK   11  A    between atoms: C_20  and  O_21
REMARK   12  A    between atoms: O_21  and  C_22
REMARK   13  A    between atoms: C_22  and  C_23
REMARK                            x       y       z     vdW  Elec       q    Type
REMARK                         _______ _______ _______ _____ _____    ______ ____
ROOT
ATOM      1  C   UNL     1      46.668   6.153  12.287  0.00  0.00    +0.000 C 
ENDROOT
BRANCH   1   2
ATOM      2  C   UNL     1      45.171   6.097  11.812  0.00  0.00    +0.000 C 
ATOM      3  C   UNL     1      44.241   5.837  13.022  0.00  0.00    +0.000 C 
ATOM      4  C   UNL     1      44.785   7.470  11.206  0.00  0.00    +0.000 C 
BRANCH   2   5
ATOM      5  C   UNL     1      44.981   4.935  10.803  0.00  0.00    +0.000 A 
ATOM      6  C   UNL     1      44.266   3.768  11.123  0.00  0.00    +0.000 A 
ATOM      7  C   UNL     1      44.110   2.732  10.196  0.00  0.00    +0.000 A 
ATOM      8  C   UNL     1      44.653   2.840   8.919  0.00  0.00    +0.000 A 
ATOM      9  C   UNL     1      45.361   3.985   8.568  0.00  0.00    +0.000 A 
ATOM     10  C   UNL     1      45.544   5.005   9.510  0.00  0.00    +0.000 A 
BRANCH   9  11
ATOM     11  O   UNL     1      45.954   4.189   7.350  0.00  0.00    +0.000 OA
BRANCH  11  12
ATOM     12  C   UNL     1      47.221   3.540   7.168  0.00  0.00    +0.000 C 
BRANCH  12  13
ATOM     13  C   UNL     1      47.119   2.360   6.204  0.00  0.00    +0.000 C 
ATOM     14  F   UNL     1      48.294   2.048   5.618  0.00  0.00    +0.000 F 
ATOM     15  F   UNL     1      46.685   1.253   6.855  0.00  0.00    +0.000 F 
ATOM     16  F   UNL     1      46.227   2.616   5.218  0.00  0.00    +0.000 F 
ENDBRANCH  12  13
ENDBRANCH  11  12
ENDBRANCH   9  11
ENDBRANCH   2   5
ENDBRANCH   1   2
BRANCH   1  17
ATOM     17  N   UNL     1      47.080   4.931  13.003  0.00  0.00    +0.000 N 
ATOM     18  H   UNL     1      47.784   4.396  12.509  0.00  0.00    +0.000 HD
BRANCH  17  22
ATOM     19  C   UNL     1      48.186   5.257  16.955  0.00  0.00    +0.000 A 
ATOM     20  C   UNL     1      48.669   6.151  16.010  0.00  0.00    +0.000 A 
ATOM     21  N   UNL     1      48.329   6.085  14.693  0.00  0.00    +0.000 NA
ATOM     22  C   UNL     1      47.496   5.088  14.334  0.00  0.00    +0.000 A 
ATOM     23  C   UNL     1      47.014   4.199  15.309  0.00  0.00    +0.000 A 
ATOM     24  N   UNL     1      47.342   4.242  16.629  0.00  0.00    +0.000 NA
BRANCH  19  26
ATOM     25  N   UNL     1      48.754   6.720  18.804  0.00  0.00    +0.000 N 
ATOM     26  C   UNL     1      48.559   5.419  18.388  0.00  0.00    +0.000 C 
ATOM     27  O   UNL     1      48.687   4.438  19.117  0.00  0.00    +0.000 OA
ATOM     28  H   UNL     1      48.515   7.449  18.135  0.00  0.00    +0.000 HD
BRANCH  25  30
ATOM     29  C   UNL     1      50.342   7.958  20.199  0.00  0.00    +0.000 C 
ATOM     30  C   UNL     1      49.108   7.061  20.172  0.00  0.00    +0.000 C 
ATOM     31  C   UNL     1      47.938   7.731  20.887  0.00  0.00    +0.000 C 
ENDBRANCH  25  30
ENDBRANCH  19  26
ENDBRANCH  17  22
ENDBRANCH   1  17
TORSDOF 9
ENDMDL
MODEL 4
REMARK VINA RESULT:    -6.944      2.560      3.137
REMARK INTER + INTRA:         -11.448
REMARK INTER:                 -10.526
REMARK INTRA:                  -0.921
REMARK UNBOUND:                -0.850
REMARK  Name = 
REMARK  13 active torsions:
REMARK  status: ('A' for Active; 'I' for Inactive)
REMARK    1  A    between atoms: C_1  and  C_2
REMARK    2  A    between atoms: C_2  and  C_3
REMARK    3  A    between atoms: C_2  and  N_4
REMARK    4  A    between atoms: C_5  and  C_7
REMARK    5  A    between atoms: C_10  and  N_11
REMARK    6  A    between atoms: N_11  and  C_12
REMARK    7  A    between atoms: C_12  and  C_13
REMARK    8  A    between atoms: C_13  and  C_14
REMARK    9  A    between atoms: C_13  and  C_15
REMARK   10  A    between atoms: C_13  and  C_16
REMARK   11  A    between atoms: C_20  and  O_21
REMARK   12  A    between atoms: O_21  and  C_22
REMARK   13  A    between atoms: C_22  and  C_23
REMARK                            x       y       z     vdW  Elec       q    Type
REMARK                         _______ _______ _______ _____ _____    ______ ____
ROOT
ATOM      1  C   UNL     1      45.141   6.563  11.314  0.00  0.00    +0.000 C 
ENDROOT
BRANCH   1   2
ATOM      2  C   UNL     1      44.211   5.308  11.485  0.00  0.00    +0.000 C 
ATOM      3  C   UNL     1      44.456   4.652  12.867  0.00  0.00    +0.000 C 
ATOM      4  C   UNL     1      42.732   5.768  11.436  0.00  0.00    +0.000 C 
BRANCH   2   5
ATOM      5  C   UNL     1      44.537   4.257  10.392  0.00  0.00    +0.000 A 
ATOM      6  C   UNL     1      44.129   2.915  10.489  0.00  0.00    +0.000 A 
ATOM      7  C   UNL     1      44.437   1.986   9.491  0.00  0.00    +0.000 A 
ATOM      8  C   UNL     1      45.150   2.375   8.361  0.00  0.00    +0.000 A 
ATOM      9  C   UNL     1      45.563   3.697   8.230  0.00  0.00    +0.000 A 
ATOM     10  C   UNL     1      45.283   4.617   9.248  0.00  0.00    +0.000 A 
BRANCH   9  11
ATOM     11  O   UNL     1      46.287   4.185   7.173  0.00  0.00    +0.000 OA
BRANCH  11  12
ATOM     12  C   UNL     1      47.508   3.486   6.891  0.00  0.00    +0.000 C 
BRANCH  12  13
ATOM     13  C   UNL     1      47.321   2.437   5.797  0.00  0.00    +0.000 C 
ATOM     14  F   UNL     1      47.329   1.172   6.266  0.00  0.00    +0.000 F 
ATOM     15  F   UNL     1      46.139   2.624   5.160  0.00  0.00    +0.000 F 
ATOM     16  F   UNL     1      48.296   2.532   4.862  0.00  0.00    +0.000 F 
ENDBRANCH  12  13
ENDBRANCH  11  12
ENDBRANCH   9  11
ENDBRANCH   2   5
ENDBRANCH   1   2
BRANCH   1  17
ATOM     17  N   UNL     1      45.501   7.180  12.604  0.00  0.00    +0.000 N 
ATOM     18  H   UNL     1      45.160   6.661  13.405  0.00  0.00    +0.000 HD
BRANCH  17  22
ATOM     19  C   UNL     1      49.505   7.861  13.281  0.00  0.00    +0.000 A 
ATOM     20  C   UNL     1      48.690   8.869  12.787  0.00  0.00    +0.000 A 
ATOM     21  N   UNL     1      47.361   8.692  12.550  0.00  0.00    +0.000 NA
ATOM     22  C   UNL     1      46.859   7.468  12.810  0.00  0.00    +0.000 A 
ATOM     23  C   UNL     1      47.702   6.464  13.316  0.00  0.00    +0.000 A 
ATOM     24  N   UNL     1      49.032   6.616  13.557  0.00  0.00    +0.000 NA
BRANCH  19  26
ATOM     25  N   UNL     1      51.410   7.643  14.765  0.00  0.00    +0.000 N 
ATOM     26  C   UNL     1      50.940   8.138  13.565  0.00  0.00    +0.000 C 
ATOM     27  O   UNL     1      51.625   8.777  12.770  0.00  0.00    +0.000 OA
ATOM     28  H   UNL     1      50.776   7.041  15.285  0.00  0.00    +0.000 HD
BRANCH  25  30
ATOM     29  C   UNL     1      52.944   9.086  16.016  0.00  0.00    +0.000 C 
ATOM     30  C   UNL     1      52.789   7.810  15.195  0.00  0.00    +0.000 C 
ATOM     31  C   UNL     1      53.262   6.596  15.989  0.00  0.00    +0.000 C 
ENDBRANCH  25  30
ENDBRANCH  19  26
ENDBRANCH  17  22
ENDBRANCH   1  17
TORSDOF 9
ENDMDL
MODEL 5
REMARK VINA RESULT:    -6.837      3.250      4.138
REMARK INTER + INTRA:         -11.284
REMARK INTER:                 -10.243
REMARK INTRA:                  -1.041
REMARK UNBOUND:                -0.850
REMARK  Name = 
REMARK  13 active torsions:
REMARK  status: ('A' for Active; 'I' for Inactive)
REMARK    1  A    between atoms: C_1  and  C_2
REMARK    2  A    between atoms: C_2  and  C_3
REMARK    3  A    between atoms: C_2  and  N_4
REMARK    4  A    between atoms: C_5  and  C_7
REMARK    5  A    between atoms: C_10  and  N_11
REMARK    6  A    between atoms: N_11  and  C_12
REMARK    7  A    between atoms: C_12  and  C_13
REMARK    8  A    between atoms: C_13  and  C_14
REMARK    9  A    between atoms: C_13  and  C_15
REMARK   10  A    between atoms: C_13  and  C_16
REMARK   11  A    between atoms: C_20  and  O_21
REMARK   12  A    between atoms: O_21  and  C_22
REMARK   13  A    between atoms: C_22  and  C_23
REMARK                            x       y       z     vdW  Elec       q    Type
REMARK                         _______ _______ _______ _____ _____    ______ ____
ROOT
ATOM      1  C   UNL     1      45.642   5.561  12.884  0.00  0.00    +0.000 C 
ENDROOT
BRANCH   1   2
ATOM      2  C   UNL     1      44.390   5.552  11.935  0.00  0.00    +0.000 C 
ATOM      3  C   UNL     1      43.117   5.198  12.743  0.00  0.00    +0.000 C 
ATOM      4  C   UNL     1      44.195   6.973  11.347  0.00  0.00    +0.000 C 
BRANCH   2   5
ATOM      5  C   UNL     1      44.571   4.478  10.832  0.00  0.00    +0.000 A 
ATOM      6  C   UNL     1      44.006   3.194  10.929  0.00  0.00    +0.000 A 
ATOM      7  C   UNL     1      44.186   2.242   9.921  0.00  0.00    +0.000 A 
ATOM      8  C   UNL     1      44.923   2.550   8.782  0.00  0.00    +0.000 A 
ATOM      9  C   UNL     1      45.489   3.814   8.651  0.00  0.00    +0.000 A 
ATOM     10  C   UNL     1      45.336   4.753   9.678  0.00  0.00    +0.000 A 
BRANCH   9  11
ATOM     11  O   UNL     1      46.249   4.218   7.585  0.00  0.00    +0.000 OA
BRANCH  11  12
ATOM     12  C   UNL     1      46.148   3.399   6.412  0.00  0.00    +0.000 C 
BRANCH  12  13
ATOM     13  C   UNL     1      47.371   2.501   6.241  0.00  0.00    +0.000 C 
ATOM     14  F   UNL     1      47.112   1.198   6.471  0.00  0.00    +0.000 F 
ATOM     15  F   UNL     1      47.858   2.600   4.979  0.00  0.00    +0.000 F 
ATOM     16  F   UNL     1      48.367   2.874   7.080  0.00  0.00    +0.000 F 
ENDBRANCH  12  13
ENDBRANCH  11  12
ENDBRANCH   9  11
ENDBRANCH   2   5
ENDBRANCH   1   2
BRANCH   1  17
ATOM     17  N   UNL     1      46.037   6.923  13.287  0.00  0.00    +0.000 N 
ATOM     18  H   UNL     1      45.844   7.125  14.260  0.00  0.00    +0.000 HD
BRANCH  17  22
ATOM     19  C   UNL     1      49.933   8.091  12.649  0.00  0.00    +0.000 A 
ATOM     20  C   UNL     1      49.126   7.714  11.586  0.00  0.00    +0.000 A 
ATOM     21  N   UNL     1      47.831   7.324  11.747  0.00  0.00    +0.000 NA
ATOM     22  C   UNL     1      47.359   7.307  13.010  0.00  0.00    +0.000 A 
ATOM     23  C   UNL     1      48.193   7.699  14.070  0.00  0.00    +0.000 A 
ATOM     24  N   UNL     1      49.489   8.089  13.934  0.00  0.00    +0.000 NA
BRANCH  19  26
ATOM     25  N   UNL     1      52.128   7.670  11.706  0.00  0.00    +0.000 N 
ATOM     26  C   UNL     1      51.326   8.557  12.396  0.00  0.00    +0.000 C 
ATOM     27  O   UNL     1      51.703   9.654  12.799  0.00  0.00    +0.000 OA
ATOM     28  H   UNL     1      51.669   6.841  11.334  0.00  0.00    +0.000 HD
BRANCH  25  30
ATOM     29  C   UNL     1      54.463   7.289  12.338  0.00  0.00    +0.000 C 
ATOM     30  C   UNL     1      53.509   7.967  11.360  0.00  0.00    +0.000 C 
ATOM     31  C   UNL     1      53.814   7.547   9.926  0.00  0.00    +0.000 C 
ENDBRANCH  25  30
ENDBRANCH  19  26
ENDBRANCH  17  22
ENDBRANCH   1  17
TORSDOF 9
ENDMDL
MODEL 6
REMARK VINA RESULT:    -6.700      3.903      9.178
REMARK INTER + INTRA:         -11.076
REMARK INTER:                  -9.866
REMARK INTRA:                  -1.209
REMARK UNBOUND:                -0.850
REMARK  Name = 
REMARK  13 active torsions:
REMARK  status: ('A' for Active; 'I' for Inactive)
REMARK    1  A    between atoms: C_1  and  C_2
REMARK    2  A    between atoms: C_2  and  C_3
REMARK    3  A    between atoms: C_2  and  N_4
REMARK    4  A    between atoms: C_5  and  C_7
REMARK    5  A    between atoms: C_10  and  N_11
REMARK    6  A    between atoms: N_11  and  C_12
REMARK    7  A    between atoms: C_12  and  C_13
REMARK    8  A    between atoms: C_13  and  C_14
REMARK    9  A    between atoms: C_13  and  C_15
REMARK   10  A    between atoms: C_13  and  C_16
REMARK   11  A    between atoms: C_20  and  O_21
REMARK   12  A    between atoms: O_21  and  C_22
REMARK   13  A    between atoms: C_22  and  C_23
REMARK                            x       y       z     vdW  Elec       q    Type
REMARK                         _______ _______ _______ _____ _____    ______ ____
ROOT
ATOM      1  C   UNL     1      48.794   7.590  14.380  0.00  0.00    +0.000 C 
ENDROOT
BRANCH   1   2
ATOM      2  C   UNL     1      49.435   8.302  15.626  0.00  0.00    +0.000 C 
ATOM      3  C   UNL     1      50.947   7.976  15.701  0.00  0.00    +0.000 C 
ATOM      4  C   UNL     1      49.290   9.835  15.459  0.00  0.00    +0.000 C 
BRANCH   2   5
ATOM      5  C   UNL     1      48.769   7.786  16.927  0.00  0.00    +0.000 A 
ATOM      6  C   UNL     1      48.104   8.640  17.825  0.00  0.00    +0.000 A 
ATOM      7  C   UNL     1      47.512   8.150  18.994  0.00  0.00    +0.000 A 
ATOM      8  C   UNL     1      47.557   6.791  19.291  0.00  0.00    +0.000 A 
ATOM      9  C   UNL     1      48.200   5.917  18.421  0.00  0.00    +0.000 A 
ATOM     10  C   UNL     1      48.821   6.417  17.269  0.00  0.00    +0.000 A 
BRANCH   9  11
ATOM     11  O   UNL     1      48.322   4.568  18.623  0.00  0.00    +0.000 OA
BRANCH  11  12
ATOM     12  C   UNL     1      49.059   3.860  17.615  0.00  0.00    +0.000 C 
BRANCH  12  13
ATOM     13  C   UNL     1      48.170   2.892  16.838  0.00  0.00    +0.000 C 
ATOM     14  F   UNL     1      48.829   1.801  16.396  0.00  0.00    +0.000 F 
ATOM     15  F   UNL     1      47.149   2.459  17.618  0.00  0.00    +0.000 F 
ATOM     16  F   UNL     1      47.617   3.500  15.762  0.00  0.00    +0.000 F 
ENDBRANCH  12  13
ENDBRANCH  11  12
ENDBRANCH   9  11
ENDBRANCH   2   5
ENDBRANCH   1   2
BRANCH   1  17
ATOM     17  N   UNL     1      47.392   7.989  14.160  0.00  0.00    +0.000 N 
ATOM     18  H   UNL     1      47.286   8.970  13.930  0.00  0.00    +0.000 HD
BRANCH  17  22
ATOM     19  C   UNL     1      45.313   5.628  11.505  0.00  0.00    +0.000 A 
ATOM     20  C   UNL     1      45.258   7.010  11.413  0.00  0.00    +0.000 A 
ATOM     21  N   UNL     1      45.931   7.832  12.265  0.00  0.00    +0.000 NA
ATOM     22  C   UNL     1      46.658   7.235  13.231  0.00  0.00    +0.000 A 
ATOM     23  C   UNL     1      46.704   5.833  13.300  0.00  0.00    +0.000 A 
ATOM     24  N   UNL     1      46.038   4.992  12.463  0.00  0.00    +0.000 NA
BRANCH  19  26
ATOM     25  N   UNL     1      45.387   4.222   9.530  0.00  0.00    +0.000 N 
ATOM     26  C   UNL     1      44.593   4.788  10.507  0.00  0.00    +0.000 C 
ATOM     27  O   UNL     1      43.375   4.642  10.571  0.00  0.00    +0.000 OA
ATOM     28  H   UNL     1      46.392   4.330   9.645  0.00  0.00    +0.000 HD
BRANCH  25  30
ATOM     29  C   UNL     1      45.717   3.443   7.231  0.00  0.00    +0.000 C 
ATOM     30  C   UNL     1      44.853   3.363   8.485  0.00  0.00    +0.000 C 
ATOM     31  C   UNL     1      44.737   1.921   8.971  0.00  0.00    +0.000 C 
ENDBRANCH  25  30
ENDBRANCH  19  26
ENDBRANCH  17  22
ENDBRANCH   1  17
TORSDOF 9
ENDMDL
MODEL 7
REMARK VINA RESULT:    -6.510      4.003      9.010
REMARK INTER + INTRA:         -10.786
REMARK INTER:                  -9.257
REMARK INTRA:                  -1.529
REMARK UNBOUND:                -0.850
REMARK  Name = 
REMARK  13 active torsions:
REMARK  status: ('A' for Active; 'I' for Inactive)
REMARK    1  A    between atoms: C_1  and  C_2
REMARK    2  A    between atoms: C_2  and  C_3
REMARK    3  A    between atoms: C_2  and  N_4
REMARK    4  A    between atoms: C_5  and  C_7
REMARK    5  A    between atoms: C_10  and  N_11
REMARK    6  A    between atoms: N_11  and  C_12
REMARK    7  A    between atoms: C_12  and  C_13
REMARK    8  A    between atoms: C_13  and  C_14
REMARK    9  A    between atoms: C_13  and  C_15
REMARK   10  A    between atoms: C_13  and  C_16
REMARK   11  A    between atoms: C_20  and  O_21
REMARK   12  A    between atoms: O_21  and  C_22
REMARK   13  A    between atoms: C_22  and  C_23
REMARK                            x       y       z     vdW  Elec       q    Type
REMARK                         _______ _______ _______ _____ _____    ______ ____
ROOT
ATOM      1  C   UNL     1      50.059   8.522  14.771  0.00  0.00    +0.000 C 
ENDROOT
BRANCH   1   2
ATOM      2  C   UNL     1      50.668   8.203  16.184  0.00  0.00    +0.000 C 
ATOM      3  C   UNL     1      51.599   6.969  16.092  0.00  0.00    +0.000 C 
ATOM      4  C   UNL     1      51.527   9.409  16.644  0.00  0.00    +0.000 C 
BRANCH   2   5
ATOM      5  C   UNL     1      49.532   7.873  17.186  0.00  0.00    +0.000 A 
ATOM      6  C   UNL     1      48.750   8.870  17.795  0.00  0.00    +0.000 A 
ATOM      7  C   UNL     1      47.731   8.547  18.697  0.00  0.00    +0.000 A 
ATOM      8  C   UNL     1      47.458   7.217  19.006  0.00  0.00    +0.000 A 
ATOM      9  C   UNL     1      48.209   6.206  18.416  0.00  0.00    +0.000 A 
ATOM     10  C   UNL     1      49.251   6.536  17.539  0.00  0.00    +0.000 A 
BRANCH   9  11
ATOM     11  O   UNL     1      48.042   4.869  18.662  0.00  0.00    +0.000 OA
BRANCH  11  12
ATOM     12  C   UNL     1      48.667   3.988  17.717  0.00  0.00    +0.000 C 
BRANCH  12  13
ATOM     13  C   UNL     1      47.637   3.218  16.893  0.00  0.00    +0.000 C 
ATOM     14  F   UNL     1      46.771   4.020  16.240  0.00  0.00    +0.000 F 
ATOM     15  F   UNL     1      48.254   2.448  15.964  0.00  0.00    +0.000 F 
ATOM     16  F   UNL     1      46.911   2.388  17.679  0.00  0.00    +0.000 F 
ENDBRANCH  12  13
ENDBRANCH  11  12
ENDBRANCH   9  11
ENDBRANCH   2   5
ENDBRANCH   1   2
BRANCH   1  17
ATOM     17  N   UNL     1      50.152   7.379  13.844  0.00  0.00    +0.000 N 
ATOM     18  H   UNL     1      50.685   6.602  14.219  0.00  0.00    +0.000 HD
BRANCH  17  22
ATOM     19  C   UNL     1      46.616   6.045  12.211  0.00  0.00    +0.000 A 
ATOM     20  C   UNL     1      47.102   5.496  13.389  0.00  0.00    +0.000 A 
ATOM     21  N   UNL     1      48.263   5.906  13.968  0.00  0.00    +0.000 NA
ATOM     22  C   UNL     1      48.944   6.880  13.332  0.00  0.00    +0.000 A 
ATOM     23  C   UNL     1      48.429   7.426  12.143  0.00  0.00    +0.000 A 
ATOM     24  N   UNL     1      47.274   7.031  11.544  0.00  0.00    +0.000 NA
BRANCH  19  26
ATOM     25  N   UNL     1      45.256   4.250  11.311  0.00  0.00    +0.000 N 
ATOM     26  C   UNL     1      45.311   5.584  11.660  0.00  0.00    +0.000 C 
ATOM     27  O   UNL     1      44.375   6.368  11.525  0.00  0.00    +0.000 OA
ATOM     28  H   UNL     1      46.061   3.682  11.568  0.00  0.00    +0.000 HD
BRANCH  25  30
ATOM     29  C   UNL     1      44.402   2.752   9.571  0.00  0.00    +0.000 C 
ATOM     30  C   UNL     1      44.057   3.629  10.771  0.00  0.00    +0.000 C 
ATOM     31  C   UNL     1      43.333   2.819  11.842  0.00  0.00    +0.000 C 
ENDBRANCH  25  30
ENDBRANCH  19  26
ENDBRANCH  17  22
ENDBRANCH   1  17
TORSDOF 9
ENDMDL
MODEL 8
REMARK VINA RESULT:    -6.180      4.074      9.220
REMARK INTER + INTRA:         -10.282
REMARK INTER:                  -9.121
REMARK INTRA:                  -1.161
REMARK UNBOUND:                -0.850
REMARK  Name = 
REMARK  13 active torsions:
REMARK  status: ('A' for Active; 'I' for Inactive)
REMARK    1  A    between atoms: C_1  and  C_2
REMARK    2  A    between atoms: C_2  and  C_3
REMARK    3  A    between atoms: C_2  and  N_4
REMARK    4  A    between atoms: C_5  and  C_7
REMARK    5  A    between atoms: C_10  and  N_11
REMARK    6  A    between atoms: N_11  and  C_12
REMARK    7  A    between atoms: C_12  and  C_13
REMARK    8  A    between atoms: C_13  and  C_14
REMARK    9  A    between atoms: C_13  and  C_15
REMARK   10  A    between atoms: C_13  and  C_16
REMARK   11  A    between atoms: C_20  and  O_21
REMARK   12  A    between atoms: O_21  and  C_22
REMARK   13  A    between atoms: C_22  and  C_23
REMARK                            x       y       z     vdW  Elec       q    Type
REMARK                         _______ _______ _______ _____ _____    ______ ____
ROOT
ATOM      1  C   UNL     1      48.264   7.965  15.427  0.00  0.00    +0.000 C 
ENDROOT
BRANCH   1   2
ATOM      2  C   UNL     1      49.829   8.104  15.475  0.00  0.00    +0.000 C 
ATOM      3  C   UNL     1      50.411   8.030  14.042  0.00  0.00    +0.000 C 
ATOM      4  C   UNL     1      50.192   9.492  16.061  0.00  0.00    +0.000 C 
BRANCH   2   5
ATOM      5  C   UNL     1      50.436   6.940  16.300  0.00  0.00    +0.000 A 
ATOM      6  C   UNL     1      51.810   6.640  16.283  0.00  0.00    +0.000 A 
ATOM      7  C   UNL     1      52.333   5.584  17.035  0.00  0.00    +0.000 A 
ATOM      8  C   UNL     1      51.501   4.806  17.834  0.00  0.00    +0.000 A 
ATOM      9  C   UNL     1      50.138   5.080  17.879  0.00  0.00    +0.000 A 
ATOM     10  C   UNL     1      49.613   6.117  17.098  0.00  0.00    +0.000 A 
BRANCH   9  11
ATOM     11  O   UNL     1      49.226   4.369  18.613  0.00  0.00    +0.000 OA
BRANCH  11  12
ATOM     12  C   UNL     1      48.838   3.106  18.053  0.00  0.00    +0.000 C 
BRANCH  12  13
ATOM     13  C   UNL     1      47.468   3.180  17.383  0.00  0.00    +0.000 C 
ATOM     14  F   UNL     1      46.827   4.345  17.611  0.00  0.00    +0.000 F 
ATOM     15  F   UNL     1      47.590   3.042  16.040  0.00  0.00    +0.000 F 
ATOM     16  F   UNL     1      46.663   2.180  17.813  0.00  0.00    +0.000 F 
ENDBRANCH  12  13
ENDBRANCH  11  12
ENDBRANCH   9  11
ENDBRANCH   2   5
ENDBRANCH   1   2
BRANCH   1  17
ATOM     17  N   UNL     1      47.678   8.584  14.224  0.00  0.00    +0.000 N 
ATOM     18  H   UNL     1      48.351   9.104  13.673  0.00  0.00    +0.000 HD
BRANCH  17  22
ATOM     19  C   UNL     1      45.475   6.250  11.646  0.00  0.00    +0.000 A 
ATOM     20  C   UNL     1      46.406   5.676  12.498  0.00  0.00    +0.000 A 
ATOM     21  N   UNL     1      47.155   6.406  13.370  0.00  0.00    +0.000 NA
ATOM     22  C   UNL     1      46.960   7.740  13.363  0.00  0.00    +0.000 A 
ATOM     23  C   UNL     1      46.006   8.299  12.496  0.00  0.00    +0.000 A 
ATOM     24  N   UNL     1      45.249   7.591  11.615  0.00  0.00    +0.000 NA
BRANCH  19  26
ATOM     25  N   UNL     1      45.360   4.667   9.813  0.00  0.00    +0.000 N 
ATOM     26  C   UNL     1      44.652   5.386  10.754  0.00  0.00    +0.000 C 
ATOM     27  O   UNL     1      43.429   5.351  10.868  0.00  0.00    +0.000 OA
ATOM     28  H   UNL     1      46.374   4.699   9.888  0.00  0.00    +0.000 HD
BRANCH  25  30
ATOM     29  C   UNL     1      45.549   3.639   7.598  0.00  0.00    +0.000 C 
ATOM     30  C   UNL     1      44.718   3.764   8.871  0.00  0.00    +0.000 C 
ATOM     31  C   UNL     1      44.486   2.394   9.502  0.00  0.00    +0.000 C 
ENDBRANCH  25  30
ENDBRANCH  19  26
ENDBRANCH  17  22
ENDBRANCH   1  17
TORSDOF 9
ENDMDL
MODEL 9
REMARK VINA RESULT:    -6.166      1.881      2.615
REMARK INTER + INTRA:         -10.260
REMARK INTER:                  -9.367
REMARK INTRA:                  -0.893
REMARK UNBOUND:                -0.850
REMARK  Name = 
REMARK  13 active torsions:
REMARK  status: ('A' for Active; 'I' for Inactive)
REMARK    1  A    between atoms: C_1  and  C_2
REMARK    2  A    between atoms: C_2  and  C_3
REMARK    3  A    between atoms: C_2  and  N_4
REMARK    4  A    between atoms: C_5  and  C_7
REMARK    5  A    between atoms: C_10  and  N_11
REMARK    6  A    between atoms: N_11  and  C_12
REMARK    7  A    between atoms: C_12  and  C_13
REMARK    8  A    between atoms: C_13  and  C_14
REMARK    9  A    between atoms: C_13  and  C_15
REMARK   10  A    between atoms: C_13  and  C_16
REMARK   11  A    between atoms: C_20  and  O_21
REMARK   12  A    between atoms: O_21  and  C_22
REMARK   13  A    between atoms: C_22  and  C_23
REMARK                            x       y       z     vdW  Elec       q    Type
REMARK                         _______ _______ _______ _____ _____    ______ ____
ROOT
ATOM      1  C   UNL     1      47.442   5.731  13.027  0.00  0.00    +0.000 C 
ENDROOT
BRANCH   1   2
ATOM      2  C   UNL     1      46.261   6.222  12.116  0.00  0.00    +0.000 C 
ATOM      3  C   UNL     1      45.376   7.228  12.893  0.00  0.00    +0.000 C 
ATOM      4  C   UNL     1      46.848   6.961  10.886  0.00  0.00    +0.000 C 
BRANCH   2   5
ATOM      5  C   UNL     1      45.372   5.018  11.710  0.00  0.00    +0.000 A 
ATOM      6  C   UNL     1      44.562   4.333  12.632  0.00  0.00    +0.000 A 
ATOM      7  C   UNL     1      43.770   3.249  12.241  0.00  0.00    +0.000 A 
ATOM      8  C   UNL     1      43.756   2.827  10.915  0.00  0.00    +0.000 A 
ATOM      9  C   UNL     1      44.541   3.486   9.975  0.00  0.00    +0.000 A 
ATOM     10  C   UNL     1      45.359   4.550  10.377  0.00  0.00    +0.000 A 
BRANCH   9  11
ATOM     11  O   UNL     1      44.621   3.145   8.651  0.00  0.00    +0.000 OA
BRANCH  11  12
ATOM     12  C   UNL     1      45.738   2.315   8.297  0.00  0.00    +0.000 C 
BRANCH  12  13
ATOM     13  C   UNL     1      46.619   2.974   7.238  0.00  0.00    +0.000 C 
ATOM     14  F   UNL     1      47.876   2.485   7.213  0.00  0.00    +0.000 F 
ATOM     15  F   UNL     1      46.090   2.793   6.003  0.00  0.00    +0.000 F 
ATOM     16  F   UNL     1      46.705   4.310   7.442  0.00  0.00    +0.000 F 
ENDBRANCH  12  13
ENDBRANCH  11  12
ENDBRANCH   9  11
ENDBRANCH   2   5
ENDBRANCH   1   2
BRANCH   1  17
ATOM     17  N   UNL     1      47.234   6.060  14.449  0.00  0.00    +0.000 N 
ATOM     18  H   UNL     1      46.543   5.471  14.900  0.00  0.00    +0.000 HD
BRANCH  17  22
ATOM     19  C   UNL     1      50.660   6.301  16.719  0.00  0.00    +0.000 A 
ATOM     20  C   UNL     1      49.654   5.406  17.051  0.00  0.00    +0.000 A 
ATOM     21  N   UNL     1      48.506   5.288  16.330  0.00  0.00    +0.000 NA
ATOM     22  C   UNL     1      48.377   6.102  15.263  0.00  0.00    +0.000 A 
ATOM     23  C   UNL     1      49.412   6.996  14.942  0.00  0.00    +0.000 A 
ATOM     24  N   UNL     1      50.566   7.134  15.649  0.00  0.00    +0.000 NA
BRANCH  19  26
ATOM     25  N   UNL     1      52.954   5.578  17.033  0.00  0.00    +0.000 N 
ATOM     26  C   UNL     1      51.914   6.342  17.523  0.00  0.00    +0.000 C 
ATOM     27  O   UNL     1      51.978   7.009  18.552  0.00  0.00    +0.000 OA
ATOM     28  H   UNL     1      52.813   5.156  16.118  0.00  0.00    +0.000 HD
BRANCH  25  30
ATOM     29  C   UNL     1      54.234   4.491  18.815  0.00  0.00    +0.000 C 
ATOM     30  C   UNL     1      54.253   5.512  17.683  0.00  0.00    +0.000 C 
ATOM     31  C   UNL     1      55.350   5.183  16.675  0.00  0.00    +0.000 C 
ENDBRANCH  25  30
ENDBRANCH  19  26
ENDBRANCH  17  22
ENDBRANCH   1  17
TORSDOF 9
ENDMDL
