MODEL 1
REMARK VINA RESULT:    -9.684      0.000      0.000
REMARK INTER + INTRA:         -13.926
REMARK INTER:                 -13.080
REMARK INTRA:                  -0.846
REMARK UNBOUND:                -0.846
REMARK  Name = 
REMARK  6 active torsions:
REMARK  status: ('A' for Active; 'I' for Inactive)
REMARK    1  A    between atoms: C_2  and  C_4
REMARK    2  A    between atoms: N_8  and  C_9
REMARK    3  A    between atoms: C_9  and  C_10
REMARK    4  A    between atoms: C_10  and  C_13
REMARK    5  A    between atoms: C_18  and  N_19
REMARK    6  A    between atoms: N_19  and  C_20
REMARK                            x       y       z     vdW  Elec       q    Type
REMARK                         _______ _______ _______ _____ _____    ______ ____
ROOT
ATOM      1  C   UNL     1      43.507   5.592  12.113  0.00  0.00    +0.000 C 
ATOM      2  F   UNL     1      43.190   6.766  11.486  0.00  0.00    +0.000 F 
ATOM      3  F   UNL     1      42.625   5.490  13.152  0.00  0.00    +0.000 F 
ENDROOT
BRANCH   1   4
ATOM      4  C   UNL     1      44.941   5.581  12.604  0.00  0.00    +0.000 A 
ATOM      5  C   UNL     1      45.884   6.487  12.106  0.00  0.00    +0.000 A 
ATOM      6  C   UNL     1      47.190   6.457  12.587  0.00  0.00    +0.000 A 
ATOM      7  F   UNL     1      48.077   7.346  12.128  0.00  0.00    +0.000 F 
ATOM      8  C   UNL     1      47.580   5.537  13.554  0.00  0.00    +0.000 A 
ATOM      9  C   UNL     1      46.658   4.620  14.069  0.00  0.00    +0.000 A 
ATOM     10  C   UNL     1      45.342   4.661  13.591  0.00  0.00    +0.000 A 
BRANCH   9  11
ATOM     11  N   UNL     1      47.034   3.806  15.146  0.00  0.00    +0.000 N 
ATOM     12  H   UNL     1      46.576   2.900  15.196  0.00  0.00    +0.000 HD
BRANCH  11  13
ATOM     13  C   UNL     1      47.870   4.153  16.259  0.00  0.00    +0.000 C 
ATOM     14  C   UNL     1      48.372   2.917  17.030  0.00  0.00    +0.000 C 
ATOM     15  N   UNL     1      47.897   3.510  18.292  0.00  0.00    +0.000 NA
ATOM     16  C   UNL     1      47.104   4.506  17.545  0.00  0.00    +0.000 C 
ATOM     17  H   UNL     1      48.646   3.920  18.851  0.00  0.00    +0.000 HD
ENDBRANCH  11  13
ENDBRANCH   9  11
ENDBRANCH   1   4
BRANCH   1  18
ATOM     18  C   UNL     1      43.244   4.428  11.119  0.00  0.00    +0.000 C 
BRANCH  18  23
ATOM     19  C   UNL     1      46.518   2.490   7.677  0.00  0.00    +0.000 A 
ATOM     20  C   UNL     1      45.719   1.833   8.607  0.00  0.00    +0.000 A 
ATOM     21  C   UNL     1      44.793   2.568   9.349  0.00  0.00    +0.000 A 
ATOM     22  C   UNL     1      44.692   3.942   9.161  0.00  0.00    +0.000 A 
ATOM     23  N   UNL     1      43.730   4.722   9.767  0.00  0.00    +0.000 N 
ATOM     24  N   UNL     1      45.493   4.594   8.298  0.00  0.00    +0.000 NA
ATOM     25  C   UNL     1      46.389   3.866   7.579  0.00  0.00    +0.000 A 
ATOM     26  H   UNL     1      43.929   5.703   9.569  0.00  0.00    +0.000 HD
BRANCH  19  28
ATOM     27  N   UNL     1      48.550   2.503   6.353  0.00  0.00    +0.000 N 
ATOM     28  C   UNL     1      47.471   1.788   6.797  0.00  0.00    +0.000 C 
ATOM     29  O   UNL     1      47.332   0.606   6.514  0.00  0.00    +0.000 OA
ATOM     30  H   UNL     1      49.262   1.978   5.860  0.00  0.00    +0.000 HD
ATOM     31  H   UNL     1      48.830   3.377   6.775  0.00  0.00    +0.000 HD
ENDBRANCH  19  28
ENDBRANCH  18  23
ENDBRANCH   1  18
TORSDOF 6
ENDMDL
MODEL 2
REMARK VINA RESULT:    -9.082      2.330      3.329
REMARK INTER + INTRA:         -13.114
REMARK INTER:                 -12.161
REMARK INTRA:                  -0.953
REMARK UNBOUND:                -0.846
REMARK  Name = 
REMARK  6 active torsions:
REMARK  status: ('A' for Active; 'I' for Inactive)
REMARK    1  A    between atoms: C_2  and  C_4
REMARK    2  A    between atoms: N_8  and  C_9
REMARK    3  A    between atoms: C_9  and  C_10
REMARK    4  A    between atoms: C_10  and  C_13
REMARK    5  A    between atoms: C_18  and  N_19
REMARK    6  A    between atoms: N_19  and  C_20
REMARK                            x       y       z     vdW  Elec       q    Type
REMARK                         _______ _______ _______ _____ _____    ______ ____
ROOT
ATOM      1  C   UNL     1      43.477   5.638  12.068  0.00  0.00    +0.000 C 
ATOM      2  F   UNL     1      43.159   6.833  11.484  0.00  0.00    +0.000 F 
ATOM      3  F   UNL     1      42.626   5.520  13.131  0.00  0.00    +0.000 F 
ENDROOT
BRANCH   1   4
ATOM      4  C   UNL     1      44.926   5.593  12.513  0.00  0.00    +0.000 A 
ATOM      5  C   UNL     1      45.391   4.584  13.365  0.00  0.00    +0.000 A 
ATOM      6  C   UNL     1      46.729   4.567  13.745  0.00  0.00    +0.000 A 
ATOM      7  F   UNL     1      47.172   3.582  14.534  0.00  0.00    +0.000 F 
ATOM      8  C   UNL     1      47.618   5.539  13.299  0.00  0.00    +0.000 A 
ATOM      9  C   UNL     1      47.180   6.558  12.447  0.00  0.00    +0.000 A 
ATOM     10  C   UNL     1      45.834   6.567  12.056  0.00  0.00    +0.000 A 
BRANCH   9  11
ATOM     11  N   UNL     1      48.121   7.436  11.893  0.00  0.00    +0.000 N 
ATOM     12  H   UNL     1      48.622   7.090  11.078  0.00  0.00    +0.000 HD
BRANCH  11  13
ATOM     13  C   UNL     1      48.566   8.694  12.420  0.00  0.00    +0.000 C 
ATOM     14  C   UNL     1      47.902   9.038  13.768  0.00  0.00    +0.000 C 
ATOM     15  N   UNL     1      47.519  10.360  13.242  0.00  0.00    +0.000 NA
ATOM     16  C   UNL     1      47.819   9.917  11.866  0.00  0.00    +0.000 C 
ATOM     17  H   UNL     1      48.123  11.114  13.569  0.00  0.00    +0.000 HD
ENDBRANCH  11  13
ENDBRANCH   9  11
ENDBRANCH   1   4
BRANCH   1  18
ATOM     18  C   UNL     1      43.166   4.506  11.051  0.00  0.00    +0.000 C 
BRANCH  18  23
ATOM     19  C   UNL     1      46.505   2.496   7.716  0.00  0.00    +0.000 A 
ATOM     20  C   UNL     1      45.664   1.857   8.621  0.00  0.00    +0.000 A 
ATOM     21  C   UNL     1      44.731   2.612   9.333  0.00  0.00    +0.000 A 
ATOM     22  C   UNL     1      44.664   3.987   9.140  0.00  0.00    +0.000 A 
ATOM     23  N   UNL     1      43.700   4.787   9.714  0.00  0.00    +0.000 N 
ATOM     24  N   UNL     1      45.504   4.621   8.301  0.00  0.00    +0.000 NA
ATOM     25  C   UNL     1      46.408   3.874   7.612  0.00  0.00    +0.000 A 
ATOM     26  H   UNL     1      43.924   5.763   9.522  0.00  0.00    +0.000 HD
BRANCH  19  28
ATOM     27  N   UNL     1      48.617   2.438   6.523  0.00  0.00    +0.000 N 
ATOM     28  C   UNL     1      47.471   1.772   6.867  0.00  0.00    +0.000 C 
ATOM     29  O   UNL     1      47.282   0.613   6.524  0.00  0.00    +0.000 OA
ATOM     30  H   UNL     1      49.327   1.890   6.053  0.00  0.00    +0.000 HD
ATOM     31  H   UNL     1      48.919   3.275   7.000  0.00  0.00    +0.000 HD
ENDBRANCH  19  28
ENDBRANCH  18  23
ENDBRANCH   1  18
TORSDOF 6
ENDMDL
MODEL 3
REMARK VINA RESULT:    -8.662      3.040      4.649
REMARK INTER + INTRA:         -12.547
REMARK INTER:                 -11.800
REMARK INTRA:                  -0.747
REMARK UNBOUND:                -0.846
REMARK  Name = 
REMARK  6 active torsions:
REMARK  status: ('A' for Active; 'I' for Inactive)
REMARK    1  A    between atoms: C_2  and  C_4
REMARK    2  A    between atoms: N_8  and  C_9
REMARK    3  A    between atoms: C_9  and  C_10
REMARK    4  A    between atoms: C_10  and  C_13
REMARK    5  A    between atoms: C_18  and  N_19
REMARK    6  A    between atoms: N_19  and  C_20
REMARK                            x       y       z     vdW  Elec       q    Type
REMARK                         _______ _______ _______ _____ _____    ______ ____
ROOT
ATOM      1  C   UNL     1      44.466   4.381  12.280  0.00  0.00    +0.000 C 
ATOM      2  F   UNL     1      43.818   4.202  13.471  0.00  0.00    +0.000 F 
ATOM      3  F   UNL     1      45.306   3.309  12.164  0.00  0.00    +0.000 F 
ENDROOT
BRANCH   1   4
ATOM      4  C   UNL     1      45.233   5.688  12.242  0.00  0.00    +0.000 A 
ATOM      5  C   UNL     1      46.628   5.707  12.139  0.00  0.00    +0.000 A 
ATOM      6  C   UNL     1      47.299   6.925  12.095  0.00  0.00    +0.000 A 
ATOM      7  F   UNL     1      48.630   6.935  11.965  0.00  0.00    +0.000 F 
ATOM      8  C   UNL     1      46.609   8.131  12.158  0.00  0.00    +0.000 A 
ATOM      9  C   UNL     1      45.214   8.141  12.261  0.00  0.00    +0.000 A 
ATOM     10  C   UNL     1      44.540   6.913  12.293  0.00  0.00    +0.000 A 
BRANCH   9  11
ATOM     11  N   UNL     1      44.532   9.362  12.171  0.00  0.00    +0.000 N 
ATOM     12  H   UNL     1      44.264   9.784  13.057  0.00  0.00    +0.000 HD
BRANCH  11  13
ATOM     13  C   UNL     1      44.040  10.008  10.988  0.00  0.00    +0.000 C 
ATOM     14  C   UNL     1      43.506  11.427  11.268  0.00  0.00    +0.000 C 
ATOM     15  N   UNL     1      42.247  11.089  10.580  0.00  0.00    +0.000 NA
ATOM     16  C   UNL     1      42.589   9.654  10.625  0.00  0.00    +0.000 C 
ATOM     17  H   UNL     1      42.192  11.466   9.633  0.00  0.00    +0.000 HD
ENDBRANCH  11  13
ENDBRANCH   9  11
ENDBRANCH   1   4
BRANCH   1  18
ATOM     18  C   UNL     1      43.412   4.314  11.142  0.00  0.00    +0.000 C 
BRANCH  18  23
ATOM     19  C   UNL     1      46.645   2.757   7.477  0.00  0.00    +0.000 A 
ATOM     20  C   UNL     1      45.795   2.008   8.283  0.00  0.00    +0.000 A 
ATOM     21  C   UNL     1      44.894   2.669   9.121  0.00  0.00    +0.000 A 
ATOM     22  C   UNL     1      44.869   4.058   9.149  0.00  0.00    +0.000 A 
ATOM     23  N   UNL     1      43.939   4.787   9.857  0.00  0.00    +0.000 N 
ATOM     24  N   UNL     1      45.720   4.792   8.406  0.00  0.00    +0.000 NA
ATOM     25  C   UNL     1      46.591   4.136   7.592  0.00  0.00    +0.000 A 
ATOM     26  H   UNL     1      44.192   5.774   9.817  0.00  0.00    +0.000 HD
BRANCH  19  28
ATOM     27  N   UNL     1      47.962   2.919   5.445  0.00  0.00    +0.000 N 
ATOM     28  C   UNL     1      47.577   2.147   6.509  0.00  0.00    +0.000 C 
ATOM     29  O   UNL     1      48.026   1.021   6.671  0.00  0.00    +0.000 OA
ATOM     30  H   UNL     1      48.697   2.541   4.862  0.00  0.00    +0.000 HD
ATOM     31  H   UNL     1      47.826   3.920   5.427  0.00  0.00    +0.000 HD
ENDBRANCH  19  28
ENDBRANCH  18  23
ENDBRANCH   1  18
TORSDOF 6
ENDMDL
MODEL 4
REMARK VINA RESULT:    -8.592      2.360      2.793
REMARK INTER + INTRA:         -12.452
REMARK INTER:                 -11.798
REMARK INTRA:                  -0.654
REMARK UNBOUND:                -0.846
REMARK  Name = 
REMARK  6 active torsions:
REMARK  status: ('A' for Active; 'I' for Inactive)
REMARK    1  A    between atoms: C_2  and  C_4
REMARK    2  A    between atoms: N_8  and  C_9
REMARK    3  A    between atoms: C_9  and  C_10
REMARK    4  A    between atoms: C_10  and  C_13
REMARK    5  A    between atoms: C_18  and  N_19
REMARK    6  A    between atoms: N_19  and  C_20
REMARK                            x       y       z     vdW  Elec       q    Type
REMARK                         _______ _______ _______ _____ _____    ______ ____
ROOT
ATOM      1  C   UNL     1      42.850   5.324  12.170  0.00  0.00    +0.000 C 
ATOM      2  F   UNL     1      41.594   5.641  11.729  0.00  0.00    +0.000 F 
ATOM      3  F   UNL     1      42.682   4.912  13.462  0.00  0.00    +0.000 F 
ENDROOT
BRANCH   1   4
ATOM      4  C   UNL     1      43.795   6.506  12.087  0.00  0.00    +0.000 A 
ATOM      5  C   UNL     1      43.512   7.604  11.266  0.00  0.00    +0.000 A 
ATOM      6  C   UNL     1      44.396   8.677  11.221  0.00  0.00    +0.000 A 
ATOM      7  F   UNL     1      44.103   9.735  10.458  0.00  0.00    +0.000 F 
ATOM      8  C   UNL     1      45.564   8.681  11.977  0.00  0.00    +0.000 A 
ATOM      9  C   UNL     1      45.871   7.597  12.807  0.00  0.00    +0.000 A 
ATOM     10  C   UNL     1      44.973   6.523  12.858  0.00  0.00    +0.000 A 
BRANCH   9  11
ATOM     11  N   UNL     1      46.972   7.688  13.669  0.00  0.00    +0.000 N 
ATOM     12  H   UNL     1      47.062   8.563  14.180  0.00  0.00    +0.000 HD
BRANCH  11  13
ATOM     13  C   UNL     1      48.060   6.763  13.804  0.00  0.00    +0.000 C 
ATOM     14  C   UNL     1      48.895   7.013  15.075  0.00  0.00    +0.000 C 
ATOM     15  N   UNL     1      50.125   7.029  14.265  0.00  0.00    +0.000 NA
ATOM     16  C   UNL     1      49.329   7.154  13.029  0.00  0.00    +0.000 C 
ATOM     17  H   UNL     1      50.657   6.160  14.323  0.00  0.00    +0.000 HD
ENDBRANCH  11  13
ENDBRANCH   9  11
ENDBRANCH   1   4
BRANCH   1  18
ATOM     18  C   UNL     1      43.370   4.128  11.327  0.00  0.00    +0.000 C 
BRANCH  18  23
ATOM     19  C   UNL     1      46.570   2.523   7.653  0.00  0.00    +0.000 A 
ATOM     20  C   UNL     1      45.814   1.781   8.555  0.00  0.00    +0.000 A 
ATOM     21  C   UNL     1      44.898   2.439   9.378  0.00  0.00    +0.000 A 
ATOM     22  C   UNL     1      44.763   3.820   9.296  0.00  0.00    +0.000 A 
ATOM     23  N   UNL     1      43.807   4.531   9.987  0.00  0.00    +0.000 N 
ATOM     24  N   UNL     1      45.523   4.552   8.459  0.00  0.00    +0.000 NA
ATOM     25  C   UNL     1      46.411   3.899   7.661  0.00  0.00    +0.000 A 
ATOM     26  H   UNL     1      43.979   5.528   9.856  0.00  0.00    +0.000 HD
BRANCH  19  28
ATOM     27  N   UNL     1      48.624   2.631   6.367  0.00  0.00    +0.000 N 
ATOM     28  C   UNL     1      47.509   1.908   6.695  0.00  0.00    +0.000 C 
ATOM     29  O   UNL     1      47.326   0.784   6.248  0.00  0.00    +0.000 OA
ATOM     30  H   UNL     1      49.322   2.149   5.814  0.00  0.00    +0.000 HD
ATOM     31  H   UNL     1      48.933   3.425   6.910  0.00  0.00    +0.000 HD
ENDBRANCH  19  28
ENDBRANCH  18  23
ENDBRANCH   1  18
TORSDOF 6
ENDMDL
MODEL 5
REMARK VINA RESULT:    -7.964      2.959      8.031
REMARK INTER + INTRA:         -11.603
REMARK INTER:                 -10.954
REMARK INTRA:                  -0.649
REMARK UNBOUND:                -0.846
REMARK  Name = 
REMARK  6 active torsions:
REMARK  status: ('A' for Active; 'I' for Inactive)
REMARK    1  A    between atoms: C_2  and  C_4
REMARK    2  A    between atoms: N_8  and  C_9
REMARK    3  A    between atoms: C_9  and  C_10
REMARK    4  A    between atoms: C_10  and  C_13
REMARK    5  A    between atoms: C_18  and  N_19
REMARK    6  A    between atoms: N_19  and  C_20
REMARK                            x       y       z     vdW  Elec       q    Type
REMARK                         _______ _______ _______ _____ _____    ______ ____
ROOT
ATOM      1  C   UNL     1      45.801   6.258  11.364  0.00  0.00    +0.000 C 
ATOM      2  F   UNL     1      44.937   7.297  11.149  0.00  0.00    +0.000 F 
ATOM      3  F   UNL     1      47.023   6.721  10.963  0.00  0.00    +0.000 F 
ENDROOT
BRANCH   1   4
ATOM      4  C   UNL     1      45.400   5.018  10.590  0.00  0.00    +0.000 A 
ATOM      5  C   UNL     1      44.574   4.043  11.161  0.00  0.00    +0.000 A 
ATOM      6  C   UNL     1      44.217   2.922  10.418  0.00  0.00    +0.000 A 
ATOM      7  F   UNL     1      43.402   2.010  10.960  0.00  0.00    +0.000 F 
ATOM      8  C   UNL     1      44.670   2.746   9.116  0.00  0.00    +0.000 A 
ATOM      9  C   UNL     1      45.496   3.705   8.520  0.00  0.00    +0.000 A 
ATOM     10  C   UNL     1      45.845   4.838   9.266  0.00  0.00    +0.000 A 
BRANCH   9  11
ATOM     11  N   UNL     1      45.816   3.581   7.162  0.00  0.00    +0.000 N 
ATOM     12  H   UNL     1      45.538   4.359   6.569  0.00  0.00    +0.000 HD
BRANCH  11  13
ATOM     13  C   UNL     1      46.352   2.434   6.487  0.00  0.00    +0.000 C 
ATOM     14  C   UNL     1      47.661   1.929   7.127  0.00  0.00    +0.000 C 
ATOM     15  N   UNL     1      48.315   1.952   5.807  0.00  0.00    +0.000 NA
ATOM     16  C   UNL     1      47.212   2.763   5.256  0.00  0.00    +0.000 C 
ATOM     17  H   UNL     1      48.396   1.028   5.381  0.00  0.00    +0.000 HD
ENDBRANCH  11  13
ENDBRANCH   9  11
ENDBRANCH   1   4
BRANCH   1  18
ATOM     18  C   UNL     1      45.849   5.978  12.891  0.00  0.00    +0.000 C 
BRANCH  18  23
ATOM     19  C   UNL     1      48.511   4.324  16.952  0.00  0.00    +0.000 A 
ATOM     20  C   UNL     1      47.484   3.699  16.252  0.00  0.00    +0.000 A 
ATOM     21  C   UNL     1      47.002   4.287  15.081  0.00  0.00    +0.000 A 
ATOM     22  C   UNL     1      47.541   5.490  14.640  0.00  0.00    +0.000 A 
ATOM     23  N   UNL     1      47.205   6.077  13.439  0.00  0.00    +0.000 N 
ATOM     24  N   UNL     1      48.503   6.126  15.335  0.00  0.00    +0.000 NA
ATOM     25  C   UNL     1      48.966   5.542  16.473  0.00  0.00    +0.000 A 
ATOM     26  H   UNL     1      47.638   6.999  13.391  0.00  0.00    +0.000 HD
BRANCH  19  28
ATOM     27  N   UNL     1      48.292   3.185  19.083  0.00  0.00    +0.000 N 
ATOM     28  C   UNL     1      49.132   3.742  18.157  0.00  0.00    +0.000 C 
ATOM     29  O   UNL     1      50.346   3.715  18.304  0.00  0.00    +0.000 OA
ATOM     30  H   UNL     1      48.733   2.676  19.838  0.00  0.00    +0.000 HD
ATOM     31  H   UNL     1      47.331   2.955  18.871  0.00  0.00    +0.000 HD
ENDBRANCH  19  28
ENDBRANCH  18  23
ENDBRANCH   1  18
TORSDOF 6
ENDMDL
MODEL 6
REMARK VINA RESULT:    -7.102      2.533      2.949
REMARK INTER + INTRA:         -10.439
REMARK INTER:                  -9.510
REMARK INTRA:                  -0.929
REMARK UNBOUND:                -0.846
REMARK  Name = 
REMARK  6 active torsions:
REMARK  status: ('A' for Active; 'I' for Inactive)
REMARK    1  A    between atoms: C_2  and  C_4
REMARK    2  A    between atoms: N_8  and  C_9
REMARK    3  A    between atoms: C_9  and  C_10
REMARK    4  A    between atoms: C_10  and  C_13
REMARK    5  A    between atoms: C_18  and  N_19
REMARK    6  A    between atoms: N_19  and  C_20
REMARK                            x       y       z     vdW  Elec       q    Type
REMARK                         _______ _______ _______ _____ _____    ______ ____
ROOT
ATOM      1  C   UNL     1      44.681   6.562  11.419  0.00  0.00    +0.000 C 
ATOM      2  F   UNL     1      45.242   7.147  10.316  0.00  0.00    +0.000 F 
ATOM      3  F   UNL     1      43.852   7.512  11.946  0.00  0.00    +0.000 F 
ENDROOT
BRANCH   1   4
ATOM      4  C   UNL     1      45.729   6.126  12.424  0.00  0.00    +0.000 A 
ATOM      5  C   UNL     1      45.859   4.784  12.799  0.00  0.00    +0.000 A 
ATOM      6  C   UNL     1      46.839   4.417  13.717  0.00  0.00    +0.000 A 
ATOM      7  F   UNL     1      46.976   3.128  14.046  0.00  0.00    +0.000 F 
ATOM      8  C   UNL     1      47.693   5.361  14.275  0.00  0.00    +0.000 A 
ATOM      9  C   UNL     1      47.586   6.709  13.917  0.00  0.00    +0.000 A 
ATOM     10  C   UNL     1      46.605   7.074  12.985  0.00  0.00    +0.000 A 
BRANCH   9  11
ATOM     11  N   UNL     1      48.550   7.616  14.376  0.00  0.00    +0.000 N 
ATOM     12  H   UNL     1      49.496   7.466  14.035  0.00  0.00    +0.000 HD
BRANCH  11  13
ATOM     13  C   UNL     1      48.394   8.632  15.378  0.00  0.00    +0.000 C 
ATOM     14  C   UNL     1      49.551   9.650  15.374  0.00  0.00    +0.000 C 
ATOM     15  N   UNL     1      49.736   9.446  16.822  0.00  0.00    +0.000 NA
ATOM     16  C   UNL     1      48.897   8.232  16.774  0.00  0.00    +0.000 C 
ATOM     17  H   UNL     1      49.337  10.196  17.388  0.00  0.00    +0.000 HD
ENDBRANCH  11  13
ENDBRANCH   9  11
ENDBRANCH   1   4
BRANCH   1  18
ATOM     18  C   UNL     1      43.823   5.358  10.943  0.00  0.00    +0.000 C 
BRANCH  18  23
ATOM     19  C   UNL     1      46.280   2.004   7.938  0.00  0.00    +0.000 A 
ATOM     20  C   UNL     1      45.712   1.817   9.194  0.00  0.00    +0.000 A 
ATOM     21  C   UNL     1      44.964   2.849   9.763  0.00  0.00    +0.000 A 
ATOM     22  C   UNL     1      44.809   4.049   9.078  0.00  0.00    +0.000 A 
ATOM     23  N   UNL     1      43.997   5.073   9.515  0.00  0.00    +0.000 N 
ATOM     24  N   UNL     1      45.394   4.257   7.883  0.00  0.00    +0.000 NA
ATOM     25  C   UNL     1      46.118   3.243   7.338  0.00  0.00    +0.000 A 
ATOM     26  H   UNL     1      44.136   5.884   8.913  0.00  0.00    +0.000 HD
BRANCH  19  28
ATOM     27  N   UNL     1      46.722  -0.349   7.547  0.00  0.00    +0.000 N 
ATOM     28  C   UNL     1      47.024   0.947   7.227  0.00  0.00    +0.000 C 
ATOM     29  O   UNL     1      47.841   1.212   6.356  0.00  0.00    +0.000 OA
ATOM     30  H   UNL     1      47.142  -1.062   6.965  0.00  0.00    +0.000 HD
ATOM     31  H   UNL     1      45.884  -0.599   8.053  0.00  0.00    +0.000 HD
ENDBRANCH  19  28
ENDBRANCH  18  23
ENDBRANCH   1  18
TORSDOF 6
ENDMDL
MODEL 7
REMARK VINA RESULT:    -6.909      3.537      7.524
REMARK INTER + INTRA:         -10.179
REMARK INTER:                  -9.168
REMARK INTRA:                  -1.010
REMARK UNBOUND:                -0.846
REMARK  Name = 
REMARK  6 active torsions:
REMARK  status: ('A' for Active; 'I' for Inactive)
REMARK    1  A    between atoms: C_2  and  C_4
REMARK    2  A    between atoms: N_8  and  C_9
REMARK    3  A    between atoms: C_9  and  C_10
REMARK    4  A    between atoms: C_10  and  C_13
REMARK    5  A    between atoms: C_18  and  N_19
REMARK    6  A    between atoms: N_19  and  C_20
REMARK                            x       y       z     vdW  Elec       q    Type
REMARK                         _______ _______ _______ _____ _____    ______ ____
ROOT
ATOM      1  C   UNL     1      49.135   8.075  12.314  0.00  0.00    +0.000 C 
ATOM      2  F   UNL     1      49.660   9.031  11.488  0.00  0.00    +0.000 F 
ATOM      3  F   UNL     1      49.784   6.919  11.983  0.00  0.00    +0.000 F 
ENDROOT
BRANCH   1   4
ATOM      4  C   UNL     1      47.635   7.935  12.138  0.00  0.00    +0.000 A 
ATOM      5  C   UNL     1      46.767   8.984  12.460  0.00  0.00    +0.000 A 
ATOM      6  C   UNL     1      45.396   8.825  12.275  0.00  0.00    +0.000 A 
ATOM      7  F   UNL     1      44.576   9.842  12.555  0.00  0.00    +0.000 F 
ATOM      8  C   UNL     1      44.870   7.638  11.778  0.00  0.00    +0.000 A 
ATOM      9  C   UNL     1      45.715   6.573  11.447  0.00  0.00    +0.000 A 
ATOM     10  C   UNL     1      47.095   6.740  11.624  0.00  0.00    +0.000 A 
BRANCH   9  11
ATOM     11  N   UNL     1      45.177   5.447  10.811  0.00  0.00    +0.000 N 
ATOM     12  H   UNL     1      44.929   5.568   9.832  0.00  0.00    +0.000 HD
BRANCH  11  13
ATOM     13  C   UNL     1      44.800   4.198  11.408  0.00  0.00    +0.000 C 
ATOM     14  C   UNL     1      44.013   3.293  10.439  0.00  0.00    +0.000 C 
ATOM     15  N   UNL     1      42.957   3.125  11.454  0.00  0.00    +0.000 NA
ATOM     16  C   UNL     1      43.504   4.252  12.233  0.00  0.00    +0.000 C 
ATOM     17  H   UNL     1      43.006   2.229  11.941  0.00  0.00    +0.000 HD
ENDBRANCH  11  13
ENDBRANCH   9  11
ENDBRANCH   1   4
BRANCH   1  18
ATOM     18  C   UNL     1      49.496   8.450  13.777  0.00  0.00    +0.000 C 
BRANCH  18  23
ATOM     19  C   UNL     1      48.255   4.578  16.905  0.00  0.00    +0.000 A 
ATOM     20  C   UNL     1      47.532   5.134  15.855  0.00  0.00    +0.000 A 
ATOM     21  C   UNL     1      48.138   6.098  15.046  0.00  0.00    +0.000 A 
ATOM     22  C   UNL     1      49.444   6.496  15.308  0.00  0.00    +0.000 A 
ATOM     23  N   UNL     1      50.154   7.353  14.494  0.00  0.00    +0.000 N 
ATOM     24  N   UNL     1      50.136   5.998  16.350  0.00  0.00    +0.000 NA
ATOM     25  C   UNL     1      49.535   5.059  17.129  0.00  0.00    +0.000 A 
ATOM     26  H   UNL     1      51.036   7.585  14.949  0.00  0.00    +0.000 HD
BRANCH  19  28
ATOM     27  N   UNL     1      48.414   3.231  18.916  0.00  0.00    +0.000 N 
ATOM     28  C   UNL     1      47.724   3.504  17.766  0.00  0.00    +0.000 C 
ATOM     29  O   UNL     1      46.688   2.915  17.492  0.00  0.00    +0.000 OA
ATOM     30  H   UNL     1      47.973   2.586  19.559  0.00  0.00    +0.000 HD
ATOM     31  H   UNL     1      49.103   3.864  19.296  0.00  0.00    +0.000 HD
ENDBRANCH  19  28
ENDBRANCH  18  23
ENDBRANCH   1  18
TORSDOF 6
ENDMDL
MODEL 8
REMARK VINA RESULT:    -6.897      3.273      4.413
REMARK INTER + INTRA:         -10.163
REMARK INTER:                  -9.399
REMARK INTRA:                  -0.764
REMARK UNBOUND:                -0.846
REMARK  Name = 
REMARK  6 active torsions:
REMARK  status: ('A' for Active; 'I' for Inactive)
REMARK    1  A    between atoms: C_2  and  C_4
REMARK    2  A    between atoms: N_8  and  C_9
REMARK    3  A    between atoms: C_9  and  C_10
REMARK    4  A    between atoms: C_10  and  C_13
REMARK    5  A    between atoms: C_18  and  N_19
REMARK    6  A    between atoms: N_19  and  C_20
REMARK                            x       y       z     vdW  Elec       q    Type
REMARK                         _______ _______ _______ _____ _____    ______ ____
ROOT
ATOM      1  C   UNL     1      44.412   6.024  12.241  0.00  0.00    +0.000 C 
ATOM      2  F   UNL     1      43.629   5.827  13.345  0.00  0.00    +0.000 F 
ATOM      3  F   UNL     1      45.629   5.493  12.566  0.00  0.00    +0.000 F 
ENDROOT
BRANCH   1   4
ATOM      4  C   UNL     1      44.529   7.492  11.884  0.00  0.00    +0.000 A 
ATOM      5  C   UNL     1      43.567   8.124  11.088  0.00  0.00    +0.000 A 
ATOM      6  C   UNL     1      43.700   9.476  10.789  0.00  0.00    +0.000 A 
ATOM      7  F   UNL     1      42.759  10.079  10.054  0.00  0.00    +0.000 F 
ATOM      8  C   UNL     1      44.777  10.216  11.263  0.00  0.00    +0.000 A 
ATOM      9  C   UNL     1      45.754   9.611  12.061  0.00  0.00    +0.000 A 
ATOM     10  C   UNL     1      45.612   8.252  12.370  0.00  0.00    +0.000 A 
BRANCH   9  11
ATOM     11  N   UNL     1      46.745  10.408  12.648  0.00  0.00    +0.000 N 
ATOM     12  H   UNL     1      46.453  11.339  12.934  0.00  0.00    +0.000 HD
BRANCH  11  13
ATOM     13  C   UNL     1      48.148  10.125  12.757  0.00  0.00    +0.000 C 
ATOM     14  C   UNL     1      48.588   9.862  14.211  0.00  0.00    +0.000 C 
ATOM     15  N   UNL     1      49.665  10.857  14.065  0.00  0.00    +0.000 NA
ATOM     16  C   UNL     1      49.045  11.371  12.829  0.00  0.00    +0.000 C 
ATOM     17  H   UNL     1      50.583  10.437  13.918  0.00  0.00    +0.000 HD
ENDBRANCH  11  13
ENDBRANCH   9  11
ENDBRANCH   1   4
BRANCH   1  18
ATOM     18  C   UNL     1      43.808   5.206  11.068  0.00  0.00    +0.000 C 
BRANCH  18  23
ATOM     19  C   UNL     1      46.518   2.840   7.412  0.00  0.00    +0.000 A 
ATOM     20  C   UNL     1      46.452   4.192   7.729  0.00  0.00    +0.000 A 
ATOM     21  C   UNL     1      45.749   4.591   8.867  0.00  0.00    +0.000 A 
ATOM     22  C   UNL     1      45.116   3.637   9.657  0.00  0.00    +0.000 A 
ATOM     23  N   UNL     1      44.500   3.931  10.854  0.00  0.00    +0.000 N 
ATOM     24  N   UNL     1      45.135   2.331   9.333  0.00  0.00    +0.000 NA
ATOM     25  C   UNL     1      45.826   1.955   8.222  0.00  0.00    +0.000 A 
ATOM     26  H   UNL     1      44.013   3.099  11.187  0.00  0.00    +0.000 HD
BRANCH  19  28
ATOM     27  N   UNL     1      47.245   3.034   5.105  0.00  0.00    +0.000 N 
ATOM     28  C   UNL     1      47.297   2.319   6.272  0.00  0.00    +0.000 C 
ATOM     29  O   UNL     1      47.996   1.321   6.374  0.00  0.00    +0.000 OA
ATOM     30  H   UNL     1      47.881   2.742   4.374  0.00  0.00    +0.000 HD
ATOM     31  H   UNL     1      46.903   3.983   5.068  0.00  0.00    +0.000 HD
ENDBRANCH  19  28
ENDBRANCH  18  23
ENDBRANCH   1  18
TORSDOF 6
ENDMDL
