MODEL 1
REMARK VINA RESULT:    -6.592      0.000      0.000
REMARK INTER + INTRA:          -8.458
REMARK INTER:                  -8.326
REMARK INTRA:                  -0.131
REMARK UNBOUND:                -0.131
REMARK  Name = 
REMARK  8 active torsions:
REMARK  status: ('A' for Active; 'I' for Inactive)
REMARK    1  A    between atoms: C_1  and  C_2
REMARK    2  A    between atoms: C_2  and  C_3
REMARK    3  A    between atoms: C_2  and  C_4
REMARK    4  A    between atoms: C_2  and  C_5
REMARK    5  A    between atoms: N_7  and  C_8
REMARK    6  A    between atoms: C_8  and  C_9
REMARK    7  A    between atoms: C_13  and  C_14
REMARK    8  A    between atoms: C_14  and  N_15
REMARK                            x       y       z     vdW  Elec       q    Type
REMARK                         _______ _______ _______ _____ _____    ______ ____
ROOT
ATOM      1  C   UNL     1      46.212   7.212  12.108  0.00  0.00    +0.000 A 
ATOM      2  C   UNL     1      45.333   6.935  11.073  0.00  0.00    +0.000 A 
ATOM      3  N   UNL     1      45.003   5.601  11.097  0.00  0.00    +0.000 N 
ATOM      4  C   UNL     1      45.660   4.977  12.131  0.00  0.00    +0.000 A 
ATOM      5  C   UNL     1      45.651   3.631  12.537  0.00  0.00    +0.000 A 
ATOM      6  C   UNL     1      46.428   3.262  13.635  0.00  0.00    +0.000 A 
ATOM      7  C   UNL     1      47.192   4.208  14.310  0.00  0.00    +0.000 A 
ATOM      8  C   UNL     1      47.199   5.545  13.896  0.00  0.00    +0.000 A 
ATOM      9  C   UNL     1      46.422   5.955  12.788  0.00  0.00    +0.000 A 
ENDROOT
BRANCH   1  11
ATOM     10  C   UNL     1      48.219   8.739  11.767  0.00  0.00    +0.000 C 
ATOM     11  C   UNL     1      46.817   8.587  12.411  0.00  0.00    +0.000 C 
ATOM     12  C   UNL     1      46.993   8.794  13.928  0.00  0.00    +0.000 C 
ATOM     13  C   UNL     1      45.932   9.713  11.840  0.00  0.00    +0.000 C 
ENDBRANCH   1  11
BRANCH   3  14
ATOM     14  C   UNL     1      44.178   4.956  10.082  0.00  0.00    +0.000 C 
BRANCH  14  15
ATOM     15  C   UNL     1      44.882   3.835   9.359  0.00  0.00    +0.000 A 
ATOM     16  C   UNL     1      44.583   2.507   9.613  0.00  0.00    +0.000 A 
ATOM     17  C   UNL     1      45.189   1.574   8.803  0.00  0.00    +0.000 A 
ATOM     18  N   UNL     1      46.033   1.888   7.807  0.00  0.00    +0.000 NA
ATOM     19  C   UNL     1      46.276   3.203   7.627  0.00  0.00    +0.000 A 
ATOM     20  N   UNL     1      45.732   4.192   8.368  0.00  0.00    +0.000 NA
BRANCH  19  21
ATOM     21  C   UNL     1      47.212   3.589   6.492  0.00  0.00    +0.000 C 
BRANCH  21  22
ATOM     22  N   UNL     1      48.409   2.734   6.396  0.00  0.00    +0.000 NA
ATOM     23  H   UNL     1      49.207   3.351   6.234  0.00  0.00    +0.000 HD
ATOM     24  H   UNL     1      48.324   2.147   5.569  0.00  0.00    +0.000 HD
ENDBRANCH  21  22
ENDBRANCH  19  21
ENDBRANCH  14  15
ENDBRANCH   3  14
TORSDOF 5
ENDMDL
MODEL 2
REMARK VINA RESULT:    -6.550      2.075      3.594
REMARK INTER + INTRA:          -8.404
REMARK INTER:                  -7.758
REMARK INTRA:                  -0.646
REMARK UNBOUND:                -0.131
REMARK  Name = 
REMARK  8 active torsions:
REMARK  status: ('A' for Active; 'I' for Inactive)
REMARK    1  A    between atoms: C_1  and  C_2
REMARK    2  A    between atoms: C_2  and  C_3
REMARK    3  A    between atoms: C_2  and  C_4
REMARK    4  A    between atoms: C_2  and  C_5
REMARK    5  A    between atoms: N_7  and  C_8
REMARK    6  A    between atoms: C_8  and  C_9
REMARK    7  A    between atoms: C_13  and  C_14
REMARK    8  A    between atoms: C_14  and  N_15
REMARK                            x       y       z     vdW  Elec       q    Type
REMARK                         _______ _______ _______ _____ _____    ______ ____
ROOT
ATOM      1  C   UNL     1      48.169   6.705  13.802  0.00  0.00    +0.000 A 
ATOM      2  C   UNL     1      47.377   5.855  13.047  0.00  0.00    +0.000 A 
ATOM      3  N   UNL     1      46.927   4.824  13.836  0.00  0.00    +0.000 N 
ATOM      4  C   UNL     1      47.417   4.968  15.112  0.00  0.00    +0.000 A 
ATOM      5  C   UNL     1      47.246   4.160  16.251  0.00  0.00    +0.000 A 
ATOM      6  C   UNL     1      47.872   4.542  17.438  0.00  0.00    +0.000 A 
ATOM      7  C   UNL     1      48.647   5.695  17.488  0.00  0.00    +0.000 A 
ATOM      8  C   UNL     1      48.816   6.491  16.349  0.00  0.00    +0.000 A 
ATOM      9  C   UNL     1      48.194   6.135  15.129  0.00  0.00    +0.000 A 
ENDROOT
BRANCH   1  11
ATOM     10  C   UNL     1      48.690   8.109  11.745  0.00  0.00    +0.000 C 
ATOM     11  C   UNL     1      48.862   7.968  13.279  0.00  0.00    +0.000 C 
ATOM     12  C   UNL     1      50.376   7.927  13.562  0.00  0.00    +0.000 C 
ATOM     13  C   UNL     1      48.255   9.231  13.921  0.00  0.00    +0.000 C 
ENDBRANCH   1  11
BRANCH   3  14
ATOM     14  C   UNL     1      46.153   3.698  13.329  0.00  0.00    +0.000 C 
BRANCH  14  15
ATOM     15  C   UNL     1      45.003   4.109  12.444  0.00  0.00    +0.000 A 
ATOM     16  C   UNL     1      43.899   4.774  12.951  0.00  0.00    +0.000 A 
ATOM     17  C   UNL     1      42.973   5.218  12.034  0.00  0.00    +0.000 A 
ATOM     18  N   UNL     1      43.092   5.039  10.708  0.00  0.00    +0.000 NA
ATOM     19  C   UNL     1      44.194   4.378  10.295  0.00  0.00    +0.000 A 
ATOM     20  N   UNL     1      45.156   3.904  11.115  0.00  0.00    +0.000 NA
BRANCH  19  21
ATOM     21  C   UNL     1      44.364   4.179   8.797  0.00  0.00    +0.000 C 
BRANCH  21  22
ATOM     22  N   UNL     1      45.562   4.837   8.245  0.00  0.00    +0.000 NA
ATOM     23  H   UNL     1      45.576   5.792   8.611  0.00  0.00    +0.000 HD
ATOM     24  H   UNL     1      45.455   4.916   7.236  0.00  0.00    +0.000 HD
ENDBRANCH  21  22
ENDBRANCH  19  21
ENDBRANCH  14  15
ENDBRANCH   3  14
TORSDOF 5
ENDMDL
MODEL 3
REMARK VINA RESULT:    -6.511      1.777      3.783
REMARK INTER + INTRA:          -8.355
REMARK INTER:                  -7.727
REMARK INTRA:                  -0.627
REMARK UNBOUND:                -0.131
REMARK  Name = 
REMARK  8 active torsions:
REMARK  status: ('A' for Active; 'I' for Inactive)
REMARK    1  A    between atoms: C_1  and  C_2
REMARK    2  A    between atoms: C_2  and  C_3
REMARK    3  A    between atoms: C_2  and  C_4
REMARK    4  A    between atoms: C_2  and  C_5
REMARK    5  A    between atoms: N_7  and  C_8
REMARK    6  A    between atoms: C_8  and  C_9
REMARK    7  A    between atoms: C_13  and  C_14
REMARK    8  A    between atoms: C_14  and  N_15
REMARK                            x       y       z     vdW  Elec       q    Type
REMARK                         _______ _______ _______ _____ _____    ______ ____
ROOT
ATOM      1  C   UNL     1      46.468   7.865  12.438  0.00  0.00    +0.000 A 
ATOM      2  C   UNL     1      45.629   6.779  12.243  0.00  0.00    +0.000 A 
ATOM      3  N   UNL     1      44.477   7.195  11.620  0.00  0.00    +0.000 N 
ATOM      4  C   UNL     1      44.529   8.552  11.404  0.00  0.00    +0.000 A 
ATOM      5  C   UNL     1      43.588   9.419  10.820  0.00  0.00    +0.000 A 
ATOM      6  C   UNL     1      43.900  10.776  10.730  0.00  0.00    +0.000 A 
ATOM      7  C   UNL     1      45.114  11.255  11.209  0.00  0.00    +0.000 A 
ATOM      8  C   UNL     1      46.043  10.386  11.794  0.00  0.00    +0.000 A 
ATOM      9  C   UNL     1      45.761   9.004  11.899  0.00  0.00    +0.000 A 
ENDROOT
BRANCH   1  11
ATOM     10  C   UNL     1      48.180   6.375  13.589  0.00  0.00    +0.000 C 
ATOM     11  C   UNL     1      47.844   7.811  13.109  0.00  0.00    +0.000 C 
ATOM     12  C   UNL     1      47.893   8.725  14.349  0.00  0.00    +0.000 C 
ATOM     13  C   UNL     1      48.952   8.228  12.121  0.00  0.00    +0.000 C 
ENDBRANCH   1  11
BRANCH   3  14
ATOM     14  C   UNL     1      43.340   6.321  11.359  0.00  0.00    +0.000 C 
BRANCH  14  15
ATOM     15  C   UNL     1      43.736   4.938  10.906  0.00  0.00    +0.000 A 
ATOM     16  C   UNL     1      43.400   3.812  11.637  0.00  0.00    +0.000 A 
ATOM     17  C   UNL     1      43.696   2.595  11.064  0.00  0.00    +0.000 A 
ATOM     18  N   UNL     1      44.280   2.460   9.862  0.00  0.00    +0.000 NA
ATOM     19  C   UNL     1      44.581   3.606   9.216  0.00  0.00    +0.000 A 
ATOM     20  N   UNL     1      44.331   4.844   9.694  0.00  0.00    +0.000 NA
BRANCH  19  21
ATOM     21  C   UNL     1      45.224   3.482   7.843  0.00  0.00    +0.000 C 
BRANCH  21  22
ATOM     22  N   UNL     1      46.355   4.403   7.634  0.00  0.00    +0.000 NA
ATOM     23  H   UNL     1      47.173   3.980   8.077  0.00  0.00    +0.000 HD
ATOM     24  H   UNL     1      46.169   5.268   8.138  0.00  0.00    +0.000 HD
ENDBRANCH  21  22
ENDBRANCH  19  21
ENDBRANCH  14  15
ENDBRANCH   3  14
TORSDOF 5
ENDMDL
MODEL 4
REMARK VINA RESULT:    -6.432      3.343      7.249
REMARK INTER + INTRA:          -8.255
REMARK INTER:                  -7.644
REMARK INTRA:                  -0.611
REMARK UNBOUND:                -0.131
REMARK  Name = 
REMARK  8 active torsions:
REMARK  status: ('A' for Active; 'I' for Inactive)
REMARK    1  A    between atoms: C_1  and  C_2
REMARK    2  A    between atoms: C_2  and  C_3
REMARK    3  A    between atoms: C_2  and  C_4
REMARK    4  A    between atoms: C_2  and  C_5
REMARK    5  A    between atoms: N_7  and  C_8
REMARK    6  A    between atoms: C_8  and  C_9
REMARK    7  A    between atoms: C_13  and  C_14
REMARK    8  A    between atoms: C_14  and  N_15
REMARK                            x       y       z     vdW  Elec       q    Type
REMARK                         _______ _______ _______ _____ _____    ______ ____
ROOT
ATOM      1  C   UNL     1      45.415   5.735  12.414  0.00  0.00    +0.000 A 
ATOM      2  C   UNL     1      46.601   5.442  13.068  0.00  0.00    +0.000 A 
ATOM      3  N   UNL     1      47.314   6.599  13.267  0.00  0.00    +0.000 N 
ATOM      4  C   UNL     1      46.624   7.666  12.743  0.00  0.00    +0.000 A 
ATOM      5  C   UNL     1      46.958   9.032  12.692  0.00  0.00    +0.000 A 
ATOM      6  C   UNL     1      46.062   9.913  12.086  0.00  0.00    +0.000 A 
ATOM      7  C   UNL     1      44.868   9.448  11.546  0.00  0.00    +0.000 A 
ATOM      8  C   UNL     1      44.546   8.086  11.596  0.00  0.00    +0.000 A 
ATOM      9  C   UNL     1      45.430   7.164  12.205  0.00  0.00    +0.000 A 
ENDROOT
BRANCH   1  11
ATOM     10  C   UNL     1      44.015   4.818  10.497  0.00  0.00    +0.000 C 
ATOM     11  C   UNL     1      44.351   4.710  12.007  0.00  0.00    +0.000 C 
ATOM     12  C   UNL     1      43.037   4.938  12.780  0.00  0.00    +0.000 C 
ATOM     13  C   UNL     1      44.850   3.274  12.258  0.00  0.00    +0.000 C 
ENDBRANCH   1  11
BRANCH   3  14
ATOM     14  C   UNL     1      48.656   6.633  13.837  0.00  0.00    +0.000 C 
BRANCH  14  15
ATOM     15  C   UNL     1      48.671   6.548  15.343  0.00  0.00    +0.000 A 
ATOM     16  C   UNL     1      48.812   7.677  16.131  0.00  0.00    +0.000 A 
ATOM     17  C   UNL     1      48.678   7.500  17.490  0.00  0.00    +0.000 A 
ATOM     18  N   UNL     1      48.425   6.313  18.065  0.00  0.00    +0.000 NA
ATOM     19  C   UNL     1      48.306   5.261  17.228  0.00  0.00    +0.000 A 
ATOM     20  N   UNL     1      48.421   5.333  15.884  0.00  0.00    +0.000 NA
BRANCH  19  21
ATOM     21  C   UNL     1      47.998   3.908  17.851  0.00  0.00    +0.000 C 
BRANCH  21  22
ATOM     22  N   UNL     1      46.695   3.353  17.445  0.00  0.00    +0.000 NA
ATOM     23  H   UNL     1      46.454   2.626  18.122  0.00  0.00    +0.000 HD
ATOM     24  H   UNL     1      46.804   2.888  16.547  0.00  0.00    +0.000 HD
ENDBRANCH  21  22
ENDBRANCH  19  21
ENDBRANCH  14  15
ENDBRANCH   3  14
TORSDOF 5
ENDMDL
MODEL 5
REMARK VINA RESULT:    -6.359      2.404      6.224
REMARK INTER + INTRA:          -8.163
REMARK INTER:                  -7.514
REMARK INTRA:                  -0.650
REMARK UNBOUND:                -0.131
REMARK  Name = 
REMARK  8 active torsions:
REMARK  status: ('A' for Active; 'I' for Inactive)
REMARK    1  A    between atoms: C_1  and  C_2
REMARK    2  A    between atoms: C_2  and  C_3
REMARK    3  A    between atoms: C_2  and  C_4
REMARK    4  A    between atoms: C_2  and  C_5
REMARK    5  A    between atoms: N_7  and  C_8
REMARK    6  A    between atoms: C_8  and  C_9
REMARK    7  A    between atoms: C_13  and  C_14
REMARK    8  A    between atoms: C_14  and  N_15
REMARK                            x       y       z     vdW  Elec       q    Type
REMARK                         _______ _______ _______ _____ _____    ______ ____
ROOT
ATOM      1  C   UNL     1      45.513   4.265   9.436  0.00  0.00    +0.000 A 
ATOM      2  C   UNL     1      46.108   5.496   9.664  0.00  0.00    +0.000 A 
ATOM      3  N   UNL     1      45.769   5.944  10.918  0.00  0.00    +0.000 N 
ATOM      4  C   UNL     1      44.944   5.031  11.531  0.00  0.00    +0.000 A 
ATOM      5  C   UNL     1      44.334   5.061  12.798  0.00  0.00    +0.000 A 
ATOM      6  C   UNL     1      43.526   3.987  13.172  0.00  0.00    +0.000 A 
ATOM      7  C   UNL     1      43.331   2.915  12.309  0.00  0.00    +0.000 A 
ATOM      8  C   UNL     1      43.938   2.896  11.047  0.00  0.00    +0.000 A 
ATOM      9  C   UNL     1      44.765   3.967  10.636  0.00  0.00    +0.000 A 
ENDROOT
BRANCH   1  11
ATOM     10  C   UNL     1      45.984   1.962   8.461  0.00  0.00    +0.000 C 
ATOM     11  C   UNL     1      45.644   3.443   8.150  0.00  0.00    +0.000 C 
ATOM     12  C   UNL     1      46.777   3.988   7.257  0.00  0.00    +0.000 C 
ATOM     13  C   UNL     1      44.321   3.448   7.359  0.00  0.00    +0.000 C 
ENDBRANCH   1  11
BRANCH   3  14
ATOM     14  C   UNL     1      46.145   7.255  11.435  0.00  0.00    +0.000 C 
BRANCH  14  15
ATOM     15  C   UNL     1      47.477   7.262  12.142  0.00  0.00    +0.000 A 
ATOM     16  C   UNL     1      48.606   7.807  11.555  0.00  0.00    +0.000 A 
ATOM     17  C   UNL     1      49.735   7.880  12.341  0.00  0.00    +0.000 A 
ATOM     18  N   UNL     1      49.783   7.457  13.615  0.00  0.00    +0.000 NA
ATOM     19  C   UNL     1      48.642   6.935  14.112  0.00  0.00    +0.000 A 
ATOM     20  N   UNL     1      47.487   6.820  13.422  0.00  0.00    +0.000 NA
BRANCH  19  21
ATOM     21  C   UNL     1      48.664   6.468  15.559  0.00  0.00    +0.000 C 
BRANCH  21  22
ATOM     22  N   UNL     1      47.900   5.229  15.792  0.00  0.00    +0.000 NA
ATOM     23  H   UNL     1      47.756   5.150  16.801  0.00  0.00    +0.000 HD
ATOM     24  H   UNL     1      48.475   4.435  15.519  0.00  0.00    +0.000 HD
ENDBRANCH  21  22
ENDBRANCH  19  21
ENDBRANCH  14  15
ENDBRANCH   3  14
TORSDOF 5
ENDMDL
MODEL 6
REMARK VINA RESULT:    -6.259      3.972      6.728
REMARK INTER + INTRA:          -8.036
REMARK INTER:                  -7.536
REMARK INTRA:                  -0.500
REMARK UNBOUND:                -0.131
REMARK  Name = 
REMARK  8 active torsions:
REMARK  status: ('A' for Active; 'I' for Inactive)
REMARK    1  A    between atoms: C_1  and  C_2
REMARK    2  A    between atoms: C_2  and  C_3
REMARK    3  A    between atoms: C_2  and  C_4
REMARK    4  A    between atoms: C_2  and  C_5
REMARK    5  A    between atoms: N_7  and  C_8
REMARK    6  A    between atoms: C_8  and  C_9
REMARK    7  A    between atoms: C_13  and  C_14
REMARK    8  A    between atoms: C_14  and  N_15
REMARK                            x       y       z     vdW  Elec       q    Type
REMARK                         _______ _______ _______ _____ _____    ______ ____
ROOT
ATOM      1  C   UNL     1      47.800   6.770  13.233  0.00  0.00    +0.000 A 
ATOM      2  C   UNL     1      47.931   6.065  14.419  0.00  0.00    +0.000 A 
ATOM      3  N   UNL     1      47.113   4.962  14.390  0.00  0.00    +0.000 N 
ATOM      4  C   UNL     1      46.425   4.924  13.200  0.00  0.00    +0.000 A 
ATOM      5  C   UNL     1      45.471   4.005  12.728  0.00  0.00    +0.000 A 
ATOM      6  C   UNL     1      44.917   4.211  11.464  0.00  0.00    +0.000 A 
ATOM      7  C   UNL     1      45.302   5.303  10.694  0.00  0.00    +0.000 A 
ATOM      8  C   UNL     1      46.249   6.217  11.175  0.00  0.00    +0.000 A 
ATOM      9  C   UNL     1      46.832   6.037  12.450  0.00  0.00    +0.000 A 
ENDROOT
BRANCH   1  11
ATOM     10  C   UNL     1      49.439   8.531  14.061  0.00  0.00    +0.000 C 
ATOM     11  C   UNL     1      48.543   8.064  12.885  0.00  0.00    +0.000 C 
ATOM     12  C   UNL     1      47.554   9.209  12.588  0.00  0.00    +0.000 C 
ATOM     13  C   UNL     1      49.466   7.856  11.668  0.00  0.00    +0.000 C 
ENDBRANCH   1  11
BRANCH   3  14
ATOM     14  C   UNL     1      46.933   4.061  15.522  0.00  0.00    +0.000 C 
BRANCH  14  15
ATOM     15  C   UNL     1      47.959   4.252  16.611  0.00  0.00    +0.000 A 
ATOM     16  C   UNL     1      47.720   5.079  17.695  0.00  0.00    +0.000 A 
ATOM     17  C   UNL     1      48.669   5.075  18.693  0.00  0.00    +0.000 A 
ATOM     18  N   UNL     1      49.783   4.325  18.659  0.00  0.00    +0.000 NA
ATOM     19  C   UNL     1      49.944   3.550  17.566  0.00  0.00    +0.000 A 
ATOM     20  N   UNL     1      49.072   3.485  16.537  0.00  0.00    +0.000 NA
BRANCH  19  21
ATOM     21  C   UNL     1      51.186   2.675  17.511  0.00  0.00    +0.000 C 
BRANCH  21  22
ATOM     22  N   UNL     1      50.924   1.304  17.038  0.00  0.00    +0.000 NA
ATOM     23  H   UNL     1      50.125   1.353  16.404  0.00  0.00    +0.000 HD
ATOM     24  H   UNL     1      50.630   0.737  17.831  0.00  0.00    +0.000 HD
ENDBRANCH  21  22
ENDBRANCH  19  21
ENDBRANCH  14  15
ENDBRANCH   3  14
TORSDOF 5
ENDMDL
MODEL 7
REMARK VINA RESULT:    -5.917      2.593      5.925
REMARK INTER + INTRA:          -7.605
REMARK INTER:                  -6.940
REMARK INTRA:                  -0.664
REMARK UNBOUND:                -0.131
REMARK  Name = 
REMARK  8 active torsions:
REMARK  status: ('A' for Active; 'I' for Inactive)
REMARK    1  A    between atoms: C_1  and  C_2
REMARK    2  A    between atoms: C_2  and  C_3
REMARK    3  A    between atoms: C_2  and  C_4
REMARK    4  A    between atoms: C_2  and  C_5
REMARK    5  A    between atoms: N_7  and  C_8
REMARK    6  A    between atoms: C_8  and  C_9
REMARK    7  A    between atoms: C_13  and  C_14
REMARK    8  A    between atoms: C_14  and  N_15
REMARK                            x       y       z     vdW  Elec       q    Type
REMARK                         _______ _______ _______ _____ _____    ______ ____
ROOT
ATOM      1  C   UNL     1      45.446   4.232   9.418  0.00  0.00    +0.000 A 
ATOM      2  C   UNL     1      46.011   5.478   9.637  0.00  0.00    +0.000 A 
ATOM      3  N   UNL     1      45.648   5.935  10.881  0.00  0.00    +0.000 N 
ATOM      4  C   UNL     1      44.836   5.012  11.497  0.00  0.00    +0.000 A 
ATOM      5  C   UNL     1      44.210   5.044  12.756  0.00  0.00    +0.000 A 
ATOM      6  C   UNL     1      43.422   3.957  13.135  0.00  0.00    +0.000 A 
ATOM      7  C   UNL     1      43.261   2.870  12.283  0.00  0.00    +0.000 A 
ATOM      8  C   UNL     1      43.882   2.849  11.029  0.00  0.00    +0.000 A 
ATOM      9  C   UNL     1      44.691   3.933  10.613  0.00  0.00    +0.000 A 
ENDROOT
BRANCH   1  11
ATOM     10  C   UNL     1      46.737   3.963   7.242  0.00  0.00    +0.000 C 
ATOM     11  C   UNL     1      45.611   3.396   8.145  0.00  0.00    +0.000 C 
ATOM     12  C   UNL     1      44.316   3.401   7.308  0.00  0.00    +0.000 C 
ATOM     13  C   UNL     1      45.994   1.944   8.488  0.00  0.00    +0.000 C 
ENDBRANCH   1  11
BRANCH   3  14
ATOM     14  C   UNL     1      45.989   7.260  11.386  0.00  0.00    +0.000 C 
BRANCH  14  15
ATOM     15  C   UNL     1      47.261   7.286  12.195  0.00  0.00    +0.000 A 
ATOM     16  C   UNL     1      47.292   6.862  13.512  0.00  0.00    +0.000 A 
ATOM     17  C   UNL     1      48.530   6.803  14.112  0.00  0.00    +0.000 A 
ATOM     18  N   UNL     1      49.675   7.131  13.490  0.00  0.00    +0.000 NA
ATOM     19  C   UNL     1      49.559   7.539  12.209  0.00  0.00    +0.000 A 
ATOM     20  N   UNL     1      48.392   7.630  11.535  0.00  0.00    +0.000 NA
BRANCH  19  21
ATOM     21  C   UNL     1      50.842   7.896  11.474  0.00  0.00    +0.000 C 
BRANCH  21  22
ATOM     22  N   UNL     1      51.261   9.297  11.661  0.00  0.00    +0.000 NA
ATOM     23  H   UNL     1      51.145   9.767  10.761  0.00  0.00    +0.000 HD
ATOM     24  H   UNL     1      52.256   9.314  11.871  0.00  0.00    +0.000 HD
ENDBRANCH  21  22
ENDBRANCH  19  21
ENDBRANCH  14  15
ENDBRANCH   3  14
TORSDOF 5
ENDMDL
MODEL 8
REMARK VINA RESULT:    -5.838      4.075      7.383
REMARK INTER + INTRA:          -7.504
REMARK INTER:                  -6.973
REMARK INTRA:                  -0.531
REMARK UNBOUND:                -0.131
REMARK  Name = 
REMARK  8 active torsions:
REMARK  status: ('A' for Active; 'I' for Inactive)
REMARK    1  A    between atoms: C_1  and  C_2
REMARK    2  A    between atoms: C_2  and  C_3
REMARK    3  A    between atoms: C_2  and  C_4
REMARK    4  A    between atoms: C_2  and  C_5
REMARK    5  A    between atoms: N_7  and  C_8
REMARK    6  A    between atoms: C_8  and  C_9
REMARK    7  A    between atoms: C_13  and  C_14
REMARK    8  A    between atoms: C_14  and  N_15
REMARK                            x       y       z     vdW  Elec       q    Type
REMARK                         _______ _______ _______ _____ _____    ______ ____
ROOT
ATOM      1  C   UNL     1      46.879   6.558  13.245  0.00  0.00    +0.000 A 
ATOM      2  C   UNL     1      47.703   6.110  14.265  0.00  0.00    +0.000 A 
ATOM      3  N   UNL     1      48.506   7.140  14.692  0.00  0.00    +0.000 N 
ATOM      4  C   UNL     1      48.238   8.273  13.961  0.00  0.00    +0.000 A 
ATOM      5  C   UNL     1      48.813   9.555  14.023  0.00  0.00    +0.000 A 
ATOM      6  C   UNL     1      48.349  10.535  13.145  0.00  0.00    +0.000 A 
ATOM      7  C   UNL     1      47.341  10.246  12.232  0.00  0.00    +0.000 A 
ATOM      8  C   UNL     1      46.779   8.965  12.173  0.00  0.00    +0.000 A 
ATOM      9  C   UNL     1      47.223   7.948  13.049  0.00  0.00    +0.000 A 
ENDROOT
BRANCH   1  11
ATOM     10  C   UNL     1      46.035   5.802  10.966  0.00  0.00    +0.000 C 
ATOM     11  C   UNL     1      45.845   5.705  12.502  0.00  0.00    +0.000 C 
ATOM     12  C   UNL     1      44.411   6.179  12.810  0.00  0.00    +0.000 C 
ATOM     13  C   UNL     1      45.986   4.219  12.883  0.00  0.00    +0.000 C 
ENDBRANCH   1  11
BRANCH   3  14
ATOM     14  C   UNL     1      49.562   6.981  15.685  0.00  0.00    +0.000 C 
BRANCH  14  15
ATOM     15  C   UNL     1      49.231   5.974  16.758  0.00  0.00    +0.000 A 
ATOM     16  C   UNL     1      48.288   6.240  17.736  0.00  0.00    +0.000 A 
ATOM     17  C   UNL     1      47.969   5.202  18.583  0.00  0.00    +0.000 A 
ATOM     18  N   UNL     1      48.519   3.979  18.501  0.00  0.00    +0.000 NA
ATOM     19  C   UNL     1      49.433   3.803  17.524  0.00  0.00    +0.000 A 
ATOM     20  N   UNL     1      49.812   4.757  16.647  0.00  0.00    +0.000 NA
BRANCH  19  21
ATOM     21  C   UNL     1      50.057   2.421  17.397  0.00  0.00    +0.000 C 
BRANCH  21  22
ATOM     22  N   UNL     1      49.650   1.699  16.178  0.00  0.00    +0.000 NA
ATOM     23  H   UNL     1      48.779   2.123  15.854  0.00  0.00    +0.000 HD
ATOM     24  H   UNL     1      49.429   0.738  16.427  0.00  0.00    +0.000 HD
ENDBRANCH  21  22
ENDBRANCH  19  21
ENDBRANCH  14  15
ENDBRANCH   3  14
TORSDOF 5
ENDMDL
MODEL 9
REMARK VINA RESULT:    -5.716      3.599      7.080
REMARK INTER + INTRA:          -7.351
REMARK INTER:                  -7.009
REMARK INTRA:                  -0.342
REMARK UNBOUND:                -0.131
REMARK  Name = 
REMARK  8 active torsions:
REMARK  status: ('A' for Active; 'I' for Inactive)
REMARK    1  A    between atoms: C_1  and  C_2
REMARK    2  A    between atoms: C_2  and  C_3
REMARK    3  A    between atoms: C_2  and  C_4
REMARK    4  A    between atoms: C_2  and  C_5
REMARK    5  A    between atoms: N_7  and  C_8
REMARK    6  A    between atoms: C_8  and  C_9
REMARK    7  A    between atoms: C_13  and  C_14
REMARK    8  A    between atoms: C_14  and  N_15
REMARK                            x       y       z     vdW  Elec       q    Type
REMARK                         _______ _______ _______ _____ _____    ______ ____
ROOT
ATOM      1  C   UNL     1      45.048   4.593  12.346  0.00  0.00    +0.000 A 
ATOM      2  C   UNL     1      45.638   3.707  13.234  0.00  0.00    +0.000 A 
ATOM      3  N   UNL     1      46.718   4.308  13.833  0.00  0.00    +0.000 N 
ATOM      4  C   UNL     1      46.867   5.586  13.350  0.00  0.00    +0.000 A 
ATOM      5  C   UNL     1      47.828   6.568  13.649  0.00  0.00    +0.000 A 
ATOM      6  C   UNL     1      47.747   7.799  12.996  0.00  0.00    +0.000 A 
ATOM      7  C   UNL     1      46.737   8.044  12.073  0.00  0.00    +0.000 A 
ATOM      8  C   UNL     1      45.787   7.058  11.777  0.00  0.00    +0.000 A 
ATOM      9  C   UNL     1      45.838   5.800  12.421  0.00  0.00    +0.000 A 
ENDROOT
BRANCH   1  11
ATOM     10  C   UNL     1      44.162   4.390   9.970  0.00  0.00    +0.000 C 
ATOM     11  C   UNL     1      43.821   4.292  11.479  0.00  0.00    +0.000 C 
ATOM     12  C   UNL     1      42.688   5.302  11.752  0.00  0.00    +0.000 C 
ATOM     13  C   UNL     1      43.306   2.863  11.735  0.00  0.00    +0.000 C 
ENDBRANCH   1  11
BRANCH   3  14
ATOM     14  C   UNL     1      47.623   3.618  14.745  0.00  0.00    +0.000 C 
BRANCH  14  15
ATOM     15  C   UNL     1      47.821   4.340  16.055  0.00  0.00    +0.000 A 
ATOM     16  C   UNL     1      46.885   4.266  17.072  0.00  0.00    +0.000 A 
ATOM     17  C   UNL     1      47.230   4.853  18.270  0.00  0.00    +0.000 A 
ATOM     18  N   UNL     1      48.400   5.475  18.484  0.00  0.00    +0.000 NA
ATOM     19  C   UNL     1      49.255   5.508  17.441  0.00  0.00    +0.000 A 
ATOM     20  N   UNL     1      49.009   4.964  16.230  0.00  0.00    +0.000 NA
BRANCH  19  21
ATOM     21  C   UNL     1      50.597   6.189  17.663  0.00  0.00    +0.000 C 
BRANCH  21  22
ATOM     22  N   UNL     1      51.585   5.909  16.605  0.00  0.00    +0.000 NA
ATOM     23  H   UNL     1      52.141   5.111  16.917  0.00  0.00    +0.000 HD
ATOM     24  H   UNL     1      52.224   6.698  16.539  0.00  0.00    +0.000 HD
ENDBRANCH  21  22
ENDBRANCH  19  21
ENDBRANCH  14  15
ENDBRANCH   3  14
TORSDOF 5
ENDMDL
