MODEL 1
REMARK VINA RESULT:    -7.538      0.000      0.000
REMARK INTER + INTRA:          -9.712
REMARK INTER:                  -9.301
REMARK INTRA:                  -0.412
REMARK UNBOUND:                -0.412
REMARK  Name = 
REMARK  6 active torsions:
REMARK  status: ('A' for Active; 'I' for Inactive)
REMARK    1  A    between atoms: C_1  and  O_2
REMARK    2  A    between atoms: O_2  and  C_3
REMARK    3  A    between atoms: C_5  and  C_6
REMARK    4  A    between atoms: N_13  and  C_14
REMARK    5  A    between atoms: C_14  and  C_15
REMARK    6  A    between atoms: C_18  and  C_19
REMARK                            x       y       z     vdW  Elec       q    Type
REMARK                         _______ _______ _______ _____ _____    ______ ____
ROOT
ATOM      1  C   UNL     1      45.459   4.230  13.189  0.00  0.00    +0.000 A 
ATOM      2  C   UNL     1      46.179   4.048  14.381  0.00  0.00    +0.000 A 
ATOM      3  C   UNL     1      47.243   4.873  14.751  0.00  0.00    +0.000 A 
ATOM      4  C   UNL     1      47.660   5.879  13.874  0.00  0.00    +0.000 A 
ATOM      5  C   UNL     1      47.005   6.047  12.635  0.00  0.00    +0.000 A 
ATOM      6  C   UNL     1      47.240   6.931  11.547  0.00  0.00    +0.000 A 
ATOM      7  C   UNL     1      46.302   6.663  10.584  0.00  0.00    +0.000 A 
ATOM      8  N   UNL     1      45.479   5.656  11.046  0.00  0.00    +0.000 N 
ATOM      9  C   UNL     1      45.904   5.234  12.302  0.00  0.00    +0.000 A 
ENDROOT
BRANCH   3  10
ATOM     10  C   UNL     1      47.849   4.638  16.093  0.00  0.00    +0.000 C 
ATOM     11  N   UNL     1      47.526   5.474  17.121  0.00  0.00    +0.000 N 
ATOM     12  O   UNL     1      48.603   3.688  16.299  0.00  0.00    +0.000 OA
ATOM     13  H   UNL     1      46.877   6.243  17.063  0.00  0.00    +0.000 HD
ATOM     14  H   UNL     1      47.903   5.240  18.030  0.00  0.00    +0.000 HD
ENDBRANCH   3  10
BRANCH   1  16
ATOM     15  C   UNL     1      43.103   4.059  13.214  0.00  0.00    +0.000 C 
ATOM     16  O   UNL     1      44.358   3.462  12.874  0.00  0.00    +0.000 OA
ENDBRANCH   1  16
BRANCH   8  17
ATOM     17  C   UNL     1      44.468   5.045  10.193  0.00  0.00    +0.000 C 
BRANCH  17  18
ATOM     18  C   UNL     1      45.013   4.052   9.189  0.00  0.00    +0.000 A 
ATOM     19  C   UNL     1      44.947   2.685   9.437  0.00  0.00    +0.000 A 
ATOM     20  C   UNL     1      45.721   1.818   8.668  0.00  0.00    +0.000 A 
ATOM     21  C   UNL     1      46.544   2.329   7.667  0.00  0.00    +0.000 A 
ATOM     22  C   UNL     1      47.520   1.464   6.933  0.00  0.00    +0.000 C 
ATOM     23  C   UNL     1      46.452   3.688   7.403  0.00  0.00    +0.000 A 
ATOM     24  N   UNL     1      45.721   4.555   8.141  0.00  0.00    +0.000 NA
ENDBRANCH  17  18
ENDBRANCH   8  17
TORSDOF 4
ENDMDL
MODEL 2
REMARK VINA RESULT:    -7.254      2.135      2.881
REMARK INTER + INTRA:          -9.363
REMARK INTER:                  -8.830
REMARK INTRA:                  -0.533
REMARK UNBOUND:                -0.412
REMARK  Name = 
REMARK  6 active torsions:
REMARK  status: ('A' for Active; 'I' for Inactive)
REMARK    1  A    between atoms: C_1  and  O_2
REMARK    2  A    between atoms: O_2  and  C_3
REMARK    3  A    between atoms: C_5  and  C_6
REMARK    4  A    between atoms: N_13  and  C_14
REMARK    5  A    between atoms: C_14  and  C_15
REMARK    6  A    between atoms: C_18  and  C_19
REMARK                            x       y       z     vdW  Elec       q    Type
REMARK                         _______ _______ _______ _____ _____    ______ ____
ROOT
ATOM      1  C   UNL     1      45.950   6.929  12.155  0.00  0.00    +0.000 A 
ATOM      2  C   UNL     1      46.643   7.867  12.938  0.00  0.00    +0.000 A 
ATOM      3  C   UNL     1      47.517   7.494  13.960  0.00  0.00    +0.000 A 
ATOM      4  C   UNL     1      47.662   6.138  14.271  0.00  0.00    +0.000 A 
ATOM      5  C   UNL     1      46.928   5.170  13.552  0.00  0.00    +0.000 A 
ATOM      6  C   UNL     1      46.836   3.758  13.679  0.00  0.00    +0.000 A 
ATOM      7  C   UNL     1      45.967   3.310  12.718  0.00  0.00    +0.000 A 
ATOM      8  N   UNL     1      45.530   4.395  11.985  0.00  0.00    +0.000 N 
ATOM      9  C   UNL     1      46.087   5.565  12.493  0.00  0.00    +0.000 A 
ENDROOT
BRANCH   3  10
ATOM     10  C   UNL     1      48.272   8.586  14.640  0.00  0.00    +0.000 C 
ATOM     11  N   UNL     1      47.675   9.267  15.659  0.00  0.00    +0.000 N 
ATOM     12  O   UNL     1      49.428   8.860  14.323  0.00  0.00    +0.000 OA
ATOM     13  H   UNL     1      46.755   9.078  16.025  0.00  0.00    +0.000 HD
ATOM     14  H   UNL     1      48.243   9.953  16.139  0.00  0.00    +0.000 HD
ENDBRANCH   3  10
BRANCH   1  16
ATOM     15  C   UNL     1      44.491   8.562  11.268  0.00  0.00    +0.000 C 
ATOM     16  O   UNL     1      45.154   7.306  11.094  0.00  0.00    +0.000 OA
ENDBRANCH   1  16
BRANCH   8  17
ATOM     17  C   UNL     1      44.484   4.265  10.979  0.00  0.00    +0.000 C 
BRANCH  17  18
ATOM     18  C   UNL     1      44.961   3.730   9.647  0.00  0.00    +0.000 A 
ATOM     19  C   UNL     1      45.037   2.360   9.419  0.00  0.00    +0.000 A 
ATOM     20  C   UNL     1      45.762   1.894   8.324  0.00  0.00    +0.000 A 
ATOM     21  C   UNL     1      46.396   2.800   7.477  0.00  0.00    +0.000 A 
ATOM     22  C   UNL     1      47.325   2.349   6.395  0.00  0.00    +0.000 C 
ATOM     23  C   UNL     1      46.162   4.149   7.703  0.00  0.00    +0.000 A 
ATOM     24  N   UNL     1      45.475   4.631   8.765  0.00  0.00    +0.000 NA
ENDBRANCH  17  18
ENDBRANCH   8  17
TORSDOF 4
ENDMDL
MODEL 3
REMARK VINA RESULT:    -6.860      2.147      2.752
REMARK INTER + INTRA:          -8.876
REMARK INTER:                  -8.540
REMARK INTRA:                  -0.337
REMARK UNBOUND:                -0.412
REMARK  Name = 
REMARK  6 active torsions:
REMARK  status: ('A' for Active; 'I' for Inactive)
REMARK    1  A    between atoms: C_1  and  O_2
REMARK    2  A    between atoms: O_2  and  C_3
REMARK    3  A    between atoms: C_5  and  C_6
REMARK    4  A    between atoms: N_13  and  C_14
REMARK    5  A    between atoms: C_14  and  C_15
REMARK    6  A    between atoms: C_18  and  C_19
REMARK                            x       y       z     vdW  Elec       q    Type
REMARK                         _______ _______ _______ _____ _____    ______ ____
ROOT
ATOM      1  C   UNL     1      46.300   5.339  12.769  0.00  0.00    +0.000 A 
ATOM      2  C   UNL     1      47.137   6.331  13.305  0.00  0.00    +0.000 A 
ATOM      3  C   UNL     1      46.794   7.685  13.306  0.00  0.00    +0.000 A 
ATOM      4  C   UNL     1      45.605   8.086  12.689  0.00  0.00    +0.000 A 
ATOM      5  C   UNL     1      44.772   7.124  12.078  0.00  0.00    +0.000 A 
ATOM      6  C   UNL     1      43.558   7.242  11.349  0.00  0.00    +0.000 A 
ATOM      7  C   UNL     1      43.174   5.981  10.974  0.00  0.00    +0.000 A 
ATOM      8  N   UNL     1      44.097   5.080  11.463  0.00  0.00    +0.000 N 
ATOM      9  C   UNL     1      45.114   5.758  12.129  0.00  0.00    +0.000 A 
ENDROOT
BRANCH   3  10
ATOM     10  C   UNL     1      47.723   8.619  14.004  0.00  0.00    +0.000 C 
ATOM     11  N   UNL     1      47.398   9.067  15.251  0.00  0.00    +0.000 N 
ATOM     12  O   UNL     1      48.788   8.965  13.496  0.00  0.00    +0.000 OA
ATOM     13  H   UNL     1      46.577   8.797  15.770  0.00  0.00    +0.000 HD
ATOM     14  H   UNL     1      48.085   9.643  15.718  0.00  0.00    +0.000 HD
ENDBRANCH   3  10
BRANCH   1  16
ATOM     15  C   UNL     1      47.092   3.576  14.128  0.00  0.00    +0.000 C 
ATOM     16  O   UNL     1      46.611   3.998  12.848  0.00  0.00    +0.000 OA
ENDBRANCH   1  16
BRANCH   8  17
ATOM     17  C   UNL     1      44.046   3.667  11.111  0.00  0.00    +0.000 C 
BRANCH  17  18
ATOM     18  C   UNL     1      44.682   3.332   9.779  0.00  0.00    +0.000 A 
ATOM     19  C   UNL     1      44.927   2.009   9.424  0.00  0.00    +0.000 A 
ATOM     20  C   UNL     1      45.783   1.742   8.357  0.00  0.00    +0.000 A 
ATOM     21  C   UNL     1      46.375   2.795   7.663  0.00  0.00    +0.000 A 
ATOM     22  C   UNL     1      47.429   2.562   6.629  0.00  0.00    +0.000 C 
ATOM     23  C   UNL     1      45.975   4.080   8.001  0.00  0.00    +0.000 A 
ATOM     24  N   UNL     1      45.159   4.371   9.041  0.00  0.00    +0.000 NA
ENDBRANCH  17  18
ENDBRANCH   8  17
TORSDOF 4
ENDMDL
MODEL 4
REMARK VINA RESULT:    -6.362      2.913      6.051
REMARK INTER + INTRA:          -8.262
REMARK INTER:                  -7.663
REMARK INTRA:                  -0.599
REMARK UNBOUND:                -0.412
REMARK  Name = 
REMARK  6 active torsions:
REMARK  status: ('A' for Active; 'I' for Inactive)
REMARK    1  A    between atoms: C_1  and  O_2
REMARK    2  A    between atoms: O_2  and  C_3
REMARK    3  A    between atoms: C_5  and  C_6
REMARK    4  A    between atoms: N_13  and  C_14
REMARK    5  A    between atoms: C_14  and  C_15
REMARK    6  A    between atoms: C_18  and  C_19
REMARK                            x       y       z     vdW  Elec       q    Type
REMARK                         _______ _______ _______ _____ _____    ______ ____
ROOT
ATOM      1  C   UNL     1      46.340   5.054  12.850  0.00  0.00    +0.000 A 
ATOM      2  C   UNL     1      45.593   3.951  12.405  0.00  0.00    +0.000 A 
ATOM      3  C   UNL     1      44.518   4.076  11.523  0.00  0.00    +0.000 A 
ATOM      4  C   UNL     1      44.117   5.353  11.117  0.00  0.00    +0.000 A 
ATOM      5  C   UNL     1      44.799   6.490  11.599  0.00  0.00    +0.000 A 
ATOM      6  C   UNL     1      44.587   7.881  11.404  0.00  0.00    +0.000 A 
ATOM      7  C   UNL     1      45.548   8.553  12.114  0.00  0.00    +0.000 A 
ATOM      8  N   UNL     1      46.363   7.625  12.729  0.00  0.00    +0.000 N 
ATOM      9  C   UNL     1      45.911   6.338  12.451  0.00  0.00    +0.000 A 
ENDROOT
BRANCH   3  10
ATOM     10  C   UNL     1      43.883   2.815  11.044  0.00  0.00    +0.000 C 
ATOM     11  N   UNL     1      44.398   2.189   9.948  0.00  0.00    +0.000 N 
ATOM     12  O   UNL     1      42.930   2.312  11.637  0.00  0.00    +0.000 OA
ATOM     13  H   UNL     1      45.208   2.493   9.431  0.00  0.00    +0.000 HD
ATOM     14  H   UNL     1      43.983   1.302   9.696  0.00  0.00    +0.000 HD
ENDBRANCH   3  10
BRANCH   1  16
ATOM     15  C   UNL     1      47.164   4.469  14.985  0.00  0.00    +0.000 C 
ATOM     16  O   UNL     1      47.450   4.910  13.655  0.00  0.00    +0.000 OA
ENDBRANCH   1  16
BRANCH   8  17
ATOM     17  C   UNL     1      47.396   8.025  13.676  0.00  0.00    +0.000 C 
BRANCH  17  18
ATOM     18  C   UNL     1      48.733   8.346  13.044  0.00  0.00    +0.000 A 
ATOM     19  C   UNL     1      49.098   7.774  11.829  0.00  0.00    +0.000 A 
ATOM     20  C   UNL     1      50.432   7.830  11.428  0.00  0.00    +0.000 A 
ATOM     21  C   UNL     1      51.374   8.456  12.241  0.00  0.00    +0.000 A 
ATOM     22  C   UNL     1      52.838   8.393  11.941  0.00  0.00    +0.000 C 
ATOM     23  C   UNL     1      50.901   9.111  13.369  0.00  0.00    +0.000 A 
ATOM     24  N   UNL     1      49.617   9.061  13.792  0.00  0.00    +0.000 NA
ENDBRANCH  17  18
ENDBRANCH   8  17
TORSDOF 4
ENDMDL
MODEL 5
REMARK VINA RESULT:    -6.238      1.310      2.498
REMARK INTER + INTRA:          -8.108
REMARK INTER:                  -7.588
REMARK INTRA:                  -0.521
REMARK UNBOUND:                -0.412
REMARK  Name = 
REMARK  6 active torsions:
REMARK  status: ('A' for Active; 'I' for Inactive)
REMARK    1  A    between atoms: C_1  and  O_2
REMARK    2  A    between atoms: O_2  and  C_3
REMARK    3  A    between atoms: C_5  and  C_6
REMARK    4  A    between atoms: N_13  and  C_14
REMARK    5  A    between atoms: C_14  and  C_15
REMARK    6  A    between atoms: C_18  and  C_19
REMARK                            x       y       z     vdW  Elec       q    Type
REMARK                         _______ _______ _______ _____ _____    ______ ____
ROOT
ATOM      1  C   UNL     1      46.597   5.710  12.143  0.00  0.00    +0.000 A 
ATOM      2  C   UNL     1      47.316   5.937  13.328  0.00  0.00    +0.000 A 
ATOM      3  C   UNL     1      47.034   5.265  14.519  0.00  0.00    +0.000 A 
ATOM      4  C   UNL     1      45.952   4.382  14.562  0.00  0.00    +0.000 A 
ATOM      5  C   UNL     1      45.162   4.181  13.409  0.00  0.00    +0.000 A 
ATOM      6  C   UNL     1      43.997   3.402  13.178  0.00  0.00    +0.000 A 
ATOM      7  C   UNL     1      43.635   3.574  11.867  0.00  0.00    +0.000 A 
ATOM      8  N   UNL     1      44.548   4.419  11.270  0.00  0.00    +0.000 N 
ATOM      9  C   UNL     1      45.492   4.834  12.205  0.00  0.00    +0.000 A 
ENDROOT
BRANCH   3  10
ATOM     10  C   UNL     1      47.945   5.519  15.672  0.00  0.00    +0.000 C 
ATOM     11  N   UNL     1      47.553   5.139  16.921  0.00  0.00    +0.000 N 
ATOM     12  O   UNL     1      49.053   6.030  15.514  0.00  0.00    +0.000 OA
ATOM     13  H   UNL     1      46.691   4.665  17.142  0.00  0.00    +0.000 HD
ATOM     14  H   UNL     1      48.226   5.266  17.665  0.00  0.00    +0.000 HD
ENDBRANCH   3  10
BRANCH   1  16
ATOM     15  C   UNL     1      47.915   7.354  11.074  0.00  0.00    +0.000 C 
ATOM     16  O   UNL     1      46.936   6.318  10.952  0.00  0.00    +0.000 OA
ENDBRANCH   1  16
BRANCH   8  17
ATOM     17  C   UNL     1      44.357   4.913   9.913  0.00  0.00    +0.000 C 
BRANCH  17  18
ATOM     18  C   UNL     1      45.062   4.100   8.848  0.00  0.00    +0.000 A 
ATOM     19  C   UNL     1      44.946   2.714   8.821  0.00  0.00    +0.000 A 
ATOM     20  C   UNL     1      45.836   1.975   8.044  0.00  0.00    +0.000 A 
ATOM     21  C   UNL     1      46.822   2.629   7.309  0.00  0.00    +0.000 A 
ATOM     22  C   UNL     1      47.905   1.878   6.601  0.00  0.00    +0.000 C 
ATOM     23  C   UNL     1      46.784   4.016   7.292  0.00  0.00    +0.000 A 
ATOM     24  N   UNL     1      45.942   4.760   8.046  0.00  0.00    +0.000 NA
ENDBRANCH  17  18
ENDBRANCH   8  17
TORSDOF 4
ENDMDL
MODEL 6
REMARK VINA RESULT:    -6.109      2.024      2.535
REMARK INTER + INTRA:          -7.949
REMARK INTER:                  -7.469
REMARK INTRA:                  -0.481
REMARK UNBOUND:                -0.412
REMARK  Name = 
REMARK  6 active torsions:
REMARK  status: ('A' for Active; 'I' for Inactive)
REMARK    1  A    between atoms: C_1  and  O_2
REMARK    2  A    between atoms: O_2  and  C_3
REMARK    3  A    between atoms: C_5  and  C_6
REMARK    4  A    between atoms: N_13  and  C_14
REMARK    5  A    between atoms: C_14  and  C_15
REMARK    6  A    between atoms: C_18  and  C_19
REMARK                            x       y       z     vdW  Elec       q    Type
REMARK                         _______ _______ _______ _____ _____    ______ ____
ROOT
ATOM      1  C   UNL     1      46.395   5.591  13.572  0.00  0.00    +0.000 A 
ATOM      2  C   UNL     1      47.536   5.873  14.340  0.00  0.00    +0.000 A 
ATOM      3  C   UNL     1      48.052   7.164  14.475  0.00  0.00    +0.000 A 
ATOM      4  C   UNL     1      47.458   8.212  13.766  0.00  0.00    +0.000 A 
ATOM      5  C   UNL     1      46.351   7.954  12.928  0.00  0.00    +0.000 A 
ATOM      6  C   UNL     1      45.593   8.794  12.068  0.00  0.00    +0.000 A 
ATOM      7  C   UNL     1      44.624   8.022  11.482  0.00  0.00    +0.000 A 
ATOM      8  N   UNL     1      44.741   6.734  11.965  0.00  0.00    +0.000 N 
ATOM      9  C   UNL     1      45.817   6.653  12.843  0.00  0.00    +0.000 A 
ENDROOT
BRANCH   3  10
ATOM     10  C   UNL     1      49.203   7.340  15.408  0.00  0.00    +0.000 C 
ATOM     11  N   UNL     1      50.471   7.303  14.908  0.00  0.00    +0.000 N 
ATOM     12  O   UNL     1      49.030   7.551  16.607  0.00  0.00    +0.000 OA
ATOM     13  H   UNL     1      50.710   7.191  13.935  0.00  0.00    +0.000 HD
ATOM     14  H   UNL     1      51.220   7.495  15.560  0.00  0.00    +0.000 HD
ENDBRANCH   3  10
BRANCH   1  16
ATOM     15  C   UNL     1      46.805   3.268  13.449  0.00  0.00    +0.000 C 
ATOM     16  O   UNL     1      45.846   4.328  13.512  0.00  0.00    +0.000 OA
ENDBRANCH   1  16
BRANCH   8  17
ATOM     17  C   UNL     1      43.943   5.641  11.424  0.00  0.00    +0.000 C 
BRANCH  17  18
ATOM     18  C   UNL     1      44.659   4.795  10.394  0.00  0.00    +0.000 A 
ATOM     19  C   UNL     1      45.684   5.333   9.623  0.00  0.00    +0.000 A 
ATOM     20  C   UNL     1      46.108   4.648   8.485  0.00  0.00    +0.000 A 
ATOM     21  C   UNL     1      45.505   3.441   8.140  0.00  0.00    +0.000 A 
ATOM     22  C   UNL     1      45.801   2.757   6.843  0.00  0.00    +0.000 C 
ATOM     23  C   UNL     1      44.583   2.915   9.033  0.00  0.00    +0.000 A 
ATOM     24  N   UNL     1      44.142   3.563  10.136  0.00  0.00    +0.000 NA
ENDBRANCH  17  18
ENDBRANCH   8  17
TORSDOF 4
ENDMDL
MODEL 7
REMARK VINA RESULT:    -5.966      3.406      7.188
REMARK INTER + INTRA:          -7.773
REMARK INTER:                  -7.182
REMARK INTRA:                  -0.591
REMARK UNBOUND:                -0.412
REMARK  Name = 
REMARK  6 active torsions:
REMARK  status: ('A' for Active; 'I' for Inactive)
REMARK    1  A    between atoms: C_1  and  O_2
REMARK    2  A    between atoms: O_2  and  C_3
REMARK    3  A    between atoms: C_5  and  C_6
REMARK    4  A    between atoms: N_13  and  C_14
REMARK    5  A    between atoms: C_14  and  C_15
REMARK    6  A    between atoms: C_18  and  C_19
REMARK                            x       y       z     vdW  Elec       q    Type
REMARK                         _______ _______ _______ _____ _____    ______ ____
ROOT
ATOM      1  C   UNL     1      46.713   5.728  12.831  0.00  0.00    +0.000 A 
ATOM      2  C   UNL     1      45.438   5.362  12.369  0.00  0.00    +0.000 A 
ATOM      3  C   UNL     1      44.566   6.273  11.770  0.00  0.00    +0.000 A 
ATOM      4  C   UNL     1      44.938   7.618  11.686  0.00  0.00    +0.000 A 
ATOM      5  C   UNL     1      46.183   8.036  12.204  0.00  0.00    +0.000 A 
ATOM      6  C   UNL     1      46.791   9.316  12.303  0.00  0.00    +0.000 A 
ATOM      7  C   UNL     1      48.014   9.150  12.900  0.00  0.00    +0.000 A 
ATOM      8  N   UNL     1      48.195   7.807  13.158  0.00  0.00    +0.000 N 
ATOM      9  C   UNL     1      47.068   7.092  12.762  0.00  0.00    +0.000 A 
ENDROOT
BRANCH   3  10
ATOM     10  C   UNL     1      43.288   5.730  11.225  0.00  0.00    +0.000 C 
ATOM     11  N   UNL     1      42.107   6.165  11.749  0.00  0.00    +0.000 N 
ATOM     12  O   UNL     1      43.278   4.928  10.292  0.00  0.00    +0.000 OA
ATOM     13  H   UNL     1      42.013   6.859  12.474  0.00  0.00    +0.000 HD
ATOM     14  H   UNL     1      41.263   5.826  11.306  0.00  0.00    +0.000 HD
ENDBRANCH   3  10
BRANCH   1  16
ATOM     15  C   UNL     1      47.002   3.827  14.204  0.00  0.00    +0.000 C 
ATOM     16  O   UNL     1      47.598   4.804  13.346  0.00  0.00    +0.000 OA
ENDBRANCH   1  16
BRANCH   8  17
ATOM     17  C   UNL     1      49.339   7.323  13.919  0.00  0.00    +0.000 C 
BRANCH  17  18
ATOM     18  C   UNL     1      49.077   7.155  15.401  0.00  0.00    +0.000 A 
ATOM     19  C   UNL     1      48.714   8.245  16.185  0.00  0.00    +0.000 A 
ATOM     20  C   UNL     1      48.786   8.136  17.572  0.00  0.00    +0.000 A 
ATOM     21  C   UNL     1      49.214   6.943  18.152  0.00  0.00    +0.000 A 
ATOM     22  C   UNL     1      49.473   6.831  19.620  0.00  0.00    +0.000 C 
ATOM     23  C   UNL     1      49.432   5.869  17.302  0.00  0.00    +0.000 A 
ATOM     24  N   UNL     1      49.385   5.949  15.952  0.00  0.00    +0.000 NA
ENDBRANCH  17  18
ENDBRANCH   8  17
TORSDOF 4
ENDMDL
MODEL 8
REMARK VINA RESULT:    -5.789      2.984      7.502
REMARK INTER + INTRA:          -7.555
REMARK INTER:                  -7.046
REMARK INTRA:                  -0.509
REMARK UNBOUND:                -0.412
REMARK  Name = 
REMARK  6 active torsions:
REMARK  status: ('A' for Active; 'I' for Inactive)
REMARK    1  A    between atoms: C_1  and  O_2
REMARK    2  A    between atoms: O_2  and  C_3
REMARK    3  A    between atoms: C_5  and  C_6
REMARK    4  A    between atoms: N_13  and  C_14
REMARK    5  A    between atoms: C_14  and  C_15
REMARK    6  A    between atoms: C_18  and  C_19
REMARK                            x       y       z     vdW  Elec       q    Type
REMARK                         _______ _______ _______ _____ _____    ______ ____
ROOT
ATOM      1  C   UNL     1      47.316   5.173  14.317  0.00  0.00    +0.000 A 
ATOM      2  C   UNL     1      46.167   4.518  13.846  0.00  0.00    +0.000 A 
ATOM      3  C   UNL     1      45.596   4.800  12.604  0.00  0.00    +0.000 A 
ATOM      4  C   UNL     1      46.141   5.822  11.821  0.00  0.00    +0.000 A 
ATOM      5  C   UNL     1      47.255   6.550  12.292  0.00  0.00    +0.000 A 
ATOM      6  C   UNL     1      47.971   7.651  11.749  0.00  0.00    +0.000 A 
ATOM      7  C   UNL     1      48.970   7.972  12.631  0.00  0.00    +0.000 A 
ATOM      8  N   UNL     1      48.912   7.095  13.694  0.00  0.00    +0.000 N 
ATOM      9  C   UNL     1      47.844   6.219  13.528  0.00  0.00    +0.000 A 
ENDROOT
BRANCH   3  10
ATOM     10  C   UNL     1      44.443   3.954  12.180  0.00  0.00    +0.000 C 
ATOM     11  N   UNL     1      44.486   2.612  12.414  0.00  0.00    +0.000 N 
ATOM     12  O   UNL     1      43.444   4.446  11.657  0.00  0.00    +0.000 OA
ATOM     13  H   UNL     1      45.234   2.127  12.884  0.00  0.00    +0.000 HD
ATOM     14  H   UNL     1      43.657   2.084  12.175  0.00  0.00    +0.000 HD
ENDBRANCH   3  10
BRANCH   1  16
ATOM     15  C   UNL     1      47.139   3.964  16.339  0.00  0.00    +0.000 C 
ATOM     16  O   UNL     1      47.920   4.829  15.509  0.00  0.00    +0.000 OA
ENDBRANCH   1  16
BRANCH   8  17
ATOM     17  C   UNL     1      49.754   7.265  14.871  0.00  0.00    +0.000 C 
BRANCH  17  18
ATOM     18  C   UNL     1      49.045   7.865  16.066  0.00  0.00    +0.000 A 
ATOM     19  C   UNL     1      48.332   9.053  15.944  0.00  0.00    +0.000 A 
ATOM     20  C   UNL     1      47.960   9.741  17.098  0.00  0.00    +0.000 A 
ATOM     21  C   UNL     1      48.302   9.231  18.349  0.00  0.00    +0.000 A 
ATOM     22  C   UNL     1      48.079  10.013  19.604  0.00  0.00    +0.000 C 
ATOM     23  C   UNL     1      48.897   7.978  18.381  0.00  0.00    +0.000 A 
ATOM     24  N   UNL     1      49.283   7.295  17.279  0.00  0.00    +0.000 NA
ENDBRANCH  17  18
ENDBRANCH   8  17
TORSDOF 4
ENDMDL
MODEL 9
REMARK VINA RESULT:    -5.705      3.125      6.422
REMARK INTER + INTRA:          -7.451
REMARK INTER:                  -6.851
REMARK INTRA:                  -0.600
REMARK UNBOUND:                -0.412
REMARK  Name = 
REMARK  6 active torsions:
REMARK  status: ('A' for Active; 'I' for Inactive)
REMARK    1  A    between atoms: C_1  and  O_2
REMARK    2  A    between atoms: O_2  and  C_3
REMARK    3  A    between atoms: C_5  and  C_6
REMARK    4  A    between atoms: N_13  and  C_14
REMARK    5  A    between atoms: C_14  and  C_15
REMARK    6  A    between atoms: C_18  and  C_19
REMARK                            x       y       z     vdW  Elec       q    Type
REMARK                         _______ _______ _______ _____ _____    ______ ____
ROOT
ATOM      1  C   UNL     1      45.985   6.826  12.017  0.00  0.00    +0.000 A 
ATOM      2  C   UNL     1      45.130   6.064  11.204  0.00  0.00    +0.000 A 
ATOM      3  C   UNL     1      44.812   4.734  11.485  0.00  0.00    +0.000 A 
ATOM      4  C   UNL     1      45.418   4.105  12.576  0.00  0.00    +0.000 A 
ATOM      5  C   UNL     1      46.337   4.818  13.376  0.00  0.00    +0.000 A 
ATOM      6  C   UNL     1      47.127   4.432  14.492  0.00  0.00    +0.000 A 
ATOM      7  C   UNL     1      47.853   5.526  14.887  0.00  0.00    +0.000 A 
ATOM      8  N   UNL     1      47.525   6.586  14.066  0.00  0.00    +0.000 N 
ATOM      9  C   UNL     1      46.608   6.173  13.103  0.00  0.00    +0.000 A 
ENDROOT
BRANCH   3  10
ATOM     10  C   UNL     1      43.806   4.076  10.601  0.00  0.00    +0.000 C 
ATOM     11  N   UNL     1      43.786   4.388   9.274  0.00  0.00    +0.000 N 
ATOM     12  O   UNL     1      43.022   3.235  11.037  0.00  0.00    +0.000 OA
ATOM     13  H   UNL     1      44.423   5.021   8.816  0.00  0.00    +0.000 HD
ATOM     14  H   UNL     1      43.136   3.871   8.697  0.00  0.00    +0.000 HD
ENDBRANCH   3  10
BRANCH   1  16
ATOM     15  C   UNL     1      45.273   9.051  12.367  0.00  0.00    +0.000 C 
ATOM     16  O   UNL     1      46.226   8.162  11.777  0.00  0.00    +0.000 OA
ENDBRANCH   1  16
BRANCH   8  17
ATOM     17  C   UNL     1      48.235   7.856  14.139  0.00  0.00    +0.000 C 
BRANCH  17  18
ATOM     18  C   UNL     1      49.566   7.870  13.419  0.00  0.00    +0.000 A 
ATOM     19  C   UNL     1      50.733   8.210  14.095  0.00  0.00    +0.000 A 
ATOM     20  C   UNL     1      51.877   8.520  13.360  0.00  0.00    +0.000 A 
ATOM     21  C   UNL     1      51.836   8.481  11.968  0.00  0.00    +0.000 A 
ATOM     22  C   UNL     1      52.977   8.969  11.134  0.00  0.00    +0.000 C 
ATOM     23  C   UNL     1      50.671   8.007  11.381  0.00  0.00    +0.000 A 
ATOM     24  N   UNL     1      49.542   7.714  12.067  0.00  0.00    +0.000 NA
ENDBRANCH  17  18
ENDBRANCH   8  17
TORSDOF 4
ENDMDL
