MODEL 1
REMARK VINA RESULT:    -8.528      0.000      0.000
REMARK INTER + INTRA:         -12.647
REMARK INTER:                 -11.519
REMARK INTRA:                  -1.128
REMARK UNBOUND:                -1.128
REMARK  Name = 
REMARK  6 active torsions:
REMARK  status: ('A' for Active; 'I' for Inactive)
REMARK    1  A    between atoms: C_2  and  C_19
REMARK    2  A    between atoms: N_3  and  C_4
REMARK    3  A    between atoms: C_4  and  C_5
REMARK    4  A    between atoms: C_8  and  C_9
REMARK    5  A    between atoms: C_9  and  O_10
REMARK    6  A    between atoms: O_10  and  C_11
REMARK                            x       y       z     vdW  Elec       q    Type
REMARK                         _______ _______ _______ _____ _____    ______ ____
ROOT
ATOM      1  O   UNL     1      48.903   6.609  13.057  0.00  0.00    +0.000 OA
ATOM      2  C   UNL     1      48.199   6.692  14.059  0.00  0.00    +0.000 C 
ATOM      3  N   UNL     1      46.895   7.118  14.022  0.00  0.00    +0.000 N 
ATOM      4  H   UNL     1      46.430   7.358  14.889  0.00  0.00    +0.000 HD
ENDROOT
BRANCH   2   5
ATOM      5  C   UNL     1      48.694   6.286  15.375  0.00  0.00    +0.000 A 
ATOM      6  C   UNL     1      49.677   7.020  16.028  0.00  0.00    +0.000 A 
ATOM      7  S   UNL     1      50.127   6.352  17.535  0.00  0.00    +0.000 S 
ATOM      8  C   UNL     1      48.994   5.091  17.380  0.00  0.00    +0.000 A 
ATOM      9  N   UNL     1      48.847   4.147  18.346  0.00  0.00    +0.000 NA
ATOM     10  C   UNL     1      47.910   3.288  18.114  0.00  0.00    +0.000 A 
ATOM     11  N   UNL     1      47.110   3.283  16.999  0.00  0.00    +0.000 N 
ATOM     12  C   UNL     1      47.271   4.169  15.972  0.00  0.00    +0.000 A 
ATOM     13  O   UNL     1      46.615   4.058  14.939  0.00  0.00    +0.000 OA
ATOM     14  C   UNL     1      48.292   5.172  16.193  0.00  0.00    +0.000 A 
ATOM     15  H   UNL     1      46.412   2.570  16.858  0.00  0.00    +0.000 HD
ENDBRANCH   2   5
BRANCH   3  16
ATOM     16  C   UNL     1      46.287   7.633  12.823  0.00  0.00    +0.000 C 
BRANCH  16  17
ATOM     17  C   UNL     1      45.769   6.536  11.926  0.00  0.00    +0.000 A 
ATOM     18  C   UNL     1      44.786   5.657  12.397  0.00  0.00    +0.000 A 
ATOM     19  C   UNL     1      44.272   4.651  11.574  0.00  0.00    +0.000 A 
ATOM     20  C   UNL     1      44.743   4.495  10.264  0.00  0.00    +0.000 A 
ATOM     21  C   UNL     1      45.723   5.377   9.789  0.00  0.00    +0.000 A 
ATOM     22  C   UNL     1      46.247   6.374  10.620  0.00  0.00    +0.000 A 
BRANCH  20  23
ATOM     23  C   UNL     1      44.231   3.373   9.393  0.00  0.00    +0.000 C 
BRANCH  23  24
ATOM     24  O   UNL     1      44.664   3.548   8.044  0.00  0.00    +0.000 OA
BRANCH  24  25
ATOM     25  C   UNL     1      45.712   2.759   7.639  0.00  0.00    +0.000 A 
ATOM     26  C   UNL     1      46.024   1.497   8.139  0.00  0.00    +0.000 A 
ATOM     27  C   UNL     1      47.117   0.831   7.608  0.00  0.00    +0.000 A 
ATOM     28  N   UNL     1      47.906   1.331   6.635  0.00  0.00    +0.000 NA
ATOM     29  C   UNL     1      47.584   2.556   6.170  0.00  0.00    +0.000 A 
ATOM     30  C   UNL     1      46.510   3.299   6.635  0.00  0.00    +0.000 A 
ENDBRANCH  24  25
ENDBRANCH  23  24
ENDBRANCH  20  23
ENDBRANCH  16  17
ENDBRANCH   3  16
TORSDOF 6
ENDMDL
MODEL 2
REMARK VINA RESULT:    -7.637      2.015      3.658
REMARK INTER + INTRA:         -11.444
REMARK INTER:                 -10.235
REMARK INTRA:                  -1.210
REMARK UNBOUND:                -1.128
REMARK  Name = 
REMARK  6 active torsions:
REMARK  status: ('A' for Active; 'I' for Inactive)
REMARK    1  A    between atoms: C_2  and  C_19
REMARK    2  A    between atoms: N_3  and  C_4
REMARK    3  A    between atoms: C_4  and  C_5
REMARK    4  A    between atoms: C_8  and  C_9
REMARK    5  A    between atoms: C_9  and  O_10
REMARK    6  A    between atoms: O_10  and  C_11
REMARK                            x       y       z     vdW  Elec       q    Type
REMARK                         _______ _______ _______ _____ _____    ______ ____
ROOT
ATOM      1  O   UNL     1      48.850   4.915  16.223  0.00  0.00    +0.000 OA
ATOM      2  C   UNL     1      48.422   5.870  15.581  0.00  0.00    +0.000 C 
ATOM      3  N   UNL     1      47.324   5.789  14.763  0.00  0.00    +0.000 N 
ATOM      4  H   UNL     1      47.139   6.542  14.111  0.00  0.00    +0.000 HD
ENDROOT
BRANCH   2   5
ATOM      5  C   UNL     1      49.034   7.196  15.690  0.00  0.00    +0.000 A 
ATOM      6  C   UNL     1      49.102   7.856  16.911  0.00  0.00    +0.000 A 
ATOM      7  S   UNL     1      49.829   9.399  16.803  0.00  0.00    +0.000 S 
ATOM      8  C   UNL     1      50.113   9.213  15.135  0.00  0.00    +0.000 A 
ATOM      9  N   UNL     1      50.726  10.182  14.408  0.00  0.00    +0.000 NA
ATOM     10  C   UNL     1      50.924   9.875  13.169  0.00  0.00    +0.000 A 
ATOM     11  N   UNL     1      50.557   8.686  12.588  0.00  0.00    +0.000 N 
ATOM     12  C   UNL     1      49.876   7.715  13.263  0.00  0.00    +0.000 A 
ATOM     13  O   UNL     1      49.460   6.717  12.678  0.00  0.00    +0.000 OA
ATOM     14  C   UNL     1      49.652   7.998  14.666  0.00  0.00    +0.000 A 
ATOM     15  H   UNL     1      50.713   8.513  11.607  0.00  0.00    +0.000 HD
ENDBRANCH   2   5
BRANCH   3  16
ATOM     16  C   UNL     1      46.663   4.542  14.483  0.00  0.00    +0.000 C 
BRANCH  16  17
ATOM     17  C   UNL     1      46.110   4.489  13.080  0.00  0.00    +0.000 A 
ATOM     18  C   UNL     1      46.189   5.619  12.256  0.00  0.00    +0.000 A 
ATOM     19  C   UNL     1      45.708   5.582  10.945  0.00  0.00    +0.000 A 
ATOM     20  C   UNL     1      45.121   4.418  10.434  0.00  0.00    +0.000 A 
ATOM     21  C   UNL     1      45.045   3.284  11.256  0.00  0.00    +0.000 A 
ATOM     22  C   UNL     1      45.514   3.327  12.574  0.00  0.00    +0.000 A 
BRANCH  20  23
ATOM     23  C   UNL     1      44.548   4.394   9.037  0.00  0.00    +0.000 C 
BRANCH  23  24
ATOM     24  O   UNL     1      44.516   3.060   8.530  0.00  0.00    +0.000 OA
BRANCH  24  25
ATOM     25  C   UNL     1      45.642   2.639   7.870  0.00  0.00    +0.000 A 
ATOM     26  C   UNL     1      46.371   3.381   6.944  0.00  0.00    +0.000 A 
ATOM     27  C   UNL     1      47.496   2.802   6.376  0.00  0.00    +0.000 A 
ATOM     28  N   UNL     1      47.930   1.558   6.661  0.00  0.00    +0.000 NA
ATOM     29  C   UNL     1      47.205   0.859   7.559  0.00  0.00    +0.000 A 
ATOM     30  C   UNL     1      46.068   1.351   8.182  0.00  0.00    +0.000 A 
ENDBRANCH  24  25
ENDBRANCH  23  24
ENDBRANCH  20  23
ENDBRANCH  16  17
ENDBRANCH   3  16
TORSDOF 6
ENDMDL
MODEL 3
REMARK VINA RESULT:    -7.425      1.823      2.490
REMARK INTER + INTRA:         -11.157
REMARK INTER:                 -10.360
REMARK INTRA:                  -0.796
REMARK UNBOUND:                -1.128
REMARK  Name = 
REMARK  6 active torsions:
REMARK  status: ('A' for Active; 'I' for Inactive)
REMARK    1  A    between atoms: C_2  and  C_19
REMARK    2  A    between atoms: N_3  and  C_4
REMARK    3  A    between atoms: C_4  and  C_5
REMARK    4  A    between atoms: C_8  and  C_9
REMARK    5  A    between atoms: C_9  and  O_10
REMARK    6  A    between atoms: O_10  and  C_11
REMARK                            x       y       z     vdW  Elec       q    Type
REMARK                         _______ _______ _______ _____ _____    ______ ____
ROOT
ATOM      1  O   UNL     1      50.342   7.034  15.473  0.00  0.00    +0.000 OA
ATOM      2  C   UNL     1      49.172   6.904  15.822  0.00  0.00    +0.000 C 
ATOM      3  N   UNL     1      48.149   6.677  14.937  0.00  0.00    +0.000 N 
ATOM      4  H   UNL     1      47.192   6.779  15.253  0.00  0.00    +0.000 HD
ENDROOT
BRANCH   2   5
ATOM      5  C   UNL     1      48.791   6.930  17.236  0.00  0.00    +0.000 A 
ATOM      6  C   UNL     1      48.260   8.077  17.813  0.00  0.00    +0.000 A 
ATOM      7  S   UNL     1      47.915   7.896  19.477  0.00  0.00    +0.000 S 
ATOM      8  C   UNL     1      48.422   6.271  19.464  0.00  0.00    +0.000 A 
ATOM      9  N   UNL     1      48.378   5.506  20.586  0.00  0.00    +0.000 NA
ATOM     10  C   UNL     1      48.740   4.279  20.409  0.00  0.00    +0.000 A 
ATOM     11  N   UNL     1      49.150   3.747  19.211  0.00  0.00    +0.000 N 
ATOM     12  C   UNL     1      49.277   4.497  18.077  0.00  0.00    +0.000 A 
ATOM     13  O   UNL     1      49.761   4.013  17.056  0.00  0.00    +0.000 OA
ATOM     14  C   UNL     1      48.858   5.876  18.214  0.00  0.00    +0.000 A 
ATOM     15  H   UNL     1      49.448   2.787  19.139  0.00  0.00    +0.000 HD
ENDBRANCH   2   5
BRANCH   3  16
ATOM     16  C   UNL     1      48.343   6.709  13.511  0.00  0.00    +0.000 C 
BRANCH  16  17
ATOM     17  C   UNL     1      47.171   6.127  12.760  0.00  0.00    +0.000 A 
ATOM     18  C   UNL     1      46.672   6.786  11.629  0.00  0.00    +0.000 A 
ATOM     19  C   UNL     1      45.605   6.251  10.902  0.00  0.00    +0.000 A 
ATOM     20  C   UNL     1      45.004   5.051  11.301  0.00  0.00    +0.000 A 
ATOM     21  C   UNL     1      45.505   4.387  12.429  0.00  0.00    +0.000 A 
ATOM     22  C   UNL     1      46.564   4.932  13.165  0.00  0.00    +0.000 A 
BRANCH  20  23
ATOM     23  C   UNL     1      43.814   4.501  10.551  0.00  0.00    +0.000 C 
BRANCH  23  24
ATOM     24  O   UNL     1      44.057   3.156  10.141  0.00  0.00    +0.000 OA
BRANCH  24  25
ATOM     25  C   UNL     1      44.916   2.994   9.084  0.00  0.00    +0.000 A 
ATOM     26  C   UNL     1      45.266   3.974   8.158  0.00  0.00    +0.000 A 
ATOM     27  C   UNL     1      46.160   3.641   7.153  0.00  0.00    +0.000 A 
ATOM     28  N   UNL     1      46.713   2.419   7.009  0.00  0.00    +0.000 NA
ATOM     29  C   UNL     1      46.355   1.487   7.916  0.00  0.00    +0.000 A 
ATOM     30  C   UNL     1      45.472   1.724   8.957  0.00  0.00    +0.000 A 
ENDBRANCH  24  25
ENDBRANCH  23  24
ENDBRANCH  20  23
ENDBRANCH  16  17
ENDBRANCH   3  16
TORSDOF 6
ENDMDL
MODEL 4
REMARK VINA RESULT:    -7.270      1.907      2.803
REMARK INTER + INTRA:         -10.948
REMARK INTER:                 -10.179
REMARK INTRA:                  -0.769
REMARK UNBOUND:                -1.128
REMARK  Name = 
REMARK  6 active torsions:
REMARK  status: ('A' for Active; 'I' for Inactive)
REMARK    1  A    between atoms: C_2  and  C_19
REMARK    2  A    between atoms: N_3  and  C_4
REMARK    3  A    between atoms: C_4  and  C_5
REMARK    4  A    between atoms: C_8  and  C_9
REMARK    5  A    between atoms: C_9  and  O_10
REMARK    6  A    between atoms: O_10  and  C_11
REMARK                            x       y       z     vdW  Elec       q    Type
REMARK                         _______ _______ _______ _____ _____    ______ ____
ROOT
ATOM      1  O   UNL     1      47.049   4.514  17.343  0.00  0.00    +0.000 OA
ATOM      2  C   UNL     1      47.743   4.899  16.406  0.00  0.00    +0.000 C 
ATOM      3  N   UNL     1      47.294   4.937  15.110  0.00  0.00    +0.000 N 
ATOM      4  H   UNL     1      47.963   5.068  14.360  0.00  0.00    +0.000 HD
ENDROOT
BRANCH   2   5
ATOM      5  C   UNL     1      49.102   5.401  16.620  0.00  0.00    +0.000 A 
ATOM      6  C   UNL     1      49.438   6.712  16.304  0.00  0.00    +0.000 A 
ATOM      7  S   UNL     1      51.080   7.078  16.606  0.00  0.00    +0.000 S 
ATOM      8  C   UNL     1      51.378   5.513  17.206  0.00  0.00    +0.000 A 
ATOM      9  N   UNL     1      52.607   5.148  17.656  0.00  0.00    +0.000 NA
ATOM     10  C   UNL     1      52.665   3.950  18.134  0.00  0.00    +0.000 A 
ATOM     11  N   UNL     1      51.606   3.078  18.198  0.00  0.00    +0.000 N 
ATOM     12  C   UNL     1      50.374   3.378  17.692  0.00  0.00    +0.000 A 
ATOM     13  O   UNL     1      49.486   2.529  17.659  0.00  0.00    +0.000 OA
ATOM     14  C   UNL     1      50.246   4.721  17.168  0.00  0.00    +0.000 A 
ATOM     15  H   UNL     1      51.718   2.143  18.556  0.00  0.00    +0.000 HD
ENDBRANCH   2   5
BRANCH   3  16
ATOM     16  C   UNL     1      46.017   4.400  14.722  0.00  0.00    +0.000 C 
BRANCH  16  17
ATOM     17  C   UNL     1      45.787   4.486  13.233  0.00  0.00    +0.000 A 
ATOM     18  C   UNL     1      46.172   5.637  12.534  0.00  0.00    +0.000 A 
ATOM     19  C   UNL     1      45.993   5.726  11.151  0.00  0.00    +0.000 A 
ATOM     20  C   UNL     1      45.410   4.670  10.439  0.00  0.00    +0.000 A 
ATOM     21  C   UNL     1      45.029   3.515  11.137  0.00  0.00    +0.000 A 
ATOM     22  C   UNL     1      45.195   3.433  12.524  0.00  0.00    +0.000 A 
BRANCH  20  23
ATOM     23  C   UNL     1      45.163   4.788   8.954  0.00  0.00    +0.000 C 
BRANCH  23  24
ATOM     24  O   UNL     1      44.855   3.512   8.394  0.00  0.00    +0.000 OA
BRANCH  24  25
ATOM     25  C   UNL     1      45.884   2.871   7.752  0.00  0.00    +0.000 A 
ATOM     26  C   UNL     1      46.705   3.424   6.772  0.00  0.00    +0.000 A 
ATOM     27  C   UNL     1      47.710   2.635   6.233  0.00  0.00    +0.000 A 
ATOM     28  N   UNL     1      47.941   1.357   6.594  0.00  0.00    +0.000 NA
ATOM     29  C   UNL     1      47.130   0.844   7.543  0.00  0.00    +0.000 A 
ATOM     30  C   UNL     1      46.102   1.553   8.143  0.00  0.00    +0.000 A 
ENDBRANCH  24  25
ENDBRANCH  23  24
ENDBRANCH  20  23
ENDBRANCH  16  17
ENDBRANCH   3  16
TORSDOF 6
ENDMDL
MODEL 5
REMARK VINA RESULT:    -7.128      4.583      8.935
REMARK INTER + INTRA:         -10.756
REMARK INTER:                  -9.872
REMARK INTRA:                  -0.883
REMARK UNBOUND:                -1.128
REMARK  Name = 
REMARK  6 active torsions:
REMARK  status: ('A' for Active; 'I' for Inactive)
REMARK    1  A    between atoms: C_2  and  C_19
REMARK    2  A    between atoms: N_3  and  C_4
REMARK    3  A    between atoms: C_4  and  C_5
REMARK    4  A    between atoms: C_8  and  C_9
REMARK    5  A    between atoms: C_9  and  O_10
REMARK    6  A    between atoms: O_10  and  C_11
REMARK                            x       y       z     vdW  Elec       q    Type
REMARK                         _______ _______ _______ _____ _____    ______ ____
ROOT
ATOM      1  O   UNL     1      47.206   3.066  14.164  0.00  0.00    +0.000 OA
ATOM      2  C   UNL     1      46.962   4.187  14.602  0.00  0.00    +0.000 C 
ATOM      3  N   UNL     1      47.030   4.498  15.937  0.00  0.00    +0.000 N 
ATOM      4  H   UNL     1      46.628   5.370  16.260  0.00  0.00    +0.000 HD
ENDROOT
BRANCH   2   5
ATOM      5  C   UNL     1      46.628   5.298  13.709  0.00  0.00    +0.000 A 
ATOM      6  C   UNL     1      47.549   6.305  13.443  0.00  0.00    +0.000 A 
ATOM      7  S   UNL     1      46.942   7.515  12.401  0.00  0.00    +0.000 S 
ATOM      8  C   UNL     1      45.451   6.709  12.240  0.00  0.00    +0.000 A 
ATOM      9  N   UNL     1      44.457   7.209  11.461  0.00  0.00    +0.000 NA
ATOM     10  C   UNL     1      43.407   6.459  11.391  0.00  0.00    +0.000 A 
ATOM     11  N   UNL     1      43.258   5.256  12.036  0.00  0.00    +0.000 N 
ATOM     12  C   UNL     1      44.203   4.753  12.884  0.00  0.00    +0.000 A 
ATOM     13  O   UNL     1      43.983   3.733  13.534  0.00  0.00    +0.000 OA
ATOM     14  C   UNL     1      45.413   5.542  12.977  0.00  0.00    +0.000 A 
ATOM     15  H   UNL     1      42.403   4.727  11.966  0.00  0.00    +0.000 HD
ENDBRANCH   2   5
BRANCH   3  16
ATOM     16  C   UNL     1      47.260   3.502  16.949  0.00  0.00    +0.000 C 
BRANCH  16  17
ATOM     17  C   UNL     1      48.729   3.255  17.187  0.00  0.00    +0.000 A 
ATOM     18  C   UNL     1      49.511   4.240  17.803  0.00  0.00    +0.000 A 
ATOM     19  C   UNL     1      50.867   4.021  18.058  0.00  0.00    +0.000 A 
ATOM     20  C   UNL     1      51.475   2.815  17.688  0.00  0.00    +0.000 A 
ATOM     21  C   UNL     1      50.693   1.826  17.076  0.00  0.00    +0.000 A 
ATOM     22  C   UNL     1      49.338   2.052  16.808  0.00  0.00    +0.000 A 
BRANCH  20  23
ATOM     23  C   UNL     1      52.953   2.599  17.910  0.00  0.00    +0.000 C 
BRANCH  23  24
ATOM     24  O   UNL     1      53.176   1.432  18.701  0.00  0.00    +0.000 OA
BRANCH  24  25
ATOM     25  C   UNL     1      53.891   0.426  18.103  0.00  0.00    +0.000 A 
ATOM     26  C   UNL     1      54.206  -0.804  18.675  0.00  0.00    +0.000 A 
ATOM     27  C   UNL     1      54.931  -1.715  17.922  0.00  0.00    +0.000 A 
ATOM     28  N   UNL     1      55.359  -1.482  16.665  0.00  0.00    +0.000 NA
ATOM     29  C   UNL     1      55.044  -0.283  16.134  0.00  0.00    +0.000 A 
ATOM     30  C   UNL     1      54.322   0.691  16.806  0.00  0.00    +0.000 A 
ENDBRANCH  24  25
ENDBRANCH  23  24
ENDBRANCH  20  23
ENDBRANCH  16  17
ENDBRANCH   3  16
TORSDOF 6
ENDMDL
MODEL 6
REMARK VINA RESULT:    -7.125      1.720      2.130
REMARK INTER + INTRA:         -10.753
REMARK INTER:                  -9.513
REMARK INTRA:                  -1.240
REMARK UNBOUND:                -1.128
REMARK  Name = 
REMARK  6 active torsions:
REMARK  status: ('A' for Active; 'I' for Inactive)
REMARK    1  A    between atoms: C_2  and  C_19
REMARK    2  A    between atoms: N_3  and  C_4
REMARK    3  A    between atoms: C_4  and  C_5
REMARK    4  A    between atoms: C_8  and  C_9
REMARK    5  A    between atoms: C_9  and  O_10
REMARK    6  A    between atoms: O_10  and  C_11
REMARK                            x       y       z     vdW  Elec       q    Type
REMARK                         _______ _______ _______ _____ _____    ______ ____
ROOT
ATOM      1  O   UNL     1      48.147   9.168  15.444  0.00  0.00    +0.000 OA
ATOM      2  C   UNL     1      48.644   8.140  14.991  0.00  0.00    +0.000 C 
ATOM      3  N   UNL     1      48.126   7.474  13.909  0.00  0.00    +0.000 N 
ATOM      4  H   UNL     1      48.450   6.536  13.706  0.00  0.00    +0.000 HD
ENDROOT
BRANCH   2   5
ATOM      5  C   UNL     1      49.873   7.577  15.552  0.00  0.00    +0.000 A 
ATOM      6  C   UNL     1      51.087   8.242  15.429  0.00  0.00    +0.000 A 
ATOM      7  S   UNL     1      52.394   7.393  16.129  0.00  0.00    +0.000 S 
ATOM      8  C   UNL     1      51.372   6.136  16.655  0.00  0.00    +0.000 A 
ATOM      9  N   UNL     1      51.856   5.072  17.345  0.00  0.00    +0.000 NA
ATOM     10  C   UNL     1      50.954   4.229  17.726  0.00  0.00    +0.000 A 
ATOM     11  N   UNL     1      49.610   4.351  17.473  0.00  0.00    +0.000 N 
ATOM     12  C   UNL     1      49.091   5.367  16.723  0.00  0.00    +0.000 A 
ATOM     13  O   UNL     1      47.900   5.377  16.418  0.00  0.00    +0.000 OA
ATOM     14  C   UNL     1      50.057   6.356  16.293  0.00  0.00    +0.000 A 
ATOM     15  H   UNL     1      48.954   3.647  17.772  0.00  0.00    +0.000 HD
ENDBRANCH   2   5
BRANCH   3  16
ATOM     16  C   UNL     1      46.878   7.850  13.299  0.00  0.00    +0.000 C 
BRANCH  16  17
ATOM     17  C   UNL     1      46.133   6.663  12.739  0.00  0.00    +0.000 A 
ATOM     18  C   UNL     1      45.089   6.863  11.826  0.00  0.00    +0.000 A 
ATOM     19  C   UNL     1      44.405   5.776  11.275  0.00  0.00    +0.000 A 
ATOM     20  C   UNL     1      44.740   4.466  11.637  0.00  0.00    +0.000 A 
ATOM     21  C   UNL     1      45.788   4.264  12.546  0.00  0.00    +0.000 A 
ATOM     22  C   UNL     1      46.462   5.353  13.109  0.00  0.00    +0.000 A 
BRANCH  20  23
ATOM     23  C   UNL     1      43.963   3.294  11.086  0.00  0.00    +0.000 C 
BRANCH  23  24
ATOM     24  O   UNL     1      43.800   3.418   9.674  0.00  0.00    +0.000 OA
BRANCH  24  25
ATOM     25  C   UNL     1      44.845   2.972   8.904  0.00  0.00    +0.000 A 
ATOM     26  C   UNL     1      45.319   1.663   8.852  0.00  0.00    +0.000 A 
ATOM     27  C   UNL     1      46.383   1.382   8.008  0.00  0.00    +0.000 A 
ATOM     28  N   UNL     1      46.995   2.300   7.234  0.00  0.00    +0.000 NA
ATOM     29  C   UNL     1      46.519   3.561   7.305  0.00  0.00    +0.000 A 
ATOM     30  C   UNL     1      45.460   3.940   8.115  0.00  0.00    +0.000 A 
ENDBRANCH  24  25
ENDBRANCH  23  24
ENDBRANCH  20  23
ENDBRANCH  16  17
ENDBRANCH   3  16
TORSDOF 6
ENDMDL
MODEL 7
REMARK VINA RESULT:    -6.855      2.080      3.329
REMARK INTER + INTRA:         -10.387
REMARK INTER:                  -9.381
REMARK INTRA:                  -1.006
REMARK UNBOUND:                -1.128
REMARK  Name = 
REMARK  6 active torsions:
REMARK  status: ('A' for Active; 'I' for Inactive)
REMARK    1  A    between atoms: C_2  and  C_19
REMARK    2  A    between atoms: N_3  and  C_4
REMARK    3  A    between atoms: C_4  and  C_5
REMARK    4  A    between atoms: C_8  and  C_9
REMARK    5  A    between atoms: C_9  and  O_10
REMARK    6  A    between atoms: O_10  and  C_11
REMARK                            x       y       z     vdW  Elec       q    Type
REMARK                         _______ _______ _______ _____ _____    ______ ____
ROOT
ATOM      1  O   UNL     1      48.821   3.883  17.262  0.00  0.00    +0.000 OA
ATOM      2  C   UNL     1      48.307   4.908  16.822  0.00  0.00    +0.000 C 
ATOM      3  N   UNL     1      47.461   4.915  15.742  0.00  0.00    +0.000 N 
ATOM      4  H   UNL     1      47.231   5.799  15.303  0.00  0.00    +0.000 HD
ENDROOT
BRANCH   2   5
ATOM      5  C   UNL     1      48.526   6.206  17.464  0.00  0.00    +0.000 A 
ATOM      6  C   UNL     1      48.144   6.426  18.782  0.00  0.00    +0.000 A 
ATOM      7  S   UNL     1      48.465   8.016  19.319  0.00  0.00    +0.000 S 
ATOM      8  C   UNL     1      49.161   8.442  17.825  0.00  0.00    +0.000 A 
ATOM      9  N   UNL     1      49.662   9.686  17.606  0.00  0.00    +0.000 NA
ATOM     10  C   UNL     1      50.210   9.843  16.446  0.00  0.00    +0.000 A 
ATOM     11  N   UNL     1      50.297   8.870  15.482  0.00  0.00    +0.000 N 
ATOM     12  C   UNL     1      49.744   7.630  15.633  0.00  0.00    +0.000 A 
ATOM     13  O   UNL     1      49.738   6.828  14.703  0.00  0.00    +0.000 OA
ATOM     14  C   UNL     1      49.140   7.392  16.928  0.00  0.00    +0.000 A 
ATOM     15  H   UNL     1      50.712   9.059  14.583  0.00  0.00    +0.000 HD
ENDBRANCH   2   5
BRANCH   3  16
ATOM     16  C   UNL     1      47.213   3.739  14.951  0.00  0.00    +0.000 C 
BRANCH  16  17
ATOM     17  C   UNL     1      46.559   4.064  13.630  0.00  0.00    +0.000 A 
ATOM     18  C   UNL     1      45.735   3.117  13.008  0.00  0.00    +0.000 A 
ATOM     19  C   UNL     1      45.098   3.408  11.799  0.00  0.00    +0.000 A 
ATOM     20  C   UNL     1      45.284   4.649  11.177  0.00  0.00    +0.000 A 
ATOM     21  C   UNL     1      46.104   5.600  11.800  0.00  0.00    +0.000 A 
ATOM     22  C   UNL     1      46.753   5.302  13.004  0.00  0.00    +0.000 A 
BRANCH  20  23
ATOM     23  C   UNL     1      44.643   4.943   9.842  0.00  0.00    +0.000 C 
BRANCH  23  24
ATOM     24  O   UNL     1      44.265   3.731   9.189  0.00  0.00    +0.000 OA
BRANCH  24  25
ATOM     25  C   UNL     1      45.262   3.074   8.514  0.00  0.00    +0.000 A 
ATOM     26  C   UNL     1      45.567   1.719   8.625  0.00  0.00    +0.000 A 
ATOM     27  C   UNL     1      46.606   1.213   7.859  0.00  0.00    +0.000 A 
ATOM     28  N   UNL     1      47.349   1.954   7.012  0.00  0.00    +0.000 NA
ATOM     29  C   UNL     1      47.036   3.263   6.925  0.00  0.00    +0.000 A 
ATOM     30  C   UNL     1      46.015   3.861   7.647  0.00  0.00    +0.000 A 
ENDBRANCH  24  25
ENDBRANCH  23  24
ENDBRANCH  20  23
ENDBRANCH  16  17
ENDBRANCH   3  16
TORSDOF 6
ENDMDL
MODEL 8
REMARK VINA RESULT:    -6.680      3.834      7.679
REMARK INTER + INTRA:         -10.151
REMARK INTER:                  -8.738
REMARK INTRA:                  -1.413
REMARK UNBOUND:                -1.128
REMARK  Name = 
REMARK  6 active torsions:
REMARK  status: ('A' for Active; 'I' for Inactive)
REMARK    1  A    between atoms: C_2  and  C_19
REMARK    2  A    between atoms: N_3  and  C_4
REMARK    3  A    between atoms: C_4  and  C_5
REMARK    4  A    between atoms: C_8  and  C_9
REMARK    5  A    between atoms: C_9  and  O_10
REMARK    6  A    between atoms: O_10  and  C_11
REMARK                            x       y       z     vdW  Elec       q    Type
REMARK                         _______ _______ _______ _____ _____    ______ ____
ROOT
ATOM      1  O   UNL     1      48.531   7.240  12.383  0.00  0.00    +0.000 OA
ATOM      2  C   UNL     1      47.466   7.490  12.939  0.00  0.00    +0.000 C 
ATOM      3  N   UNL     1      47.358   8.372  13.985  0.00  0.00    +0.000 N 
ATOM      4  H   UNL     1      46.504   8.388  14.530  0.00  0.00    +0.000 HD
ENDROOT
BRANCH   2   5
ATOM      5  C   UNL     1      46.209   6.893  12.483  0.00  0.00    +0.000 A 
ATOM      6  C   UNL     1      45.254   7.654  11.819  0.00  0.00    +0.000 A 
ATOM      7  S   UNL     1      43.855   6.766  11.402  0.00  0.00    +0.000 S 
ATOM      8  C   UNL     1      44.500   5.333  12.057  0.00  0.00    +0.000 A 
ATOM      9  N   UNL     1      43.808   4.164  12.022  0.00  0.00    +0.000 NA
ATOM     10  C   UNL     1      44.449   3.151  12.505  0.00  0.00    +0.000 A 
ATOM     11  N   UNL     1      45.718   3.202  13.025  0.00  0.00    +0.000 N 
ATOM     12  C   UNL     1      46.420   4.367  13.144  0.00  0.00    +0.000 A 
ATOM     13  O   UNL     1      47.504   4.390  13.724  0.00  0.00    +0.000 OA
ATOM     14  C   UNL     1      45.758   5.531  12.593  0.00  0.00    +0.000 A 
ATOM     15  H   UNL     1      46.158   2.382  13.414  0.00  0.00    +0.000 HD
ENDBRANCH   2   5
BRANCH   3  16
ATOM     16  C   UNL     1      48.507   8.976  14.605  0.00  0.00    +0.000 C 
BRANCH  16  17
ATOM     17  C   UNL     1      49.084   8.116  15.702  0.00  0.00    +0.000 A 
ATOM     18  C   UNL     1      48.476   8.095  16.964  0.00  0.00    +0.000 A 
ATOM     19  C   UNL     1      48.978   7.285  17.986  0.00  0.00    +0.000 A 
ATOM     20  C   UNL     1      50.110   6.489  17.772  0.00  0.00    +0.000 A 
ATOM     21  C   UNL     1      50.717   6.504  16.509  0.00  0.00    +0.000 A 
ATOM     22  C   UNL     1      50.222   7.327  15.491  0.00  0.00    +0.000 A 
BRANCH  20  23
ATOM     23  C   UNL     1      50.688   5.658  18.893  0.00  0.00    +0.000 C 
BRANCH  23  24
ATOM     24  O   UNL     1      49.816   4.574  19.215  0.00  0.00    +0.000 OA
BRANCH  24  25
ATOM     25  C   UNL     1      49.601   3.656  18.219  0.00  0.00    +0.000 A 
ATOM     26  C   UNL     1      48.399   3.445  17.548  0.00  0.00    +0.000 A 
ATOM     27  C   UNL     1      48.360   2.478  16.555  0.00  0.00    +0.000 A 
ATOM     28  N   UNL     1      49.417   1.721  16.198  0.00  0.00    +0.000 NA
ATOM     29  C   UNL     1      50.568   1.943  16.864  0.00  0.00    +0.000 A 
ATOM     30  C   UNL     1      50.707   2.887  17.869  0.00  0.00    +0.000 A 
ENDBRANCH  24  25
ENDBRANCH  23  24
ENDBRANCH  20  23
ENDBRANCH  16  17
ENDBRANCH   3  16
TORSDOF 6
ENDMDL
MODEL 9
REMARK VINA RESULT:    -6.579      4.606      9.027
REMARK INTER + INTRA:         -10.014
REMARK INTER:                  -8.901
REMARK INTRA:                  -1.113
REMARK UNBOUND:                -1.128
REMARK  Name = 
REMARK  6 active torsions:
REMARK  status: ('A' for Active; 'I' for Inactive)
REMARK    1  A    between atoms: C_2  and  C_19
REMARK    2  A    between atoms: N_3  and  C_4
REMARK    3  A    between atoms: C_4  and  C_5
REMARK    4  A    between atoms: C_8  and  C_9
REMARK    5  A    between atoms: C_9  and  O_10
REMARK    6  A    between atoms: O_10  and  C_11
REMARK                            x       y       z     vdW  Elec       q    Type
REMARK                         _______ _______ _______ _____ _____    ______ ____
ROOT
ATOM      1  O   UNL     1      47.357   3.061  14.517  0.00  0.00    +0.000 OA
ATOM      2  C   UNL     1      47.104   4.201  14.895  0.00  0.00    +0.000 C 
ATOM      3  N   UNL     1      47.190   4.589  16.208  0.00  0.00    +0.000 N 
ATOM      4  H   UNL     1      46.780   5.473  16.488  0.00  0.00    +0.000 HD
ENDROOT
BRANCH   2   5
ATOM      5  C   UNL     1      46.738   5.255  13.946  0.00  0.00    +0.000 A 
ATOM      6  C   UNL     1      45.552   5.189  13.225  0.00  0.00    +0.000 A 
ATOM      7  S   UNL     1      45.340   6.505  12.156  0.00  0.00    +0.000 S 
ATOM      8  C   UNL     1      46.801   7.222  12.656  0.00  0.00    +0.000 A 
ATOM      9  N   UNL     1      47.226   8.401  12.135  0.00  0.00    +0.000 NA
ATOM     10  C   UNL     1      48.322   8.849  12.652  0.00  0.00    +0.000 A 
ATOM     11  N   UNL     1      49.036   8.219  13.642  0.00  0.00    +0.000 N 
ATOM     12  C   UNL     1      48.683   6.999  14.143  0.00  0.00    +0.000 A 
ATOM     13  O   UNL     1      49.412   6.413  14.940  0.00  0.00    +0.000 OA
ATOM     14  C   UNL     1      47.445   6.464  13.615  0.00  0.00    +0.000 A 
ATOM     15  H   UNL     1      49.901   8.603  13.988  0.00  0.00    +0.000 HD
ENDBRANCH   2   5
BRANCH   3  16
ATOM     16  C   UNL     1      47.452   3.656  17.271  0.00  0.00    +0.000 C 
BRANCH  16  17
ATOM     17  C   UNL     1      48.927   3.412  17.470  0.00  0.00    +0.000 A 
ATOM     18  C   UNL     1      49.719   4.388  18.088  0.00  0.00    +0.000 A 
ATOM     19  C   UNL     1      51.082   4.171  18.306  0.00  0.00    +0.000 A 
ATOM     20  C   UNL     1      51.686   2.976  17.896  0.00  0.00    +0.000 A 
ATOM     21  C   UNL     1      50.895   1.995  17.282  0.00  0.00    +0.000 A 
ATOM     22  C   UNL     1      49.533   2.220  17.051  0.00  0.00    +0.000 A 
BRANCH  20  23
ATOM     23  C   UNL     1      53.170   2.763  18.078  0.00  0.00    +0.000 C 
BRANCH  23  24
ATOM     24  O   UNL     1      53.424   1.498  18.687  0.00  0.00    +0.000 OA
BRANCH  24  25
ATOM     25  C   UNL     1      54.175   0.615  17.953  0.00  0.00    +0.000 A 
ATOM     26  C   UNL     1      54.871   0.912  16.783  0.00  0.00    +0.000 A 
ATOM     27  C   UNL     1      55.592  -0.102  16.171  0.00  0.00    +0.000 A 
ATOM     28  N   UNL     1      55.658  -1.367  16.635  0.00  0.00    +0.000 NA
ATOM     29  C   UNL     1      54.972  -1.629  17.767  0.00  0.00    +0.000 A 
ATOM     30  C   UNL     1      54.226  -0.683  18.452  0.00  0.00    +0.000 A 
ENDBRANCH  24  25
ENDBRANCH  23  24
ENDBRANCH  20  23
ENDBRANCH  16  17
ENDBRANCH   3  16
TORSDOF 6
ENDMDL
