MODEL 1
REMARK VINA RESULT:    -7.654      0.000      0.000
REMARK INTER + INTRA:         -11.836
REMARK INTER:                 -10.786
REMARK INTRA:                  -1.049
REMARK UNBOUND:                -1.049
REMARK  Name = 
REMARK  7 active torsions:
REMARK  status: ('A' for Active; 'I' for Inactive)
REMARK    1  A    between atoms: C_2  and  C_19
REMARK    2  A    between atoms: N_3  and  C_4
REMARK    3  A    between atoms: C_4  and  C_5
REMARK    4  A    between atoms: N_8  and  C_9
REMARK    5  A    between atoms: C_9  and  C_10
REMARK    6  A    between atoms: C_10  and  C_11
REMARK    7  A    between atoms: C_11  and  C_12
REMARK                            x       y       z     vdW  Elec       q    Type
REMARK                         _______ _______ _______ _____ _____    ______ ____
ROOT
ATOM      1  C   UNL     1      46.539   5.998  12.608  0.00  0.00    +0.000 C 
ENDROOT
BRANCH   1   2
ATOM      2  C   UNL     1      45.027   6.236  12.481  0.00  0.00    +0.000 C 
ATOM      3  C   UNL     1      44.182   5.171  13.191  0.00  0.00    +0.000 C 
ATOM      4  C   UNL     1      44.255   3.807  12.502  0.00  0.00    +0.000 C 
ATOM      5  N   UNL     1      43.911   3.874  11.075  0.00  0.00    +0.000 NA
ATOM      6  C   UNL     1      44.687   4.891  10.348  0.00  0.00    +0.000 C 
ATOM      7  C   UNL     1      44.610   6.272  11.007  0.00  0.00    +0.000 C 
BRANCH   5   8
ATOM      8  C   UNL     1      44.076   2.560  10.420  0.00  0.00    +0.000 C 
BRANCH   8   9
ATOM      9  C   UNL     1      44.601   2.651   8.984  0.00  0.00    +0.000 C 
BRANCH   9  10
ATOM     10  C   UNL     1      45.726   1.648   8.724  0.00  0.00    +0.000 C 
BRANCH  10  11
ATOM     11  C   UNL     1      46.489   2.004   7.497  0.00  0.00    +0.000 A 
ATOM     12  N   UNL     1      47.507   1.346   6.979  0.00  0.00    +0.000 NA
ATOM     13  C   UNL     1      47.867   2.044   5.858  0.00  0.00    +0.000 A 
ATOM     14  C   UNL     1      47.064   3.146   5.691  0.00  0.00    +0.000 A 
ATOM     15  N   UNL     1      46.192   3.111   6.741  0.00  0.00    +0.000 N 
ATOM     16  H   UNL     1      45.454   3.775   6.934  0.00  0.00    +0.000 HD
ENDBRANCH  10  11
ENDBRANCH   9  10
ENDBRANCH   8   9
ENDBRANCH   5   8
ENDBRANCH   1   2
BRANCH   1  19
ATOM     17  O   UNL     1      49.119   6.729  13.586  0.00  0.00    +0.000 OA
ATOM     18  C   UNL     1      48.268   6.308  14.363  0.00  0.00    +0.000 C 
ATOM     19  N   UNL     1      46.987   6.009  13.978  0.00  0.00    +0.000 N 
ATOM     20  H   UNL     1      46.367   5.571  14.647  0.00  0.00    +0.000 HD
BRANCH  18  21
ATOM     21  C   UNL     1      48.533   6.147  15.797  0.00  0.00    +0.000 A 
ATOM     22  C   UNL     1      49.043   7.197  16.545  0.00  0.00    +0.000 A 
ATOM     23  S   UNL     1      49.199   6.831  18.206  0.00  0.00    +0.000 S 
ATOM     24  C   UNL     1      48.638   5.240  17.970  0.00  0.00    +0.000 A 
ATOM     25  N   UNL     1      48.513   4.374  19.011  0.00  0.00    +0.000 NA
ATOM     26  C   UNL     1      48.107   3.192  18.680  0.00  0.00    +0.000 A 
ATOM     27  N   UNL     1      47.823   2.797  17.401  0.00  0.00    +0.000 N 
ATOM     28  C   UNL     1      47.904   3.643  16.322  0.00  0.00    +0.000 A 
ATOM     29  O   UNL     1      47.579   3.269  15.200  0.00  0.00    +0.000 OA
ATOM     30  C   UNL     1      48.347   4.989  16.642  0.00  0.00    +0.000 A 
ATOM     31  H   UNL     1      47.501   1.859  17.204  0.00  0.00    +0.000 HD
ENDBRANCH  18  21
ENDBRANCH   1  19
TORSDOF 7
ENDMDL
MODEL 2
REMARK VINA RESULT:    -7.591      1.310      2.154
REMARK INTER + INTRA:         -11.747
REMARK INTER:                 -10.711
REMARK INTRA:                  -1.036
REMARK UNBOUND:                -1.049
REMARK  Name = 
REMARK  7 active torsions:
REMARK  status: ('A' for Active; 'I' for Inactive)
REMARK    1  A    between atoms: C_2  and  C_19
REMARK    2  A    between atoms: N_3  and  C_4
REMARK    3  A    between atoms: C_4  and  C_5
REMARK    4  A    between atoms: N_8  and  C_9
REMARK    5  A    between atoms: C_9  and  C_10
REMARK    6  A    between atoms: C_10  and  C_11
REMARK    7  A    between atoms: C_11  and  C_12
REMARK                            x       y       z     vdW  Elec       q    Type
REMARK                         _______ _______ _______ _____ _____    ______ ____
ROOT
ATOM      1  C   UNL     1      46.599   5.535  12.789  0.00  0.00    +0.000 C 
ENDROOT
BRANCH   1   2
ATOM      2  C   UNL     1      45.092   5.826  12.718  0.00  0.00    +0.000 C 
ATOM      3  C   UNL     1      44.226   4.685  13.268  0.00  0.00    +0.000 C 
ATOM      4  C   UNL     1      44.259   3.441  12.380  0.00  0.00    +0.000 C 
ATOM      5  N   UNL     1      43.905   3.732  10.983  0.00  0.00    +0.000 NA
ATOM      6  C   UNL     1      44.701   4.828  10.410  0.00  0.00    +0.000 C 
ATOM      7  C   UNL     1      44.664   6.095  11.271  0.00  0.00    +0.000 C 
BRANCH   5   8
ATOM      8  C   UNL     1      44.031   2.528  10.136  0.00  0.00    +0.000 C 
BRANCH   8   9
ATOM      9  C   UNL     1      44.782   2.778   8.823  0.00  0.00    +0.000 C 
BRANCH   9  10
ATOM     10  C   UNL     1      45.876   1.736   8.585  0.00  0.00    +0.000 C 
BRANCH  10  11
ATOM     11  C   UNL     1      46.657   2.049   7.358  0.00  0.00    +0.000 A 
ATOM     12  N   UNL     1      47.786   1.490   6.974  0.00  0.00    +0.000 NA
ATOM     13  C   UNL     1      48.115   2.093   5.790  0.00  0.00    +0.000 A 
ATOM     14  C   UNL     1      47.179   3.038   5.448  0.00  0.00    +0.000 A 
ATOM     15  N   UNL     1      46.257   3.003   6.455  0.00  0.00    +0.000 N 
ATOM     16  H   UNL     1      45.423   3.570   6.529  0.00  0.00    +0.000 HD
ENDBRANCH  10  11
ENDBRANCH   9  10
ENDBRANCH   8   9
ENDBRANCH   5   8
ENDBRANCH   1   2
BRANCH   1  19
ATOM     17  O   UNL     1      47.404   3.330  14.414  0.00  0.00    +0.000 OA
ATOM     18  C   UNL     1      47.408   4.465  14.879  0.00  0.00    +0.000 C 
ATOM     19  N   UNL     1      47.106   5.578  14.138  0.00  0.00    +0.000 N 
ATOM     20  H   UNL     1      47.029   6.471  14.609  0.00  0.00    +0.000 HD
BRANCH  18  21
ATOM     21  C   UNL     1      47.800   4.738  16.267  0.00  0.00    +0.000 A 
ATOM     22  C   UNL     1      47.185   4.076  17.319  0.00  0.00    +0.000 A 
ATOM     23  S   UNL     1      47.841   4.474  18.844  0.00  0.00    +0.000 S 
ATOM     24  C   UNL     1      48.933   5.584  18.152  0.00  0.00    +0.000 A 
ATOM     25  N   UNL     1      49.815   6.279  18.920  0.00  0.00    +0.000 NA
ATOM     26  C   UNL     1      50.559   7.108  18.264  0.00  0.00    +0.000 A 
ATOM     27  N   UNL     1      50.495   7.311  16.912  0.00  0.00    +0.000 N 
ATOM     28  C   UNL     1      49.643   6.611  16.092  0.00  0.00    +0.000 A 
ATOM     29  O   UNL     1      49.660   6.776  14.876  0.00  0.00    +0.000 OA
ATOM     30  C   UNL     1      48.790   5.657  16.779  0.00  0.00    +0.000 A 
ATOM     31  H   UNL     1      51.109   7.969  16.454  0.00  0.00    +0.000 HD
ENDBRANCH  18  21
ENDBRANCH   1  19
TORSDOF 7
ENDMDL
MODEL 3
REMARK VINA RESULT:    -7.562      1.299      1.767
REMARK INTER + INTRA:         -11.706
REMARK INTER:                 -11.368
REMARK INTRA:                  -0.338
REMARK UNBOUND:                -1.049
REMARK  Name = 
REMARK  7 active torsions:
REMARK  status: ('A' for Active; 'I' for Inactive)
REMARK    1  A    between atoms: C_2  and  C_19
REMARK    2  A    between atoms: N_3  and  C_4
REMARK    3  A    between atoms: C_4  and  C_5
REMARK    4  A    between atoms: N_8  and  C_9
REMARK    5  A    between atoms: C_9  and  C_10
REMARK    6  A    between atoms: C_10  and  C_11
REMARK    7  A    between atoms: C_11  and  C_12
REMARK                            x       y       z     vdW  Elec       q    Type
REMARK                         _______ _______ _______ _____ _____    ______ ____
ROOT
ATOM      1  C   UNL     1      45.202   4.507  13.559  0.00  0.00    +0.000 C 
ENDROOT
BRANCH   1   2
ATOM      2  C   UNL     1      44.371   5.604  12.877  0.00  0.00    +0.000 C 
ATOM      3  C   UNL     1      43.170   5.057  12.094  0.00  0.00    +0.000 C 
ATOM      4  C   UNL     1      43.586   4.280  10.845  0.00  0.00    +0.000 C 
ATOM      5  N   UNL     1      44.470   5.055   9.963  0.00  0.00    +0.000 NA
ATOM      6  C   UNL     1      45.635   5.613  10.669  0.00  0.00    +0.000 C 
ATOM      7  C   UNL     1      45.240   6.416  11.912  0.00  0.00    +0.000 C 
BRANCH   5   8
ATOM      8  C   UNL     1      44.925   4.247   8.813  0.00  0.00    +0.000 C 
BRANCH   8   9
ATOM      9  C   UNL     1      44.518   2.773   8.899  0.00  0.00    +0.000 C 
BRANCH   9  10
ATOM     10  C   UNL     1      45.712   1.839   8.697  0.00  0.00    +0.000 C 
BRANCH  10  11
ATOM     11  C   UNL     1      46.440   2.162   7.440  0.00  0.00    +0.000 A 
ATOM     12  N   UNL     1      45.991   2.872   6.426  0.00  0.00    +0.000 NA
ATOM     13  C   UNL     1      47.012   2.904   5.515  0.00  0.00    +0.000 A 
ATOM     14  C   UNL     1      48.097   2.199   5.975  0.00  0.00    +0.000 A 
ATOM     15  N   UNL     1      47.720   1.729   7.200  0.00  0.00    +0.000 N 
ATOM     16  H   UNL     1      48.279   1.166   7.828  0.00  0.00    +0.000 HD
ENDBRANCH  10  11
ENDBRANCH   9  10
ENDBRANCH   8   9
ENDBRANCH   5   8
ENDBRANCH   1   2
BRANCH   1  19
ATOM     17  O   UNL     1      47.527   3.203  14.580  0.00  0.00    +0.000 OA
ATOM     18  C   UNL     1      47.234   4.326  14.975  0.00  0.00    +0.000 C 
ATOM     19  N   UNL     1      46.177   5.043  14.476  0.00  0.00    +0.000 N 
ATOM     20  H   UNL     1      45.930   5.919  14.918  0.00  0.00    +0.000 HD
BRANCH  18  21
ATOM     21  C   UNL     1      48.034   5.033  15.982  0.00  0.00    +0.000 A 
ATOM     22  C   UNL     1      48.672   6.224  15.670  0.00  0.00    +0.000 A 
ATOM     23  S   UNL     1      49.480   6.927  17.001  0.00  0.00    +0.000 S 
ATOM     24  C   UNL     1      49.046   5.636  18.023  0.00  0.00    +0.000 A 
ATOM     25  N   UNL     1      49.415   5.617  19.333  0.00  0.00    +0.000 NA
ATOM     26  C   UNL     1      49.044   4.561  19.980  0.00  0.00    +0.000 A 
ATOM     27  N   UNL     1      48.344   3.520  19.434  0.00  0.00    +0.000 N 
ATOM     28  C   UNL     1      47.922   3.507  18.126  0.00  0.00    +0.000 A 
ATOM     29  O   UNL     1      47.241   2.584  17.691  0.00  0.00    +0.000 OA
ATOM     30  C   UNL     1      48.306   4.678  17.357  0.00  0.00    +0.000 A 
ATOM     31  H   UNL     1      48.075   2.722  19.993  0.00  0.00    +0.000 HD
ENDBRANCH  18  21
ENDBRANCH   1  19
TORSDOF 7
ENDMDL
MODEL 4
REMARK VINA RESULT:    -7.289      1.767      2.143
REMARK INTER + INTRA:         -11.321
REMARK INTER:                 -10.604
REMARK INTRA:                  -0.717
REMARK UNBOUND:                -1.049
REMARK  Name = 
REMARK  7 active torsions:
REMARK  status: ('A' for Active; 'I' for Inactive)
REMARK    1  A    between atoms: C_2  and  C_19
REMARK    2  A    between atoms: N_3  and  C_4
REMARK    3  A    between atoms: C_4  and  C_5
REMARK    4  A    between atoms: N_8  and  C_9
REMARK    5  A    between atoms: C_9  and  C_10
REMARK    6  A    between atoms: C_10  and  C_11
REMARK    7  A    between atoms: C_11  and  C_12
REMARK                            x       y       z     vdW  Elec       q    Type
REMARK                         _______ _______ _______ _____ _____    ______ ____
ROOT
ATOM      1  C   UNL     1      46.390   5.051  13.963  0.00  0.00    +0.000 C 
ENDROOT
BRANCH   1   2
ATOM      2  C   UNL     1      45.972   6.294  13.163  0.00  0.00    +0.000 C 
ATOM      3  C   UNL     1      44.452   6.438  13.015  0.00  0.00    +0.000 C 
ATOM      4  C   UNL     1      43.845   5.369  12.107  0.00  0.00    +0.000 C 
ATOM      5  N   UNL     1      44.490   5.312  10.787  0.00  0.00    +0.000 NA
ATOM      6  C   UNL     1      45.953   5.185  10.872  0.00  0.00    +0.000 C 
ATOM      7  C   UNL     1      46.587   6.261  11.760  0.00  0.00    +0.000 C 
BRANCH   5   8
ATOM      8  C   UNL     1      43.941   4.213   9.967  0.00  0.00    +0.000 C 
BRANCH   8   9
ATOM      9  C   UNL     1      44.643   2.870  10.191  0.00  0.00    +0.000 C 
BRANCH   9  10
ATOM     10  C   UNL     1      44.526   1.954   8.973  0.00  0.00    +0.000 C 
BRANCH  10  11
ATOM     11  C   UNL     1      45.798   1.924   8.200  0.00  0.00    +0.000 A 
ATOM     12  N   UNL     1      46.546   0.869   7.948  0.00  0.00    +0.000 NA
ATOM     13  C   UNL     1      47.597   1.330   7.203  0.00  0.00    +0.000 A 
ATOM     14  C   UNL     1      47.495   2.684   7.000  0.00  0.00    +0.000 A 
ATOM     15  N   UNL     1      46.346   3.052   7.642  0.00  0.00    +0.000 N 
ATOM     16  H   UNL     1      45.959   3.984   7.697  0.00  0.00    +0.000 HD
ENDBRANCH  10  11
ENDBRANCH   9  10
ENDBRANCH   8   9
ENDBRANCH   5   8
ENDBRANCH   1   2
BRANCH   1  19
ATOM     17  O   UNL     1      47.010   3.612  16.350  0.00  0.00    +0.000 OA
ATOM     18  C   UNL     1      47.633   4.632  16.072  0.00  0.00    +0.000 C 
ATOM     19  N   UNL     1      47.442   5.332  14.909  0.00  0.00    +0.000 N 
ATOM     20  H   UNL     1      47.915   6.218  14.791  0.00  0.00    +0.000 HD
BRANCH  18  21
ATOM     21  C   UNL     1      48.690   5.161  16.941  0.00  0.00    +0.000 A 
ATOM     22  C   UNL     1      48.664   6.482  17.363  0.00  0.00    +0.000 A 
ATOM     23  S   UNL     1      49.936   6.875  18.433  0.00  0.00    +0.000 S 
ATOM     24  C   UNL     1      50.592   5.307  18.325  0.00  0.00    +0.000 A 
ATOM     25  N   UNL     1      51.707   4.959  19.022  0.00  0.00    +0.000 NA
ATOM     26  C   UNL     1      52.110   3.747  18.819  0.00  0.00    +0.000 A 
ATOM     27  N   UNL     1      51.503   2.856  17.976  0.00  0.00    +0.000 N 
ATOM     28  C   UNL     1      50.359   3.151  17.275  0.00  0.00    +0.000 A 
ATOM     29  O   UNL     1      49.809   2.303  16.580  0.00  0.00    +0.000 OA
ATOM     30  C   UNL     1      49.858   4.499  17.477  0.00  0.00    +0.000 A 
ATOM     31  H   UNL     1      51.862   1.918  17.864  0.00  0.00    +0.000 HD
ENDBRANCH  18  21
ENDBRANCH   1  19
TORSDOF 7
ENDMDL
MODEL 5
REMARK VINA RESULT:    -7.142      4.015      8.914
REMARK INTER + INTRA:         -11.114
REMARK INTER:                 -10.048
REMARK INTRA:                  -1.065
REMARK UNBOUND:                -1.049
REMARK  Name = 
REMARK  7 active torsions:
REMARK  status: ('A' for Active; 'I' for Inactive)
REMARK    1  A    between atoms: C_2  and  C_19
REMARK    2  A    between atoms: N_3  and  C_4
REMARK    3  A    between atoms: C_4  and  C_5
REMARK    4  A    between atoms: N_8  and  C_9
REMARK    5  A    between atoms: C_9  and  C_10
REMARK    6  A    between atoms: C_10  and  C_11
REMARK    7  A    between atoms: C_11  and  C_12
REMARK                            x       y       z     vdW  Elec       q    Type
REMARK                         _______ _______ _______ _____ _____    ______ ____
ROOT
ATOM      1  C   UNL     1      48.495   5.614  16.215  0.00  0.00    +0.000 C 
ENDROOT
BRANCH   1   2
ATOM      2  C   UNL     1      48.061   4.822  17.458  0.00  0.00    +0.000 C 
ATOM      3  C   UNL     1      49.157   4.718  18.526  0.00  0.00    +0.000 C 
ATOM      4  C   UNL     1      50.323   3.831  18.089  0.00  0.00    +0.000 C 
ATOM      5  N   UNL     1      49.889   2.493  17.661  0.00  0.00    +0.000 NA
ATOM      6  C   UNL     1      48.828   2.537  16.642  0.00  0.00    +0.000 C 
ATOM      7  C   UNL     1      47.638   3.401  17.069  0.00  0.00    +0.000 C 
BRANCH   5   8
ATOM      8  C   UNL     1      51.026   1.694  17.162  0.00  0.00    +0.000 C 
BRANCH   8   9
ATOM      9  C   UNL     1      52.307   1.867  17.985  0.00  0.00    +0.000 C 
BRANCH   9  10
ATOM     10  C   UNL     1      53.497   1.152  17.344  0.00  0.00    +0.000 C 
BRANCH  10  11
ATOM     11  C   UNL     1      53.994   0.051  18.213  0.00  0.00    +0.000 A 
ATOM     12  N   UNL     1      55.176  -0.032  18.788  0.00  0.00    +0.000 NA
ATOM     13  C   UNL     1      55.166  -1.209  19.487  0.00  0.00    +0.000 A 
ATOM     14  C   UNL     1      53.965  -1.857  19.334  0.00  0.00    +0.000 A 
ATOM     15  N   UNL     1      53.228  -1.047  18.518  0.00  0.00    +0.000 N 
ATOM     16  H   UNL     1      52.284  -1.215  18.195  0.00  0.00    +0.000 HD
ENDBRANCH  10  11
ENDBRANCH   9  10
ENDBRANCH   8   9
ENDBRANCH   5   8
ENDBRANCH   1   2
BRANCH   1  19
ATOM     17  O   UNL     1      48.844   6.328  13.474  0.00  0.00    +0.000 OA
ATOM     18  C   UNL     1      47.733   6.011  13.885  0.00  0.00    +0.000 C 
ATOM     19  N   UNL     1      47.504   5.585  15.168  0.00  0.00    +0.000 N 
ATOM     20  H   UNL     1      46.549   5.437  15.470  0.00  0.00    +0.000 HD
BRANCH  18  21
ATOM     21  C   UNL     1      46.552   6.000  13.015  0.00  0.00    +0.000 A 
ATOM     22  C   UNL     1      46.045   7.182  12.496  0.00  0.00    +0.000 A 
ATOM     23  S   UNL     1      44.722   6.946  11.442  0.00  0.00    +0.000 S 
ATOM     24  C   UNL     1      44.752   5.260  11.686  0.00  0.00    +0.000 A 
ATOM     25  N   UNL     1      43.870   4.439  11.053  0.00  0.00    +0.000 NA
ATOM     26  C   UNL     1      43.989   3.188  11.358  0.00  0.00    +0.000 A 
ATOM     27  N   UNL     1      44.903   2.686  12.244  0.00  0.00    +0.000 N 
ATOM     28  C   UNL     1      45.832   3.470  12.884  0.00  0.00    +0.000 A 
ATOM     29  O   UNL     1      46.677   2.973  13.621  0.00  0.00    +0.000 OA
ATOM     30  C   UNL     1      45.749   4.885  12.567  0.00  0.00    +0.000 A 
ATOM     31  H   UNL     1      44.952   1.695  12.436  0.00  0.00    +0.000 HD
ENDBRANCH  18  21
ENDBRANCH   1  19
TORSDOF 7
ENDMDL
MODEL 6
REMARK VINA RESULT:    -6.839      3.398      8.540
REMARK INTER + INTRA:         -10.687
REMARK INTER:                  -9.197
REMARK INTRA:                  -1.490
REMARK UNBOUND:                -1.049
REMARK  Name = 
REMARK  7 active torsions:
REMARK  status: ('A' for Active; 'I' for Inactive)
REMARK    1  A    between atoms: C_2  and  C_19
REMARK    2  A    between atoms: N_3  and  C_4
REMARK    3  A    between atoms: C_4  and  C_5
REMARK    4  A    between atoms: N_8  and  C_9
REMARK    5  A    between atoms: C_9  and  C_10
REMARK    6  A    between atoms: C_10  and  C_11
REMARK    7  A    between atoms: C_11  and  C_12
REMARK                            x       y       z     vdW  Elec       q    Type
REMARK                         _______ _______ _______ _____ _____    ______ ____
ROOT
ATOM      1  C   UNL     1      49.076   6.721  15.692  0.00  0.00    +0.000 C 
ENDROOT
BRANCH   1   2
ATOM      2  C   UNL     1      49.471   8.204  15.769  0.00  0.00    +0.000 C 
ATOM      3  C   UNL     1      50.636   8.472  16.730  0.00  0.00    +0.000 C 
ATOM      4  C   UNL     1      50.252   8.263  18.195  0.00  0.00    +0.000 C 
ATOM      5  N   UNL     1      49.068   9.042  18.587  0.00  0.00    +0.000 NA
ATOM      6  C   UNL     1      47.922   8.829  17.689  0.00  0.00    +0.000 C 
ATOM      7  C   UNL     1      48.278   9.055  16.217  0.00  0.00    +0.000 C 
BRANCH   5   8
ATOM      8  C   UNL     1      48.670   8.751  19.980  0.00  0.00    +0.000 C 
BRANCH   8   9
ATOM      9  C   UNL     1      48.920   7.298  20.399  0.00  0.00    +0.000 C 
BRANCH   9  10
ATOM     10  C   UNL     1      47.648   6.454  20.316  0.00  0.00    +0.000 C 
BRANCH  10  11
ATOM     11  C   UNL     1      47.767   5.405  19.266  0.00  0.00    +0.000 A 
ATOM     12  N   UNL     1      48.773   4.573  19.089  0.00  0.00    +0.000 NA
ATOM     13  C   UNL     1      48.427   3.797  18.016  0.00  0.00    +0.000 A 
ATOM     14  C   UNL     1      47.197   4.163  17.526  0.00  0.00    +0.000 A 
ATOM     15  N   UNL     1      46.788   5.190  18.328  0.00  0.00    +0.000 N 
ATOM     16  H   UNL     1      45.919   5.702  18.256  0.00  0.00    +0.000 HD
ENDBRANCH  10  11
ENDBRANCH   9  10
ENDBRANCH   8   9
ENDBRANCH   5   8
ENDBRANCH   1   2
BRANCH   1  19
ATOM     17  O   UNL     1      49.027   6.202  12.885  0.00  0.00    +0.000 OA
ATOM     18  C   UNL     1      47.974   6.326  13.501  0.00  0.00    +0.000 C 
ATOM     19  N   UNL     1      47.919   6.501  14.860  0.00  0.00    +0.000 N 
ATOM     20  H   UNL     1      47.024   6.698  15.290  0.00  0.00    +0.000 HD
BRANCH  18  21
ATOM     21  C   UNL     1      46.668   6.233  12.840  0.00  0.00    +0.000 A 
ATOM     22  C   UNL     1      46.055   7.364  12.322  0.00  0.00    +0.000 A 
ATOM     23  S   UNL     1      44.584   7.031  11.521  0.00  0.00    +0.000 S 
ATOM     24  C   UNL     1      44.693   5.370  11.887  0.00  0.00    +0.000 A 
ATOM     25  N   UNL     1      43.740   4.492  11.472  0.00  0.00    +0.000 NA
ATOM     26  C   UNL     1      43.935   3.271  11.848  0.00  0.00    +0.000 A 
ATOM     27  N   UNL     1      44.993   2.851  12.608  0.00  0.00    +0.000 N 
ATOM     28  C   UNL     1      45.996   3.693  13.024  0.00  0.00    +0.000 A 
ATOM     29  O   UNL     1      46.961   3.265  13.649  0.00  0.00    +0.000 OA
ATOM     30  C   UNL     1      45.828   5.077  12.618  0.00  0.00    +0.000 A 
ATOM     31  H   UNL     1      45.096   1.879  12.865  0.00  0.00    +0.000 HD
ENDBRANCH  18  21
ENDBRANCH   1  19
TORSDOF 7
ENDMDL
MODEL 7
REMARK VINA RESULT:    -6.708      3.032      8.221
REMARK INTER + INTRA:         -10.502
REMARK INTER:                  -9.254
REMARK INTRA:                  -1.248
REMARK UNBOUND:                -1.049
REMARK  Name = 
REMARK  7 active torsions:
REMARK  status: ('A' for Active; 'I' for Inactive)
REMARK    1  A    between atoms: C_2  and  C_19
REMARK    2  A    between atoms: N_3  and  C_4
REMARK    3  A    between atoms: C_4  and  C_5
REMARK    4  A    between atoms: N_8  and  C_9
REMARK    5  A    between atoms: C_9  and  C_10
REMARK    6  A    between atoms: C_10  and  C_11
REMARK    7  A    between atoms: C_11  and  C_12
REMARK                            x       y       z     vdW  Elec       q    Type
REMARK                         _______ _______ _______ _____ _____    ______ ____
ROOT
ATOM      1  C   UNL     1      46.277   8.083  13.006  0.00  0.00    +0.000 C 
ENDROOT
BRANCH   1   2
ATOM      2  C   UNL     1      47.373   8.703  12.125  0.00  0.00    +0.000 C 
ATOM      3  C   UNL     1      48.547   7.752  11.858  0.00  0.00    +0.000 C 
ATOM      4  C   UNL     1      49.385   7.486  13.109  0.00  0.00    +0.000 C 
ATOM      5  N   UNL     1      49.856   8.723  13.749  0.00  0.00    +0.000 NA
ATOM      6  C   UNL     1      48.767   9.676  14.018  0.00  0.00    +0.000 C 
ATOM      7  C   UNL     1      47.927   9.976  12.773  0.00  0.00    +0.000 C 
BRANCH   5   8
ATOM      8  C   UNL     1      50.586   8.435  15.001  0.00  0.00    +0.000 C 
BRANCH   8   9
ATOM      9  C   UNL     1      50.305   7.041  15.569  0.00  0.00    +0.000 C 
BRANCH   9  10
ATOM     10  C   UNL     1      49.282   7.083  16.704  0.00  0.00    +0.000 C 
BRANCH  10  11
ATOM     11  C   UNL     1      48.523   5.805  16.792  0.00  0.00    +0.000 A 
ATOM     12  N   UNL     1      48.502   4.965  17.806  0.00  0.00    +0.000 NA
ATOM     13  C   UNL     1      47.664   3.950  17.429  0.00  0.00    +0.000 A 
ATOM     14  C   UNL     1      47.171   4.169  16.166  0.00  0.00    +0.000 A 
ATOM     15  N   UNL     1      47.727   5.351  15.769  0.00  0.00    +0.000 N 
ATOM     16  H   UNL     1      47.581   5.820  14.885  0.00  0.00    +0.000 HD
ENDBRANCH  10  11
ENDBRANCH   9  10
ENDBRANCH   8   9
ENDBRANCH   5   8
ENDBRANCH   1   2
BRANCH   1  19
ATOM     17  O   UNL     1      44.147   7.487  11.201  0.00  0.00    +0.000 OA
ATOM     18  C   UNL     1      44.780   6.575  11.721  0.00  0.00    +0.000 C 
ATOM     19  N   UNL     1      45.861   6.784  12.538  0.00  0.00    +0.000 N 
ATOM     20  H   UNL     1      46.273   5.992  13.015  0.00  0.00    +0.000 HD
BRANCH  18  21
ATOM     21  C   UNL     1      44.470   5.164  11.463  0.00  0.00    +0.000 A 
ATOM     22  C   UNL     1      43.748   4.418  12.383  0.00  0.00    +0.000 A 
ATOM     23  S   UNL     1      43.423   2.826  11.857  0.00  0.00    +0.000 S 
ATOM     24  C   UNL     1      44.281   3.067  10.405  0.00  0.00    +0.000 A 
ATOM     25  N   UNL     1      44.383   2.080   9.474  0.00  0.00    +0.000 NA
ATOM     26  C   UNL     1      45.090   2.392   8.437  0.00  0.00    +0.000 A 
ATOM     27  N   UNL     1      45.710   3.598   8.252  0.00  0.00    +0.000 N 
ATOM     28  C   UNL     1      45.610   4.635   9.149  0.00  0.00    +0.000 A 
ATOM     29  O   UNL     1      46.128   5.722   8.916  0.00  0.00    +0.000 OA
ATOM     30  C   UNL     1      44.817   4.338  10.328  0.00  0.00    +0.000 A 
ATOM     31  H   UNL     1      46.244   3.787   7.415  0.00  0.00    +0.000 HD
ENDBRANCH  18  21
ENDBRANCH   1  19
TORSDOF 7
ENDMDL
MODEL 8
REMARK VINA RESULT:    -6.595      3.941      7.990
REMARK INTER + INTRA:         -10.343
REMARK INTER:                  -9.164
REMARK INTRA:                  -1.179
REMARK UNBOUND:                -1.049
REMARK  Name = 
REMARK  7 active torsions:
REMARK  status: ('A' for Active; 'I' for Inactive)
REMARK    1  A    between atoms: C_2  and  C_19
REMARK    2  A    between atoms: N_3  and  C_4
REMARK    3  A    between atoms: C_4  and  C_5
REMARK    4  A    between atoms: N_8  and  C_9
REMARK    5  A    between atoms: C_9  and  C_10
REMARK    6  A    between atoms: C_10  and  C_11
REMARK    7  A    between atoms: C_11  and  C_12
REMARK                            x       y       z     vdW  Elec       q    Type
REMARK                         _______ _______ _______ _____ _____    ______ ____
ROOT
ATOM      1  C   UNL     1      47.551   3.494  16.452  0.00  0.00    +0.000 C 
ENDROOT
BRANCH   1   2
ATOM      2  C   UNL     1      47.419   3.925  17.921  0.00  0.00    +0.000 C 
ATOM      3  C   UNL     1      47.258   5.440  18.098  0.00  0.00    +0.000 C 
ATOM      4  C   UNL     1      48.530   6.213  17.749  0.00  0.00    +0.000 C 
ATOM      5  N   UNL     1      49.707   5.728  18.484  0.00  0.00    +0.000 NA
ATOM      6  C   UNL     1      49.902   4.275  18.356  0.00  0.00    +0.000 C 
ATOM      7  C   UNL     1      48.646   3.479  18.723  0.00  0.00    +0.000 C 
BRANCH   5   8
ATOM      8  C   UNL     1      50.934   6.434  18.060  0.00  0.00    +0.000 C 
BRANCH   8   9
ATOM      9  C   UNL     1      51.360   6.115  16.623  0.00  0.00    +0.000 C 
BRANCH   9  10
ATOM     10  C   UNL     1      51.936   7.341  15.914  0.00  0.00    +0.000 C 
BRANCH  10  11
ATOM     11  C   UNL     1      50.934   7.950  14.996  0.00  0.00    +0.000 A 
ATOM     12  N   UNL     1      49.954   8.767  15.324  0.00  0.00    +0.000 NA
ATOM     13  C   UNL     1      49.312   9.064  14.152  0.00  0.00    +0.000 A 
ATOM     14  C   UNL     1      49.902   8.416  13.095  0.00  0.00    +0.000 A 
ATOM     15  N   UNL     1      50.932   7.707  13.645  0.00  0.00    +0.000 N 
ATOM     16  H   UNL     1      51.585   7.112  13.153  0.00  0.00    +0.000 HD
ENDBRANCH  10  11
ENDBRANCH   9  10
ENDBRANCH   8   9
ENDBRANCH   5   8
ENDBRANCH   1   2
BRANCH   1  19
ATOM     17  O   UNL     1      47.129   3.148  13.650  0.00  0.00    +0.000 OA
ATOM     18  C   UNL     1      46.757   4.179  14.201  0.00  0.00    +0.000 C 
ATOM     19  N   UNL     1      46.858   4.383  15.552  0.00  0.00    +0.000 N 
ATOM     20  H   UNL     1      46.627   5.295  15.926  0.00  0.00    +0.000 HD
BRANCH  18  21
ATOM     21  C   UNL     1      46.108   5.268  13.461  0.00  0.00    +0.000 A 
ATOM     22  C   UNL     1      46.748   6.486  13.291  0.00  0.00    +0.000 A 
ATOM     23  S   UNL     1      45.861   7.587  12.332  0.00  0.00    +0.000 S 
ATOM     24  C   UNL     1      44.571   6.489  12.159  0.00  0.00    +0.000 A 
ATOM     25  N   UNL     1      43.468   6.806  11.427  0.00  0.00    +0.000 NA
ATOM     26  C   UNL     1      42.556   5.890  11.408  0.00  0.00    +0.000 A 
ATOM     27  N   UNL     1      42.643   4.691  12.062  0.00  0.00    +0.000 N 
ATOM     28  C   UNL     1      43.748   4.314  12.787  0.00  0.00    +0.000 A 
ATOM     29  O   UNL     1      43.814   3.204  13.305  0.00  0.00    +0.000 OA
ATOM     30  C   UNL     1      44.808   5.305  12.831  0.00  0.00    +0.000 A 
ATOM     31  H   UNL     1      41.898   4.010  12.004  0.00  0.00    +0.000 HD
ENDBRANCH  18  21
ENDBRANCH   1  19
TORSDOF 7
ENDMDL
MODEL 9
REMARK VINA RESULT:    -6.587      3.969      8.939
REMARK INTER + INTRA:         -10.331
REMARK INTER:                  -9.496
REMARK INTRA:                  -0.835
REMARK UNBOUND:                -1.049
REMARK  Name = 
REMARK  7 active torsions:
REMARK  status: ('A' for Active; 'I' for Inactive)
REMARK    1  A    between atoms: C_2  and  C_19
REMARK    2  A    between atoms: N_3  and  C_4
REMARK    3  A    between atoms: C_4  and  C_5
REMARK    4  A    between atoms: N_8  and  C_9
REMARK    5  A    between atoms: C_9  and  C_10
REMARK    6  A    between atoms: C_10  and  C_11
REMARK    7  A    between atoms: C_11  and  C_12
REMARK                            x       y       z     vdW  Elec       q    Type
REMARK                         _______ _______ _______ _____ _____    ______ ____
ROOT
ATOM      1  C   UNL     1      47.384   3.682  16.556  0.00  0.00    +0.000 C 
ENDROOT
BRANCH   1   2
ATOM      2  C   UNL     1      47.660   4.411  17.880  0.00  0.00    +0.000 C 
ATOM      3  C   UNL     1      48.297   5.794  17.691  0.00  0.00    +0.000 C 
ATOM      4  C   UNL     1      49.733   5.715  17.173  0.00  0.00    +0.000 C 
ATOM      5  N   UNL     1      50.590   4.859  18.007  0.00  0.00    +0.000 NA
ATOM      6  C   UNL     1      50.018   3.522  18.229  0.00  0.00    +0.000 C 
ATOM      7  C   UNL     1      48.586   3.577  18.770  0.00  0.00    +0.000 C 
BRANCH   5   8
ATOM      8  C   UNL     1      51.945   4.733  17.433  0.00  0.00    +0.000 C 
BRANCH   8   9
ATOM      9  C   UNL     1      53.067   4.910  18.460  0.00  0.00    +0.000 C 
BRANCH   9  10
ATOM     10  C   UNL     1      53.260   3.658  19.316  0.00  0.00    +0.000 C 
BRANCH  10  11
ATOM     11  C   UNL     1      53.603   2.479  18.474  0.00  0.00    +0.000 A 
ATOM     12  N   UNL     1      54.624   2.366  17.649  0.00  0.00    +0.000 NA
ATOM     13  C   UNL     1      54.529   1.111  17.111  0.00  0.00    +0.000 A 
ATOM     14  C   UNL     1      53.433   0.450  17.608  0.00  0.00    +0.000 A 
ATOM     15  N   UNL     1      52.849   1.332  18.473  0.00  0.00    +0.000 N 
ATOM     16  H   UNL     1      52.014   1.176  19.022  0.00  0.00    +0.000 HD
ENDBRANCH  10  11
ENDBRANCH   9  10
ENDBRANCH   8   9
ENDBRANCH   5   8
ENDBRANCH   1   2
BRANCH   1  19
ATOM     17  O   UNL     1      47.153   3.236  13.746  0.00  0.00    +0.000 OA
ATOM     18  C   UNL     1      46.732   4.278  14.235  0.00  0.00    +0.000 C 
ATOM     19  N   UNL     1      46.741   4.530  15.583  0.00  0.00    +0.000 N 
ATOM     20  H   UNL     1      46.473   5.449  15.909  0.00  0.00    +0.000 HD
BRANCH  18  21
ATOM     21  C   UNL     1      46.119   5.332  13.418  0.00  0.00    +0.000 A 
ATOM     22  C   UNL     1      46.809   6.501  13.138  0.00  0.00    +0.000 A 
ATOM     23  S   UNL     1      45.955   7.560  12.105  0.00  0.00    +0.000 S 
ATOM     24  C   UNL     1      44.614   6.512  12.041  0.00  0.00    +0.000 A 
ATOM     25  N   UNL     1      43.513   6.818  11.302  0.00  0.00    +0.000 NA
ATOM     26  C   UNL     1      42.561   5.946  11.373  0.00  0.00    +0.000 A 
ATOM     27  N   UNL     1      42.606   4.802  12.122  0.00  0.00    +0.000 N 
ATOM     28  C   UNL     1      43.706   4.435  12.860  0.00  0.00    +0.000 A 
ATOM     29  O   UNL     1      43.732   3.370  13.467  0.00  0.00    +0.000 OA
ATOM     30  C   UNL     1      44.810   5.377  12.806  0.00  0.00    +0.000 A 
ATOM     31  H   UNL     1      41.831   4.154  12.132  0.00  0.00    +0.000 HD
ENDBRANCH  18  21
ENDBRANCH   1  19
TORSDOF 7
ENDMDL
