MODEL 1
REMARK VINA RESULT:    -8.476      0.000      0.000
REMARK INTER + INTRA:         -13.005
REMARK INTER:                 -11.945
REMARK INTRA:                  -1.060
REMARK UNBOUND:                -1.060
REMARK  Name = 
REMARK  8 active torsions:
REMARK  status: ('A' for Active; 'I' for Inactive)
REMARK    1  A    between atoms: C_1  and  C_2
REMARK    2  A    between atoms: C_2  and  C_3
REMARK    3  A    between atoms: C_2  and  N_24
REMARK    4  A    between atoms: C_3  and  C_4
REMARK    5  A    between atoms: C_7  and  C_8
REMARK    6  A    between atoms: C_8  and  N_9
REMARK    7  A    between atoms: C_10  and  C_12
REMARK    8  A    between atoms: N_24  and  C_25
REMARK                            x       y       z     vdW  Elec       q    Type
REMARK                         _______ _______ _______ _____ _____    ______ ____
ROOT
ATOM      1  C   UNL     1      46.151   5.165  12.824  0.00  0.00    +0.000 A 
ATOM      2  C   UNL     1      46.728   6.371  12.403  0.00  0.00    +0.000 A 
ATOM      3  C   UNL     1      47.645   7.047  13.219  0.00  0.00    +0.000 A 
ATOM      4  C   UNL     1      48.019   6.521  14.464  0.00  0.00    +0.000 A 
ATOM      5  C   UNL     1      47.438   5.318  14.883  0.00  0.00    +0.000 A 
ATOM      6  C   UNL     1      46.525   4.644  14.069  0.00  0.00    +0.000 A 
ENDROOT
BRANCH   1   7
ATOM      7  C   UNL     1      45.089   4.470  12.000  0.00  0.00    +0.000 C 
BRANCH   7   9
ATOM      8  C   UNL     1      42.686   5.159  12.012  0.00  0.00    +0.000 C 
ATOM      9  C   UNL     1      44.026   5.329  11.273  0.00  0.00    +0.000 C 
BRANCH   9  10
ATOM     10  N   UNL     1      43.834   4.897   9.881  0.00  0.00    +0.000 N 
ATOM     11  H   UNL     1      43.577   5.643   9.238  0.00  0.00    +0.000 HD
BRANCH  10  12
ATOM     12  C   UNL     1      44.668   3.967   9.265  0.00  0.00    +0.000 A 
ATOM     13  C   UNL     1      44.559   2.583   9.430  0.00  0.00    +0.000 A 
ATOM     14  C   UNL     1      45.385   1.693   8.739  0.00  0.00    +0.000 A 
ATOM     15  C   UNL     1      46.320   2.182   7.837  0.00  0.00    +0.000 A 
ATOM     16 CL   UNL     1      47.324   1.088   6.970  0.00  0.00    +0.000 Cl
ATOM     17  C   UNL     1      46.436   3.552   7.628  0.00  0.00    +0.000 A 
ATOM     18  C   UNL     1      45.614   4.435   8.340  0.00  0.00    +0.000 A 
ENDBRANCH  10  12
ENDBRANCH   9  10
ENDBRANCH   7   9
ENDBRANCH   1   7
BRANCH   4  19
ATOM     19  C   UNL     1      48.985   7.248  15.364  0.00  0.00    +0.000 C 
BRANCH  19  20
ATOM     20  N   UNL     1      50.016   6.363  15.842  0.00  0.00    +0.000 N 
ATOM     21  C   UNL     1      50.111   6.020  17.165  0.00  0.00    +0.000 C 
ATOM     22  O   UNL     1      49.309   6.418  18.007  0.00  0.00    +0.000 OA
ATOM     23  H   UNL     1      50.819   6.229  15.236  0.00  0.00    +0.000 HD
BRANCH  21  24
ATOM     24  C   UNL     1      51.185   5.081  17.513  0.00  0.00    +0.000 A 
ATOM     25  C   UNL     1      52.412   5.565  17.949  0.00  0.00    +0.000 A 
ATOM     26  S   UNL     1      53.509   4.335  18.392  0.00  0.00    +0.000 S 
ATOM     27  C   UNL     1      52.407   3.115  17.951  0.00  0.00    +0.000 A 
ATOM     28  N   UNL     1      52.738   1.800  18.060  0.00  0.00    +0.000 NA
ATOM     29  C   UNL     1      51.819   0.985  17.661  0.00  0.00    +0.000 A 
ATOM     30  N   UNL     1      50.595   1.365  17.167  0.00  0.00    +0.000 N 
ATOM     31  C   UNL     1      50.209   2.680  17.068  0.00  0.00    +0.000 A 
ATOM     32  O   UNL     1      49.095   2.989  16.667  0.00  0.00    +0.000 OA
ATOM     33  C   UNL     1      51.212   3.638  17.492  0.00  0.00    +0.000 A 
ATOM     34  H   UNL     1      49.918   0.677  16.879  0.00  0.00    +0.000 HD
ENDBRANCH  21  24
ENDBRANCH  19  20
ENDBRANCH   4  19
TORSDOF 7
ENDMDL
MODEL 2
REMARK VINA RESULT:    -8.254      2.371      3.214
REMARK INTER + INTRA:         -12.691
REMARK INTER:                 -11.643
REMARK INTRA:                  -1.048
REMARK UNBOUND:                -1.060
REMARK  Name = 
REMARK  8 active torsions:
REMARK  status: ('A' for Active; 'I' for Inactive)
REMARK    1  A    between atoms: C_1  and  C_2
REMARK    2  A    between atoms: C_2  and  C_3
REMARK    3  A    between atoms: C_2  and  N_24
REMARK    4  A    between atoms: C_3  and  C_4
REMARK    5  A    between atoms: C_7  and  C_8
REMARK    6  A    between atoms: C_8  and  N_9
REMARK    7  A    between atoms: C_10  and  C_12
REMARK    8  A    between atoms: N_24  and  C_25
REMARK                            x       y       z     vdW  Elec       q    Type
REMARK                         _______ _______ _______ _____ _____    ______ ____
ROOT
ATOM      1  C   UNL     1      44.893   5.173  11.566  0.00  0.00    +0.000 A 
ATOM      2  C   UNL     1      45.225   4.754  12.862  0.00  0.00    +0.000 A 
ATOM      3  C   UNL     1      46.358   5.262  13.509  0.00  0.00    +0.000 A 
ATOM      4  C   UNL     1      47.174   6.215  12.881  0.00  0.00    +0.000 A 
ATOM      5  C   UNL     1      46.842   6.630  11.586  0.00  0.00    +0.000 A 
ATOM      6  C   UNL     1      45.711   6.124  10.941  0.00  0.00    +0.000 A 
ENDROOT
BRANCH   1   7
ATOM      7  C   UNL     1      43.727   4.566  10.815  0.00  0.00    +0.000 C 
BRANCH   7   9
ATOM      8  C   UNL     1      43.241   2.282  11.706  0.00  0.00    +0.000 C 
ATOM      9  C   UNL     1      43.760   3.055  10.480  0.00  0.00    +0.000 C 
BRANCH   9  10
ATOM     10  N   UNL     1      45.126   2.590  10.195  0.00  0.00    +0.000 N 
ATOM     11  H   UNL     1      45.398   1.746  10.695  0.00  0.00    +0.000 HD
BRANCH  10  12
ATOM     12  C   UNL     1      45.671   2.614   8.913  0.00  0.00    +0.000 A 
ATOM     13  C   UNL     1      45.845   3.775   8.155  0.00  0.00    +0.000 A 
ATOM     14  C   UNL     1      46.455   3.748   6.898  0.00  0.00    +0.000 A 
ATOM     15  C   UNL     1      46.935   2.548   6.393  0.00  0.00    +0.000 A 
ATOM     16 CL   UNL     1      47.704   2.516   4.856  0.00  0.00    +0.000 Cl
ATOM     17  C   UNL     1      46.803   1.378   7.133  0.00  0.00    +0.000 A 
ATOM     18  C   UNL     1      46.174   1.415   8.384  0.00  0.00    +0.000 A 
ENDBRANCH  10  12
ENDBRANCH   9  10
ENDBRANCH   7   9
ENDBRANCH   1   7
BRANCH   4  19
ATOM     19  C   UNL     1      48.411   6.753  13.553  0.00  0.00    +0.000 C 
BRANCH  19  20
ATOM     20  N   UNL     1      48.261   6.765  14.986  0.00  0.00    +0.000 N 
ATOM     21  C   UNL     1      49.336   6.932  15.819  0.00  0.00    +0.000 C 
ATOM     22  O   UNL     1      50.474   7.115  15.394  0.00  0.00    +0.000 OA
ATOM     23  H   UNL     1      47.402   6.372  15.358  0.00  0.00    +0.000 HD
BRANCH  21  24
ATOM     24  C   UNL     1      49.039   6.961  17.257  0.00  0.00    +0.000 A 
ATOM     25  C   UNL     1      48.738   8.168  17.876  0.00  0.00    +0.000 A 
ATOM     26  S   UNL     1      48.334   8.003  19.526  0.00  0.00    +0.000 S 
ATOM     27  C   UNL     1      48.614   6.325  19.485  0.00  0.00    +0.000 A 
ATOM     28  N   UNL     1      48.471   5.563  20.603  0.00  0.00    +0.000 NA
ATOM     29  C   UNL     1      48.745   4.312  20.434  0.00  0.00    +0.000 A 
ATOM     30  N   UNL     1      49.148   3.752  19.247  0.00  0.00    +0.000 N 
ATOM     31  C   UNL     1      49.277   4.478  18.088  0.00  0.00    +0.000 A 
ATOM     32  O   UNL     1      49.592   3.944  17.033  0.00  0.00    +0.000 OA
ATOM     33  C   UNL     1      48.991   5.893  18.226  0.00  0.00    +0.000 A 
ATOM     34  H   UNL     1      49.340   2.765  19.181  0.00  0.00    +0.000 HD
ENDBRANCH  21  24
ENDBRANCH  19  20
ENDBRANCH   4  19
TORSDOF 7
ENDMDL
MODEL 3
REMARK VINA RESULT:    -8.091      1.410      1.904
REMARK INTER + INTRA:         -12.462
REMARK INTER:                 -11.100
REMARK INTRA:                  -1.362
REMARK UNBOUND:                -1.060
REMARK  Name = 
REMARK  8 active torsions:
REMARK  status: ('A' for Active; 'I' for Inactive)
REMARK    1  A    between atoms: C_1  and  C_2
REMARK    2  A    between atoms: C_2  and  C_3
REMARK    3  A    between atoms: C_2  and  N_24
REMARK    4  A    between atoms: C_3  and  C_4
REMARK    5  A    between atoms: C_7  and  C_8
REMARK    6  A    between atoms: C_8  and  N_9
REMARK    7  A    between atoms: C_10  and  C_12
REMARK    8  A    between atoms: N_24  and  C_25
REMARK                            x       y       z     vdW  Elec       q    Type
REMARK                         _______ _______ _______ _____ _____    ______ ____
ROOT
ATOM      1  C   UNL     1      46.126   5.449  12.400  0.00  0.00    +0.000 A 
ATOM      2  C   UNL     1      46.788   5.293  13.626  0.00  0.00    +0.000 A 
ATOM      3  C   UNL     1      47.851   6.137  13.975  0.00  0.00    +0.000 A 
ATOM      4  C   UNL     1      48.262   7.165  13.114  0.00  0.00    +0.000 A 
ATOM      5  C   UNL     1      47.600   7.316  11.889  0.00  0.00    +0.000 A 
ATOM      6  C   UNL     1      46.539   6.475  11.542  0.00  0.00    +0.000 A 
ENDROOT
BRANCH   1   7
ATOM      7  C   UNL     1      45.038   4.490  11.965  0.00  0.00    +0.000 C 
BRANCH   7   9
ATOM      8  C   UNL     1      42.647   5.170  11.715  0.00  0.00    +0.000 C 
ATOM      9  C   UNL     1      43.971   4.979  10.956  0.00  0.00    +0.000 C 
BRANCH   9  10
ATOM     10  N   UNL     1      43.743   3.996   9.885  0.00  0.00    +0.000 N 
ATOM     11  H   UNL     1      42.920   4.177   9.314  0.00  0.00    +0.000 HD
BRANCH  10  12
ATOM     12  C   UNL     1      44.782   3.470   9.120  0.00  0.00    +0.000 A 
ATOM     13  C   UNL     1      45.084   2.108   9.037  0.00  0.00    +0.000 A 
ATOM     14  C   UNL     1      46.099   1.630   8.203  0.00  0.00    +0.000 A 
ATOM     15  C   UNL     1      46.811   2.518   7.408  0.00  0.00    +0.000 A 
ATOM     16 CL   UNL     1      48.047   1.930   6.368  0.00  0.00    +0.000 Cl
ATOM     17  C   UNL     1      46.517   3.877   7.446  0.00  0.00    +0.000 A 
ATOM     18  C   UNL     1      45.509   4.346   8.298  0.00  0.00    +0.000 A 
ENDBRANCH  10  12
ENDBRANCH   9  10
ENDBRANCH   7   9
ENDBRANCH   1   7
BRANCH   4  19
ATOM     19  C   UNL     1      49.419   8.065  13.463  0.00  0.00    +0.000 C 
BRANCH  19  20
ATOM     20  N   UNL     1      50.443   7.342  14.173  0.00  0.00    +0.000 N 
ATOM     21  C   UNL     1      50.657   7.530  15.513  0.00  0.00    +0.000 C 
ATOM     22  O   UNL     1      49.970   8.295  16.187  0.00  0.00    +0.000 OA
ATOM     23  H   UNL     1      51.171   6.911  13.610  0.00  0.00    +0.000 HD
BRANCH  21  24
ATOM     24  C   UNL     1      51.708   6.704  16.122  0.00  0.00    +0.000 A 
ATOM     25  C   UNL     1      53.043   6.974  15.851  0.00  0.00    +0.000 A 
ATOM     26  S   UNL     1      54.126   5.974  16.710  0.00  0.00    +0.000 S 
ATOM     27  C   UNL     1      52.848   5.102  17.418  0.00  0.00    +0.000 A 
ATOM     28  N   UNL     1      53.092   4.063  18.262  0.00  0.00    +0.000 NA
ATOM     29  C   UNL     1      52.031   3.473  18.702  0.00  0.00    +0.000 A 
ATOM     30  N   UNL     1      50.745   3.830  18.377  0.00  0.00    +0.000 N 
ATOM     31  C   UNL     1      50.453   4.889  17.553  0.00  0.00    +0.000 A 
ATOM     32  O   UNL     1      49.297   5.214  17.317  0.00  0.00    +0.000 OA
ATOM     33  C   UNL     1      51.612   5.580  17.022  0.00  0.00    +0.000 A 
ATOM     34  H   UNL     1      49.958   3.331  18.760  0.00  0.00    +0.000 HD
ENDBRANCH  21  24
ENDBRANCH  19  20
ENDBRANCH   4  19
TORSDOF 7
ENDMDL
MODEL 4
REMARK VINA RESULT:    -7.833      3.695      4.552
REMARK INTER + INTRA:         -12.099
REMARK INTER:                 -10.917
REMARK INTRA:                  -1.181
REMARK UNBOUND:                -1.060
REMARK  Name = 
REMARK  8 active torsions:
REMARK  status: ('A' for Active; 'I' for Inactive)
REMARK    1  A    between atoms: C_1  and  C_2
REMARK    2  A    between atoms: C_2  and  C_3
REMARK    3  A    between atoms: C_2  and  N_24
REMARK    4  A    between atoms: C_3  and  C_4
REMARK    5  A    between atoms: C_7  and  C_8
REMARK    6  A    between atoms: C_8  and  N_9
REMARK    7  A    between atoms: C_10  and  C_12
REMARK    8  A    between atoms: N_24  and  C_25
REMARK                            x       y       z     vdW  Elec       q    Type
REMARK                         _______ _______ _______ _____ _____    ______ ____
ROOT
ATOM      1  C   UNL     1      45.812   5.427  12.428  0.00  0.00    +0.000 A 
ATOM      2  C   UNL     1      46.944   5.255  13.237  0.00  0.00    +0.000 A 
ATOM      3  C   UNL     1      47.596   6.361  13.798  0.00  0.00    +0.000 A 
ATOM      4  C   UNL     1      47.119   7.661  13.576  0.00  0.00    +0.000 A 
ATOM      5  C   UNL     1      45.991   7.830  12.765  0.00  0.00    +0.000 A 
ATOM      6  C   UNL     1      45.340   6.727  12.207  0.00  0.00    +0.000 A 
ENDROOT
BRANCH   1   7
ATOM      7  C   UNL     1      45.151   4.253  11.738  0.00  0.00    +0.000 C 
BRANCH   7   9
ATOM      8  C   UNL     1      42.679   4.587  11.585  0.00  0.00    +0.000 C 
ATOM      9  C   UNL     1      43.978   4.524  10.764  0.00  0.00    +0.000 C 
BRANCH   9  10
ATOM     10  N   UNL     1      43.835   3.448   9.771  0.00  0.00    +0.000 N 
ATOM     11  H   UNL     1      42.914   3.388   9.343  0.00  0.00    +0.000 HD
BRANCH  10  12
ATOM     12  C   UNL     1      44.838   3.139   8.855  0.00  0.00    +0.000 A 
ATOM     13  C   UNL     1      45.465   4.077   8.029  0.00  0.00    +0.000 A 
ATOM     14  C   UNL     1      46.509   3.720   7.172  0.00  0.00    +0.000 A 
ATOM     15  C   UNL     1      46.967   2.410   7.154  0.00  0.00    +0.000 A 
ATOM     16 CL   UNL     1      48.265   1.973   6.115  0.00  0.00    +0.000 Cl
ATOM     17  C   UNL     1      46.384   1.457   7.983  0.00  0.00    +0.000 A 
ATOM     18  C   UNL     1      45.326   1.823   8.825  0.00  0.00    +0.000 A 
ENDBRANCH  10  12
ENDBRANCH   9  10
ENDBRANCH   7   9
ENDBRANCH   1   7
BRANCH   4  19
ATOM     19  C   UNL     1      47.823   8.863  14.151  0.00  0.00    +0.000 C 
BRANCH  19  20
ATOM     20  N   UNL     1      47.561   8.994  15.561  0.00  0.00    +0.000 N 
ATOM     21  C   UNL     1      48.357   9.760  16.372  0.00  0.00    +0.000 C 
ATOM     22  O   UNL     1      49.312  10.400  15.939  0.00  0.00    +0.000 OA
ATOM     23  H   UNL     1      46.954   8.295  15.979  0.00  0.00    +0.000 HD
BRANCH  21  24
ATOM     24  C   UNL     1      47.957   9.837  17.783  0.00  0.00    +0.000 A 
ATOM     25  C   UNL     1      47.589  11.060  18.330  0.00  0.00    +0.000 A 
ATOM     26  S   UNL     1      47.070  10.949  19.952  0.00  0.00    +0.000 S 
ATOM     27  C   UNL     1      47.384   9.277  19.998  0.00  0.00    +0.000 A 
ATOM     28  N   UNL     1      47.174   8.555  21.132  0.00  0.00    +0.000 NA
ATOM     29  C   UNL     1      47.483   7.305  21.033  0.00  0.00    +0.000 A 
ATOM     30  N   UNL     1      47.981   6.709  19.901  0.00  0.00    +0.000 N 
ATOM     31  C   UNL     1      48.180   7.393  18.726  0.00  0.00    +0.000 A 
ATOM     32  O   UNL     1      48.580   6.826  17.718  0.00  0.00    +0.000 OA
ATOM     33  C   UNL     1      47.859   8.806  18.787  0.00  0.00    +0.000 A 
ATOM     34  H   UNL     1      48.196   5.725  19.887  0.00  0.00    +0.000 HD
ENDBRANCH  21  24
ENDBRANCH  19  20
ENDBRANCH   4  19
TORSDOF 7
ENDMDL
MODEL 5
REMARK VINA RESULT:    -7.668      2.312      2.519
REMARK INTER + INTRA:         -11.866
REMARK INTER:                 -10.762
REMARK INTRA:                  -1.104
REMARK UNBOUND:                -1.060
REMARK  Name = 
REMARK  8 active torsions:
REMARK  status: ('A' for Active; 'I' for Inactive)
REMARK    1  A    between atoms: C_1  and  C_2
REMARK    2  A    between atoms: C_2  and  C_3
REMARK    3  A    between atoms: C_2  and  N_24
REMARK    4  A    between atoms: C_3  and  C_4
REMARK    5  A    between atoms: C_7  and  C_8
REMARK    6  A    between atoms: C_8  and  N_9
REMARK    7  A    between atoms: C_10  and  C_12
REMARK    8  A    between atoms: N_24  and  C_25
REMARK                            x       y       z     vdW  Elec       q    Type
REMARK                         _______ _______ _______ _____ _____    ______ ____
ROOT
ATOM      1  C   UNL     1      46.017   5.820  12.583  0.00  0.00    +0.000 A 
ATOM      2  C   UNL     1      47.073   5.327  13.362  0.00  0.00    +0.000 A 
ATOM      3  C   UNL     1      47.921   6.202  14.054  0.00  0.00    +0.000 A 
ATOM      4  C   UNL     1      47.719   7.589  13.995  0.00  0.00    +0.000 A 
ATOM      5  C   UNL     1      46.666   8.079  13.214  0.00  0.00    +0.000 A 
ATOM      6  C   UNL     1      45.819   7.206  12.526  0.00  0.00    +0.000 A 
ENDROOT
BRANCH   1   7
ATOM      7  C   UNL     1      45.149   4.897  11.756  0.00  0.00    +0.000 C 
BRANCH   7   9
ATOM      8  C   UNL     1      42.681   5.246  11.939  0.00  0.00    +0.000 C 
ATOM      9  C   UNL     1      43.908   5.482  11.039  0.00  0.00    +0.000 C 
BRANCH   9  10
ATOM     10  N   UNL     1      43.659   4.818   9.751  0.00  0.00    +0.000 N 
ATOM     11  H   UNL     1      43.252   5.419   9.037  0.00  0.00    +0.000 HD
BRANCH  10  12
ATOM     12  C   UNL     1      44.555   3.909   9.193  0.00  0.00    +0.000 A 
ATOM     13  C   UNL     1      44.507   2.528   9.403  0.00  0.00    +0.000 A 
ATOM     14  C   UNL     1      45.395   1.656   8.767  0.00  0.00    +0.000 A 
ATOM     15  C   UNL     1      46.333   2.159   7.877  0.00  0.00    +0.000 A 
ATOM     16 CL   UNL     1      47.414   1.087   7.079  0.00  0.00    +0.000 Cl
ATOM     17  C   UNL     1      46.390   3.526   7.624  0.00  0.00    +0.000 A 
ATOM     18  C   UNL     1      45.506   4.391   8.280  0.00  0.00    +0.000 A 
ENDBRANCH  10  12
ENDBRANCH   9  10
ENDBRANCH   7   9
ENDBRANCH   1   7
BRANCH   4  19
ATOM     19  C   UNL     1      48.637   8.546  14.712  0.00  0.00    +0.000 C 
BRANCH  19  20
ATOM     20  N   UNL     1      48.931   8.084  16.044  0.00  0.00    +0.000 N 
ATOM     21  C   UNL     1      50.126   7.486  16.349  0.00  0.00    +0.000 C 
ATOM     22  O   UNL     1      51.020   7.342  15.518  0.00  0.00    +0.000 OA
ATOM     23  H   UNL     1      48.141   7.959  16.669  0.00  0.00    +0.000 HD
BRANCH  21  24
ATOM     24  C   UNL     1      50.313   7.095  17.752  0.00  0.00    +0.000 A 
ATOM     25  C   UNL     1      51.296   7.711  18.516  0.00  0.00    +0.000 A 
ATOM     26  S   UNL     1      51.313   7.199  20.144  0.00  0.00    +0.000 S 
ATOM     27  C   UNL     1      50.053   6.088  19.866  0.00  0.00    +0.000 A 
ATOM     28  N   UNL     1      49.590   5.289  20.865  0.00  0.00    +0.000 NA
ATOM     29  C   UNL     1      48.655   4.474  20.506  0.00  0.00    +0.000 A 
ATOM     30  N   UNL     1      48.136   4.388  19.237  0.00  0.00    +0.000 N 
ATOM     31  C   UNL     1      48.552   5.195  18.207  0.00  0.00    +0.000 A 
ATOM     32  O   UNL     1      48.039   5.129  17.098  0.00  0.00    +0.000 OA
ATOM     33  C   UNL     1      49.612   6.122  18.555  0.00  0.00    +0.000 A 
ATOM     34  H   UNL     1      47.401   3.734  19.024  0.00  0.00    +0.000 HD
ENDBRANCH  21  24
ENDBRANCH  19  20
ENDBRANCH   4  19
TORSDOF 7
ENDMDL
MODEL 6
REMARK VINA RESULT:    -7.534      4.169      8.779
REMARK INTER + INTRA:         -11.677
REMARK INTER:                  -9.800
REMARK INTRA:                  -1.877
REMARK UNBOUND:                -1.060
REMARK  Name = 
REMARK  8 active torsions:
REMARK  status: ('A' for Active; 'I' for Inactive)
REMARK    1  A    between atoms: C_1  and  C_2
REMARK    2  A    between atoms: C_2  and  C_3
REMARK    3  A    between atoms: C_2  and  N_24
REMARK    4  A    between atoms: C_3  and  C_4
REMARK    5  A    between atoms: C_7  and  C_8
REMARK    6  A    between atoms: C_8  and  N_9
REMARK    7  A    between atoms: C_10  and  C_12
REMARK    8  A    between atoms: N_24  and  C_25
REMARK                            x       y       z     vdW  Elec       q    Type
REMARK                         _______ _______ _______ _____ _____    ______ ____
ROOT
ATOM      1  C   UNL     1      48.742   8.176  16.189  0.00  0.00    +0.000 A 
ATOM      2  C   UNL     1      48.938   6.953  15.532  0.00  0.00    +0.000 A 
ATOM      3  C   UNL     1      48.589   6.804  14.182  0.00  0.00    +0.000 A 
ATOM      4  C   UNL     1      48.056   7.879  13.458  0.00  0.00    +0.000 A 
ATOM      5  C   UNL     1      47.859   9.098  14.118  0.00  0.00    +0.000 A 
ATOM      6  C   UNL     1      48.207   9.247  15.463  0.00  0.00    +0.000 A 
ENDROOT
BRANCH   1   7
ATOM      7  C   UNL     1      49.025   8.329  17.668  0.00  0.00    +0.000 C 
BRANCH   7   9
ATOM      8  C   UNL     1      47.892   9.203  19.718  0.00  0.00    +0.000 C 
ATOM      9  C   UNL     1      47.880   8.069  18.678  0.00  0.00    +0.000 C 
BRANCH   9  10
ATOM     10  N   UNL     1      48.061   6.796  19.392  0.00  0.00    +0.000 N 
ATOM     11  H   UNL     1      47.453   6.674  20.198  0.00  0.00    +0.000 HD
BRANCH  10  12
ATOM     12  C   UNL     1      48.267   5.589  18.728  0.00  0.00    +0.000 A 
ATOM     13  C   UNL     1      47.281   4.912  18.004  0.00  0.00    +0.000 A 
ATOM     14  C   UNL     1      47.560   3.735  17.305  0.00  0.00    +0.000 A 
ATOM     15  C   UNL     1      48.853   3.232  17.294  0.00  0.00    +0.000 A 
ATOM     16 CL   UNL     1      49.203   1.795  16.418  0.00  0.00    +0.000 Cl
ATOM     17  C   UNL     1      49.864   3.896  17.980  0.00  0.00    +0.000 A 
ATOM     18  C   UNL     1      49.569   5.065  18.692  0.00  0.00    +0.000 A 
ENDBRANCH  10  12
ENDBRANCH   9  10
ENDBRANCH   7   9
ENDBRANCH   1   7
BRANCH   4  19
ATOM     19  C   UNL     1      47.652   7.729  12.014  0.00  0.00    +0.000 C 
BRANCH  19  20
ATOM     20  N   UNL     1      46.943   6.494  11.798  0.00  0.00    +0.000 N 
ATOM     21  C   UNL     1      45.574   6.444  11.792  0.00  0.00    +0.000 C 
ATOM     22  O   UNL     1      44.879   7.447  11.936  0.00  0.00    +0.000 OA
ATOM     23  H   UNL     1      47.470   5.636  11.930  0.00  0.00    +0.000 HD
BRANCH  21  24
ATOM     24  C   UNL     1      44.977   5.129  11.524  0.00  0.00    +0.000 A 
ATOM     25  C   UNL     1      44.279   4.470  12.528  0.00  0.00    +0.000 A 
ATOM     26  S   UNL     1      43.580   2.999  12.016  0.00  0.00    +0.000 S 
ATOM     27  C   UNL     1      44.245   3.161  10.457  0.00  0.00    +0.000 A 
ATOM     28  N   UNL     1      44.046   2.206   9.508  0.00  0.00    +0.000 NA
ATOM     29  C   UNL     1      44.633   2.443   8.383  0.00  0.00    +0.000 A 
ATOM     30  N   UNL     1      45.399   3.551   8.117  0.00  0.00    +0.000 N 
ATOM     31  C   UNL     1      45.602   4.553   9.035  0.00  0.00    +0.000 A 
ATOM     32  O   UNL     1      46.251   5.552   8.756  0.00  0.00    +0.000 OA
ATOM     33  C   UNL     1      44.972   4.329  10.323  0.00  0.00    +0.000 A 
ATOM     34  H   UNL     1      45.825   3.680   7.214  0.00  0.00    +0.000 HD
ENDBRANCH  21  24
ENDBRANCH  19  20
ENDBRANCH   4  19
TORSDOF 7
ENDMDL
MODEL 7
REMARK VINA RESULT:    -7.298      4.101      5.096
REMARK INTER + INTRA:         -11.345
REMARK INTER:                  -9.884
REMARK INTRA:                  -1.461
REMARK UNBOUND:                -1.060
REMARK  Name = 
REMARK  8 active torsions:
REMARK  status: ('A' for Active; 'I' for Inactive)
REMARK    1  A    between atoms: C_1  and  C_2
REMARK    2  A    between atoms: C_2  and  C_3
REMARK    3  A    between atoms: C_2  and  N_24
REMARK    4  A    between atoms: C_3  and  C_4
REMARK    5  A    between atoms: C_7  and  C_8
REMARK    6  A    between atoms: C_8  and  N_9
REMARK    7  A    between atoms: C_10  and  C_12
REMARK    8  A    between atoms: N_24  and  C_25
REMARK                            x       y       z     vdW  Elec       q    Type
REMARK                         _______ _______ _______ _____ _____    ______ ____
ROOT
ATOM      1  C   UNL     1      46.445   5.827  12.407  0.00  0.00    +0.000 A 
ATOM      2  C   UNL     1      46.661   7.019  11.702  0.00  0.00    +0.000 A 
ATOM      3  C   UNL     1      47.503   8.012  12.219  0.00  0.00    +0.000 A 
ATOM      4  C   UNL     1      48.161   7.826  13.444  0.00  0.00    +0.000 A 
ATOM      5  C   UNL     1      47.940   6.636  14.148  0.00  0.00    +0.000 A 
ATOM      6  C   UNL     1      47.102   5.645  13.631  0.00  0.00    +0.000 A 
ENDROOT
BRANCH   1   7
ATOM      7  C   UNL     1      45.467   4.783  11.910  0.00  0.00    +0.000 C 
BRANCH   7   9
ATOM      8  C   UNL     1      43.006   4.580  12.291  0.00  0.00    +0.000 C 
ATOM      9  C   UNL     1      44.077   5.242  11.407  0.00  0.00    +0.000 C 
BRANCH   9  10
ATOM     10  N   UNL     1      43.837   4.829  10.016  0.00  0.00    +0.000 N 
ATOM     11  H   UNL     1      43.516   5.574   9.403  0.00  0.00    +0.000 HD
BRANCH  10  12
ATOM     12  C   UNL     1      44.681   3.949   9.342  0.00  0.00    +0.000 A 
ATOM     13  C   UNL     1      44.632   2.559   9.471  0.00  0.00    +0.000 A 
ATOM     14  C   UNL     1      45.463   1.721   8.722  0.00  0.00    +0.000 A 
ATOM     15  C   UNL     1      46.341   2.271   7.798  0.00  0.00    +0.000 A 
ATOM     16 CL   UNL     1      47.350   1.243   6.861  0.00  0.00    +0.000 Cl
ATOM     17  C   UNL     1      46.396   3.651   7.625  0.00  0.00    +0.000 A 
ATOM     18  C   UNL     1      45.570   4.480   8.394  0.00  0.00    +0.000 A 
ENDBRANCH  10  12
ENDBRANCH   9  10
ENDBRANCH   7   9
ENDBRANCH   1   7
BRANCH   4  19
ATOM     19  C   UNL     1      49.049   8.895  14.027  0.00  0.00    +0.000 C 
BRANCH  19  20
ATOM     20  N   UNL     1      50.283   9.003  13.291  0.00  0.00    +0.000 N 
ATOM     21  C   UNL     1      51.448   8.451  13.757  0.00  0.00    +0.000 C 
ATOM     22  O   UNL     1      51.498   7.809  14.804  0.00  0.00    +0.000 OA
ATOM     23  H   UNL     1      50.327   9.723  12.577  0.00  0.00    +0.000 HD
BRANCH  21  24
ATOM     24  C   UNL     1      52.625   8.602  12.892  0.00  0.00    +0.000 A 
ATOM     25  C   UNL     1      53.782   9.181  13.395  0.00  0.00    +0.000 A 
ATOM     26  S   UNL     1      55.075   9.195  12.281  0.00  0.00    +0.000 S 
ATOM     27  C   UNL     1      54.112   8.491  11.068  0.00  0.00    +0.000 A 
ATOM     28  N   UNL     1      54.613   8.248   9.827  0.00  0.00    +0.000 NA
ATOM     29  C   UNL     1      53.764   7.740   8.998  0.00  0.00    +0.000 A 
ATOM     30  N   UNL     1      52.456   7.447   9.299  0.00  0.00    +0.000 N 
ATOM     31  C   UNL     1      51.917   7.648  10.546  0.00  0.00    +0.000 A 
ATOM     32  O   UNL     1      50.761   7.334  10.799  0.00  0.00    +0.000 OA
ATOM     33  C   UNL     1      52.828   8.229  11.513  0.00  0.00    +0.000 A 
ATOM     34  H   UNL     1      51.845   7.044   8.606  0.00  0.00    +0.000 HD
ENDBRANCH  21  24
ENDBRANCH  19  20
ENDBRANCH   4  19
TORSDOF 7
ENDMDL
MODEL 8
REMARK VINA RESULT:    -7.241      4.021      9.777
REMARK INTER + INTRA:         -11.265
REMARK INTER:                 -10.064
REMARK INTRA:                  -1.200
REMARK UNBOUND:                -1.060
REMARK  Name = 
REMARK  8 active torsions:
REMARK  status: ('A' for Active; 'I' for Inactive)
REMARK    1  A    between atoms: C_1  and  C_2
REMARK    2  A    between atoms: C_2  and  C_3
REMARK    3  A    between atoms: C_2  and  N_24
REMARK    4  A    between atoms: C_3  and  C_4
REMARK    5  A    between atoms: C_7  and  C_8
REMARK    6  A    between atoms: C_8  and  N_9
REMARK    7  A    between atoms: C_10  and  C_12
REMARK    8  A    between atoms: N_24  and  C_25
REMARK                            x       y       z     vdW  Elec       q    Type
REMARK                         _______ _______ _______ _____ _____    ______ ____
ROOT
ATOM      1  C   UNL     1      51.399   3.723  17.813  0.00  0.00    +0.000 A 
ATOM      2  C   UNL     1      50.543   4.831  17.889  0.00  0.00    +0.000 A 
ATOM      3  C   UNL     1      49.184   4.707  17.570  0.00  0.00    +0.000 A 
ATOM      4  C   UNL     1      48.649   3.469  17.186  0.00  0.00    +0.000 A 
ATOM      5  C   UNL     1      49.507   2.365  17.108  0.00  0.00    +0.000 A 
ATOM      6  C   UNL     1      50.862   2.488  17.427  0.00  0.00    +0.000 A 
ENDROOT
BRANCH   1   7
ATOM      7  C   UNL     1      52.886   3.858  18.062  0.00  0.00    +0.000 C 
BRANCH   7   9
ATOM      8  C   UNL     1      53.810   3.899  20.384  0.00  0.00    +0.000 C 
ATOM      9  C   UNL     1      53.538   2.994  19.169  0.00  0.00    +0.000 C 
BRANCH   9  10
ATOM     10  N   UNL     1      54.822   2.425  18.731  0.00  0.00    +0.000 N 
ATOM     11  H   UNL     1      55.579   2.523  19.404  0.00  0.00    +0.000 HD
BRANCH  10  12
ATOM     12  C   UNL     1      54.909   1.215  18.047  0.00  0.00    +0.000 A 
ATOM     13  C   UNL     1      54.576  -0.025  18.599  0.00  0.00    +0.000 A 
ATOM     14  C   UNL     1      54.623  -1.201  17.846  0.00  0.00    +0.000 A 
ATOM     15  C   UNL     1      54.976  -1.146  16.504  0.00  0.00    +0.000 A 
ATOM     16 CL   UNL     1      55.015  -2.588  15.571  0.00  0.00    +0.000 Cl
ATOM     17  C   UNL     1      55.286   0.076  15.917  0.00  0.00    +0.000 A 
ATOM     18  C   UNL     1      55.253   1.246  16.686  0.00  0.00    +0.000 A 
ENDBRANCH  10  12
ENDBRANCH   9  10
ENDBRANCH   7   9
ENDBRANCH   1   7
BRANCH   4  19
ATOM     19  C   UNL     1      47.196   3.323  16.816  0.00  0.00    +0.000 C 
BRANCH  19  20
ATOM     20  N   UNL     1      46.795   4.338  15.876  0.00  0.00    +0.000 N 
ATOM     21  C   UNL     1      46.850   4.126  14.523  0.00  0.00    +0.000 C 
ATOM     22  O   UNL     1      47.210   3.054  14.040  0.00  0.00    +0.000 OA
ATOM     23  H   UNL     1      46.741   5.289  16.227  0.00  0.00    +0.000 HD
BRANCH  21  24
ATOM     24  C   UNL     1      46.378   5.229  13.677  0.00  0.00    +0.000 A 
ATOM     25  C   UNL     1      47.177   6.350  13.493  0.00  0.00    +0.000 A 
ATOM     26  S   UNL     1      46.511   7.490  12.412  0.00  0.00    +0.000 S 
ATOM     27  C   UNL     1      45.102   6.557  12.207  0.00  0.00    +0.000 A 
ATOM     28  N   UNL     1      44.088   6.985  11.407  0.00  0.00    +0.000 NA
ATOM     29  C   UNL     1      43.069   6.192  11.369  0.00  0.00    +0.000 A 
ATOM     30  N   UNL     1      42.973   5.007  12.055  0.00  0.00    +0.000 N 
ATOM     31  C   UNL     1      43.983   4.523  12.850  0.00  0.00    +0.000 A 
ATOM     32  O   UNL     1      43.889   3.441  13.413  0.00  0.00    +0.000 OA
ATOM     33  C   UNL     1      45.148   5.383  12.937  0.00  0.00    +0.000 A 
ATOM     34  H   UNL     1      42.151   4.430  11.976  0.00  0.00    +0.000 HD
ENDBRANCH  21  24
ENDBRANCH  19  20
ENDBRANCH   4  19
TORSDOF 7
ENDMDL
MODEL 9
REMARK VINA RESULT:    -6.923      5.645      8.630
REMARK INTER + INTRA:         -10.816
REMARK INTER:                  -9.592
REMARK INTRA:                  -1.224
REMARK UNBOUND:                -1.060
REMARK  Name = 
REMARK  8 active torsions:
REMARK  status: ('A' for Active; 'I' for Inactive)
REMARK    1  A    between atoms: C_1  and  C_2
REMARK    2  A    between atoms: C_2  and  C_3
REMARK    3  A    between atoms: C_2  and  N_24
REMARK    4  A    between atoms: C_3  and  C_4
REMARK    5  A    between atoms: C_7  and  C_8
REMARK    6  A    between atoms: C_8  and  N_9
REMARK    7  A    between atoms: C_10  and  C_12
REMARK    8  A    between atoms: N_24  and  C_25
REMARK                            x       y       z     vdW  Elec       q    Type
REMARK                         _______ _______ _______ _____ _____    ______ ____
ROOT
ATOM      1  C   UNL     1      50.118   9.098  11.380  0.00  0.00    +0.000 A 
ATOM      2  C   UNL     1      49.744   7.763  11.587  0.00  0.00    +0.000 A 
ATOM      3  C   UNL     1      48.485   7.447  12.114  0.00  0.00    +0.000 A 
ATOM      4  C   UNL     1      47.567   8.459  12.429  0.00  0.00    +0.000 A 
ATOM      5  C   UNL     1      47.944   9.792  12.224  0.00  0.00    +0.000 A 
ATOM      6  C   UNL     1      49.199  10.107  11.697  0.00  0.00    +0.000 A 
ENDROOT
BRANCH   1   7
ATOM      7  C   UNL     1      51.507   9.463  10.900  0.00  0.00    +0.000 C 
BRANCH   7   9
ATOM      8  C   UNL     1      53.456   9.204  12.441  0.00  0.00    +0.000 C 
ATOM      9  C   UNL     1      52.693   8.544  11.280  0.00  0.00    +0.000 C 
BRANCH   9  10
ATOM     10  N   UNL     1      53.631   8.373  10.159  0.00  0.00    +0.000 N 
ATOM     11  H   UNL     1      54.593   8.627  10.371  0.00  0.00    +0.000 HD
BRANCH  10  12
ATOM     12  C   UNL     1      53.576   7.279   9.299  0.00  0.00    +0.000 A 
ATOM     13  C   UNL     1      52.762   7.212   8.164  0.00  0.00    +0.000 A 
ATOM     14  C   UNL     1      52.794   6.114   7.301  0.00  0.00    +0.000 A 
ATOM     15  C   UNL     1      53.675   5.070   7.548  0.00  0.00    +0.000 A 
ATOM     16 CL   UNL     1      53.729   3.727   6.477  0.00  0.00    +0.000 Cl
ATOM     17  C   UNL     1      54.518   5.118   8.653  0.00  0.00    +0.000 A 
ATOM     18  C   UNL     1      54.465   6.216   9.520  0.00  0.00    +0.000 A 
ENDBRANCH  10  12
ENDBRANCH   9  10
ENDBRANCH   7   9
ENDBRANCH   1   7
BRANCH   4  19
ATOM     19  C   UNL     1      46.219   8.138  13.021  0.00  0.00    +0.000 C 
BRANCH  19  20
ATOM     20  N   UNL     1      45.801   6.806  12.669  0.00  0.00    +0.000 N 
ATOM     21  C   UNL     1      44.790   6.584  11.770  0.00  0.00    +0.000 C 
ATOM     22  O   UNL     1      44.212   7.501  11.192  0.00  0.00    +0.000 OA
ATOM     23  H   UNL     1      46.075   6.060  13.300  0.00  0.00    +0.000 HD
BRANCH  21  24
ATOM     24  C   UNL     1      44.488   5.178  11.472  0.00  0.00    +0.000 A 
ATOM     25  C   UNL     1      43.760   4.421  12.381  0.00  0.00    +0.000 A 
ATOM     26  S   UNL     1      43.426   2.839  11.834  0.00  0.00    +0.000 S 
ATOM     27  C   UNL     1      44.303   3.090  10.397  0.00  0.00    +0.000 A 
ATOM     28  N   UNL     1      44.436   2.099   9.475  0.00  0.00    +0.000 NA
ATOM     29  C   UNL     1      45.152   2.418   8.448  0.00  0.00    +0.000 A 
ATOM     30  N   UNL     1      45.744   3.642   8.257  0.00  0.00    +0.000 N 
ATOM     31  C   UNL     1      45.611   4.680   9.147  0.00  0.00    +0.000 A 
ATOM     32  O   UNL     1      46.111   5.775   8.928  0.00  0.00    +0.000 OA
ATOM     33  C   UNL     1      44.825   4.369  10.325  0.00  0.00    +0.000 A 
ATOM     34  H   UNL     1      46.286   3.830   7.429  0.00  0.00    +0.000 HD
ENDBRANCH  21  24
ENDBRANCH  19  20
ENDBRANCH   4  19
TORSDOF 7
ENDMDL
