MODEL 1
REMARK VINA RESULT:    -7.444      0.000      0.000
REMARK INTER + INTRA:          -9.919
REMARK INTER:                  -9.402
REMARK INTRA:                  -0.517
REMARK UNBOUND:                -0.517
REMARK  Name = 
REMARK  5 active torsions:
REMARK  status: ('A' for Active; 'I' for Inactive)
REMARK    1  A    between atoms: N_1  and  C_2
REMARK    2  A    between atoms: C_2  and  C_3
REMARK    3  A    between atoms: C_6  and  O_7
REMARK    4  A    between atoms: O_7  and  C_8
REMARK    5  A    between atoms: C_8  and  C_9
REMARK                            x       y       z     vdW  Elec       q    Type
REMARK                         _______ _______ _______ _____ _____    ______ ____
ROOT
ATOM      1  C   UNL     1      47.043   2.352   7.250  0.00  0.00    +0.000 A 
ATOM      2  C   UNL     1      46.389   1.382   8.022  0.00  0.00    +0.000 A 
ATOM      3  C   UNL     1      45.291   1.726   8.814  0.00  0.00    +0.000 A 
ATOM      4  C   UNL     1      44.842   3.046   8.857  0.00  0.00    +0.000 A 
ATOM      5  C   UNL     1      45.459   4.006   8.055  0.00  0.00    +0.000 A 
ATOM      6  C   UNL     1      46.559   3.665   7.263  0.00  0.00    +0.000 A 
ENDROOT
BRANCH   1   7
ATOM      7  C   UNL     1      48.256   1.998   6.428  0.00  0.00    +0.000 C 
BRANCH   7   8
ATOM      8  N   UNL     1      48.178   2.568   5.089  0.00  0.00    +0.000 NA
ATOM      9  H   UNL     1      47.709   3.471   5.141  0.00  0.00    +0.000 HD
ATOM     10  H   UNL     1      47.590   1.969   4.512  0.00  0.00    +0.000 HD
ENDBRANCH   7   8
ENDBRANCH   1   7
BRANCH   4  11
ATOM     11  O   UNL     1      43.801   3.293   9.712  0.00  0.00    +0.000 OA
BRANCH  11  12
ATOM     12  C   UNL     1      43.789   4.607  10.276  0.00  0.00    +0.000 C 
BRANCH  12  13
ATOM     13  C   UNL     1      44.781   4.729  11.400  0.00  0.00    +0.000 A 
ATOM     14  C   UNL     1      45.739   5.745  11.461  0.00  0.00    +0.000 A 
ATOM     15  C   UNL     1      46.574   5.839  12.571  0.00  0.00    +0.000 A 
ATOM     16  C   UNL     1      46.407   4.916  13.587  0.00  0.00    +0.000 A 
ATOM     17 CL   UNL     1      47.384   4.972  14.995  0.00  0.00    +0.000 Cl
ATOM     18  N   UNL     1      45.488   3.930  13.579  0.00  0.00    +0.000 NA
ATOM     19  C   UNL     1      44.696   3.863  12.489  0.00  0.00    +0.000 A 
ENDBRANCH  12  13
ENDBRANCH  11  12
ENDBRANCH   4  11
TORSDOF 5
ENDMDL
MODEL 2
REMARK VINA RESULT:    -6.976      1.606      2.115
REMARK INTER + INTRA:          -9.327
REMARK INTER:                  -8.827
REMARK INTRA:                  -0.500
REMARK UNBOUND:                -0.517
REMARK  Name = 
REMARK  5 active torsions:
REMARK  status: ('A' for Active; 'I' for Inactive)
REMARK    1  A    between atoms: N_1  and  C_2
REMARK    2  A    between atoms: C_2  and  C_3
REMARK    3  A    between atoms: C_6  and  O_7
REMARK    4  A    between atoms: O_7  and  C_8
REMARK    5  A    between atoms: C_8  and  C_9
REMARK                            x       y       z     vdW  Elec       q    Type
REMARK                         _______ _______ _______ _____ _____    ______ ____
ROOT
ATOM      1  C   UNL     1      46.507   2.490   7.194  0.00  0.00    +0.000 A 
ATOM      2  C   UNL     1      45.979   3.784   7.317  0.00  0.00    +0.000 A 
ATOM      3  C   UNL     1      45.048   4.079   8.316  0.00  0.00    +0.000 A 
ATOM      4  C   UNL     1      44.621   3.083   9.194  0.00  0.00    +0.000 A 
ATOM      5  C   UNL     1      45.178   1.807   9.107  0.00  0.00    +0.000 A 
ATOM      6  C   UNL     1      46.108   1.509   8.108  0.00  0.00    +0.000 A 
ENDROOT
BRANCH   1   7
ATOM      7  C   UNL     1      47.478   2.153   6.092  0.00  0.00    +0.000 C 
BRANCH   7   8
ATOM      8  N   UNL     1      48.830   2.584   6.421  0.00  0.00    +0.000 NA
ATOM      9  H   UNL     1      48.972   2.491   7.425  0.00  0.00    +0.000 HD
ATOM     10  H   UNL     1      48.918   3.576   6.207  0.00  0.00    +0.000 HD
ENDBRANCH   7   8
ENDBRANCH   1   7
BRANCH   4  11
ATOM     11  O   UNL     1      43.659   3.456  10.094  0.00  0.00    +0.000 OA
BRANCH  11  12
ATOM     12  C   UNL     1      44.037   3.318  11.467  0.00  0.00    +0.000 C 
BRANCH  12  13
ATOM     13  C   UNL     1      44.604   4.602  12.009  0.00  0.00    +0.000 A 
ATOM     14  C   UNL     1      45.728   4.645  12.840  0.00  0.00    +0.000 A 
ATOM     15  C   UNL     1      46.241   5.875  13.240  0.00  0.00    +0.000 A 
ATOM     16  C   UNL     1      45.615   7.020  12.781  0.00  0.00    +0.000 A 
ATOM     17 CL   UNL     1      46.192   8.574  13.216  0.00  0.00    +0.000 Cl
ATOM     18  N   UNL     1      44.539   7.027  11.968  0.00  0.00    +0.000 NA
ATOM     19  C   UNL     1      44.063   5.819  11.600  0.00  0.00    +0.000 A 
ENDBRANCH  12  13
ENDBRANCH  11  12
ENDBRANCH   4  11
TORSDOF 5
ENDMDL
MODEL 3
REMARK VINA RESULT:    -6.815      2.868      5.995
REMARK INTER + INTRA:          -9.125
REMARK INTER:                  -8.673
REMARK INTRA:                  -0.452
REMARK UNBOUND:                -0.517
REMARK  Name = 
REMARK  5 active torsions:
REMARK  status: ('A' for Active; 'I' for Inactive)
REMARK    1  A    between atoms: N_1  and  C_2
REMARK    2  A    between atoms: C_2  and  C_3
REMARK    3  A    between atoms: C_6  and  O_7
REMARK    4  A    between atoms: O_7  and  C_8
REMARK    5  A    between atoms: C_8  and  C_9
REMARK                            x       y       z     vdW  Elec       q    Type
REMARK                         _______ _______ _______ _____ _____    ______ ____
ROOT
ATOM      1  C   UNL     1      46.931   6.087  13.005  0.00  0.00    +0.000 A 
ATOM      2  C   UNL     1      46.638   6.666  11.762  0.00  0.00    +0.000 A 
ATOM      3  C   UNL     1      45.630   6.136  10.952  0.00  0.00    +0.000 A 
ATOM      4  C   UNL     1      44.914   5.013  11.366  0.00  0.00    +0.000 A 
ATOM      5  C   UNL     1      45.169   4.463  12.622  0.00  0.00    +0.000 A 
ATOM      6  C   UNL     1      46.177   4.989  13.433  0.00  0.00    +0.000 A 
ENDROOT
BRANCH   1   7
ATOM      7  C   UNL     1      48.047   6.625  13.864  0.00  0.00    +0.000 C 
BRANCH   7   8
ATOM      8  N   UNL     1      49.319   6.615  13.155  0.00  0.00    +0.000 NA
ATOM      9  H   UNL     1      49.715   7.553  13.173  0.00  0.00    +0.000 HD
ATOM     10  H   UNL     1      49.146   6.393  12.176  0.00  0.00    +0.000 HD
ENDBRANCH   7   8
ENDBRANCH   1   7
BRANCH   4  11
ATOM     11  O   UNL     1      43.993   4.533  10.474  0.00  0.00    +0.000 OA
BRANCH  11  12
ATOM     12  C   UNL     1      44.134   3.146  10.155  0.00  0.00    +0.000 C 
BRANCH  12  13
ATOM     13  C   UNL     1      45.044   2.947   8.973  0.00  0.00    +0.000 A 
ATOM     14  C   UNL     1      45.391   3.982   8.099  0.00  0.00    +0.000 A 
ATOM     15  C   UNL     1      46.299   3.740   7.073  0.00  0.00    +0.000 A 
ATOM     16  C   UNL     1      46.837   2.470   6.969  0.00  0.00    +0.000 A 
ATOM     17 CL   UNL     1      47.974   2.093   5.741  0.00  0.00    +0.000 Cl
ATOM     18  N   UNL     1      46.544   1.447   7.796  0.00  0.00    +0.000 NA
ATOM     19  C   UNL     1      45.658   1.712   8.779  0.00  0.00    +0.000 A 
ENDBRANCH  12  13
ENDBRANCH  11  12
ENDBRANCH   4  11
TORSDOF 5
ENDMDL
MODEL 4
REMARK VINA RESULT:    -6.593      2.814      5.983
REMARK INTER + INTRA:          -8.844
REMARK INTER:                  -8.284
REMARK INTRA:                  -0.560
REMARK UNBOUND:                -0.517
REMARK  Name = 
REMARK  5 active torsions:
REMARK  status: ('A' for Active; 'I' for Inactive)
REMARK    1  A    between atoms: N_1  and  C_2
REMARK    2  A    between atoms: C_2  and  C_3
REMARK    3  A    between atoms: C_6  and  O_7
REMARK    4  A    between atoms: O_7  and  C_8
REMARK    5  A    between atoms: C_8  and  C_9
REMARK                            x       y       z     vdW  Elec       q    Type
REMARK                         _______ _______ _______ _____ _____    ______ ____
ROOT
ATOM      1  C   UNL     1      47.075   5.843  13.512  0.00  0.00    +0.000 A 
ATOM      2  C   UNL     1      46.952   4.451  13.625  0.00  0.00    +0.000 A 
ATOM      3  C   UNL     1      45.963   3.766  12.914  0.00  0.00    +0.000 A 
ATOM      4  C   UNL     1      45.077   4.465  12.093  0.00  0.00    +0.000 A 
ATOM      5  C   UNL     1      45.226   5.843  11.939  0.00  0.00    +0.000 A 
ATOM      6  C   UNL     1      46.212   6.530  12.651  0.00  0.00    +0.000 A 
ENDROOT
BRANCH   1   7
ATOM      7  C   UNL     1      48.110   6.595  14.310  0.00  0.00    +0.000 C 
BRANCH   7   8
ATOM      8  N   UNL     1      49.376   6.681  13.596  0.00  0.00    +0.000 NA
ATOM      9  H   UNL     1      49.289   6.194  12.707  0.00  0.00    +0.000 HD
ATOM     10  H   UNL     1      50.087   6.183  14.130  0.00  0.00    +0.000 HD
ENDBRANCH   7   8
ENDBRANCH   1   7
BRANCH   4  11
ATOM     11  O   UNL     1      44.106   3.711  11.490  0.00  0.00    +0.000 OA
BRANCH  11  12
ATOM     12  C   UNL     1      43.842   4.054  10.127  0.00  0.00    +0.000 C 
BRANCH  12  13
ATOM     13  C   UNL     1      44.898   3.500   9.209  0.00  0.00    +0.000 A 
ATOM     14  C   UNL     1      45.185   2.134   9.119  0.00  0.00    +0.000 A 
ATOM     15  C   UNL     1      46.121   1.688   8.191  0.00  0.00    +0.000 A 
ATOM     16  C   UNL     1      46.726   2.628   7.377  0.00  0.00    +0.000 A 
ATOM     17 CL   UNL     1      47.880   2.159   6.198  0.00  0.00    +0.000 Cl
ATOM     18  N   UNL     1      46.470   3.950   7.417  0.00  0.00    +0.000 NA
ATOM     19  C   UNL     1      45.560   4.353   8.329  0.00  0.00    +0.000 A 
ENDBRANCH  12  13
ENDBRANCH  11  12
ENDBRANCH   4  11
TORSDOF 5
ENDMDL
MODEL 5
REMARK VINA RESULT:    -5.623      3.302      6.264
REMARK INTER + INTRA:          -7.619
REMARK INTER:                  -7.140
REMARK INTRA:                  -0.479
REMARK UNBOUND:                -0.517
REMARK  Name = 
REMARK  5 active torsions:
REMARK  status: ('A' for Active; 'I' for Inactive)
REMARK    1  A    between atoms: N_1  and  C_2
REMARK    2  A    between atoms: C_2  and  C_3
REMARK    3  A    between atoms: C_6  and  O_7
REMARK    4  A    between atoms: O_7  and  C_8
REMARK    5  A    between atoms: C_8  and  C_9
REMARK                            x       y       z     vdW  Elec       q    Type
REMARK                         _______ _______ _______ _____ _____    ______ ____
ROOT
ATOM      1  C   UNL     1      43.416   6.625  11.322  0.00  0.00    +0.000 A 
ATOM      2  C   UNL     1      42.674   5.435  11.347  0.00  0.00    +0.000 A 
ATOM      3  C   UNL     1      43.311   4.199  11.208  0.00  0.00    +0.000 A 
ATOM      4  C   UNL     1      44.693   4.137  11.027  0.00  0.00    +0.000 A 
ATOM      5  C   UNL     1      45.441   5.315  11.049  0.00  0.00    +0.000 A 
ATOM      6  C   UNL     1      44.806   6.552  11.185  0.00  0.00    +0.000 A 
ENDROOT
BRANCH   1   7
ATOM      7  C   UNL     1      42.732   7.964  11.426  0.00  0.00    +0.000 C 
BRANCH   7   8
ATOM      8  N   UNL     1      43.437   8.985  10.662  0.00  0.00    +0.000 NA
ATOM      9  H   UNL     1      44.407   9.017  10.970  0.00  0.00    +0.000 HD
ATOM     10  H   UNL     1      43.034   9.894  10.880  0.00  0.00    +0.000 HD
ENDBRANCH   7   8
ENDBRANCH   1   7
BRANCH   4  11
ATOM     11  O   UNL     1      45.212   2.884  10.836  0.00  0.00    +0.000 OA
BRANCH  11  12
ATOM     12  C   UNL     1      44.626   2.151   9.757  0.00  0.00    +0.000 C 
BRANCH  12  13
ATOM     13  C   UNL     1      45.459   2.258   8.508  0.00  0.00    +0.000 A 
ATOM     14  C   UNL     1      45.575   3.441   7.772  0.00  0.00    +0.000 A 
ATOM     15  C   UNL     1      46.425   3.486   6.670  0.00  0.00    +0.000 A 
ATOM     16  C   UNL     1      47.139   2.344   6.356  0.00  0.00    +0.000 A 
ATOM     17 CL   UNL     1      48.218   2.319   5.024  0.00  0.00    +0.000 Cl
ATOM     18  N   UNL     1      47.071   1.187   7.045  0.00  0.00    +0.000 NA
ATOM     19  C   UNL     1      46.236   1.174   8.106  0.00  0.00    +0.000 A 
ENDBRANCH  12  13
ENDBRANCH  11  12
ENDBRANCH   4  11
TORSDOF 5
ENDMDL
MODEL 6
REMARK VINA RESULT:    -5.369      4.268      8.124
REMARK INTER + INTRA:          -7.298
REMARK INTER:                  -6.998
REMARK INTRA:                  -0.300
REMARK UNBOUND:                -0.517
REMARK  Name = 
REMARK  5 active torsions:
REMARK  status: ('A' for Active; 'I' for Inactive)
REMARK    1  A    between atoms: N_1  and  C_2
REMARK    2  A    between atoms: C_2  and  C_3
REMARK    3  A    between atoms: C_6  and  O_7
REMARK    4  A    between atoms: O_7  and  C_8
REMARK    5  A    between atoms: C_8  and  C_9
REMARK                            x       y       z     vdW  Elec       q    Type
REMARK                         _______ _______ _______ _____ _____    ______ ____
ROOT
ATOM      1  C   UNL     1      48.679   4.417  18.391  0.00  0.00    +0.000 A 
ATOM      2  C   UNL     1      48.053   3.226  18.000  0.00  0.00    +0.000 A 
ATOM      3  C   UNL     1      47.460   3.116  16.739  0.00  0.00    +0.000 A 
ATOM      4  C   UNL     1      47.472   4.200  15.861  0.00  0.00    +0.000 A 
ATOM      5  C   UNL     1      48.135   5.371  16.227  0.00  0.00    +0.000 A 
ATOM      6  C   UNL     1      48.727   5.484  17.487  0.00  0.00    +0.000 A 
ENDROOT
BRANCH   1   7
ATOM      7  C   UNL     1      49.282   4.559  19.766  0.00  0.00    +0.000 C 
BRANCH   7   8
ATOM      8  N   UNL     1      48.459   3.911  20.778  0.00  0.00    +0.000 NA
ATOM      9  H   UNL     1      49.058   3.597  21.540  0.00  0.00    +0.000 HD
ATOM     10  H   UNL     1      48.042   3.073  20.375  0.00  0.00    +0.000 HD
ENDBRANCH   7   8
ENDBRANCH   1   7
BRANCH   4  11
ATOM     11  O   UNL     1      46.809   4.014  14.677  0.00  0.00    +0.000 OA
BRANCH  11  12
ATOM     12  C   UNL     1      46.341   5.215  14.058  0.00  0.00    +0.000 C 
BRANCH  12  13
ATOM     13  C   UNL     1      45.834   4.950  12.666  0.00  0.00    +0.000 A 
ATOM     14  C   UNL     1      45.938   5.883  11.630  0.00  0.00    +0.000 A 
ATOM     15  C   UNL     1      45.518   5.538  10.348  0.00  0.00    +0.000 A 
ATOM     16  C   UNL     1      45.020   4.263  10.151  0.00  0.00    +0.000 A 
ATOM     17 CL   UNL     1      44.494   3.755   8.600  0.00  0.00    +0.000 Cl
ATOM     18  N   UNL     1      44.915   3.327  11.114  0.00  0.00    +0.000 NA
ATOM     19  C   UNL     1      45.328   3.692  12.346  0.00  0.00    +0.000 A 
ENDBRANCH  12  13
ENDBRANCH  11  12
ENDBRANCH   4  11
TORSDOF 5
ENDMDL
MODEL 7
REMARK VINA RESULT:    -4.910      4.573      6.484
REMARK INTER + INTRA:          -6.719
REMARK INTER:                  -6.399
REMARK INTRA:                  -0.319
REMARK UNBOUND:                -0.517
REMARK  Name = 
REMARK  5 active torsions:
REMARK  status: ('A' for Active; 'I' for Inactive)
REMARK    1  A    between atoms: N_1  and  C_2
REMARK    2  A    between atoms: C_2  and  C_3
REMARK    3  A    between atoms: C_6  and  O_7
REMARK    4  A    between atoms: O_7  and  C_8
REMARK    5  A    between atoms: C_8  and  C_9
REMARK                            x       y       z     vdW  Elec       q    Type
REMARK                         _______ _______ _______ _____ _____    ______ ____
ROOT
ATOM      1  C   UNL     1      44.189   4.874  11.970  0.00  0.00    +0.000 A 
ATOM      2  C   UNL     1      44.781   5.848  12.786  0.00  0.00    +0.000 A 
ATOM      3  C   UNL     1      45.885   5.532  13.582  0.00  0.00    +0.000 A 
ATOM      4  C   UNL     1      46.401   4.236  13.584  0.00  0.00    +0.000 A 
ATOM      5  C   UNL     1      45.845   3.275  12.738  0.00  0.00    +0.000 A 
ATOM      6  C   UNL     1      44.740   3.589  11.944  0.00  0.00    +0.000 A 
ENDROOT
BRANCH   1   7
ATOM      7  C   UNL     1      42.970   5.196  11.143  0.00  0.00    +0.000 C 
BRANCH   7   8
ATOM      8  N   UNL     1      42.183   6.264  11.745  0.00  0.00    +0.000 NA
ATOM      9  H   UNL     1      42.419   6.332  12.733  0.00  0.00    +0.000 HD
ATOM     10  H   UNL     1      41.198   6.010  11.699  0.00  0.00    +0.000 HD
ENDBRANCH   7   8
ENDBRANCH   1   7
BRANCH   4  11
ATOM     11  O   UNL     1      47.442   4.011  14.445  0.00  0.00    +0.000 OA
BRANCH  11  12
ATOM     12  C   UNL     1      47.117   4.163  15.829  0.00  0.00    +0.000 C 
BRANCH  12  13
ATOM     13  C   UNL     1      48.340   4.482  16.646  0.00  0.00    +0.000 A 
ATOM     14  C   UNL     1      49.034   3.518  17.383  0.00  0.00    +0.000 A 
ATOM     15  C   UNL     1      50.202   3.872  18.052  0.00  0.00    +0.000 A 
ATOM     16  C   UNL     1      50.639   5.180  17.945  0.00  0.00    +0.000 A 
ATOM     17 CL   UNL     1      52.076   5.694  18.727  0.00  0.00    +0.000 Cl
ATOM     18  N   UNL     1      50.012   6.138  17.235  0.00  0.00    +0.000 NA
ATOM     19  C   UNL     1      48.881   5.765  16.600  0.00  0.00    +0.000 A 
ENDBRANCH  12  13
ENDBRANCH  11  12
ENDBRANCH   4  11
TORSDOF 5
ENDMDL
MODEL 8
REMARK VINA RESULT:    -4.779      3.695      6.894
REMARK INTER + INTRA:          -6.553
REMARK INTER:                  -6.263
REMARK INTRA:                  -0.291
REMARK UNBOUND:                -0.517
REMARK  Name = 
REMARK  5 active torsions:
REMARK  status: ('A' for Active; 'I' for Inactive)
REMARK    1  A    between atoms: N_1  and  C_2
REMARK    2  A    between atoms: C_2  and  C_3
REMARK    3  A    between atoms: C_6  and  O_7
REMARK    4  A    between atoms: O_7  and  C_8
REMARK    5  A    between atoms: C_8  and  C_9
REMARK                            x       y       z     vdW  Elec       q    Type
REMARK                         _______ _______ _______ _____ _____    ______ ____
ROOT
ATOM      1  C   UNL     1      48.847   7.875  14.163  0.00  0.00    +0.000 A 
ATOM      2  C   UNL     1      47.753   8.749  14.105  0.00  0.00    +0.000 A 
ATOM      3  C   UNL     1      46.639   8.442  13.319  0.00  0.00    +0.000 A 
ATOM      4  C   UNL     1      46.611   7.266  12.570  0.00  0.00    +0.000 A 
ATOM      5  C   UNL     1      47.677   6.370  12.661  0.00  0.00    +0.000 A 
ATOM      6  C   UNL     1      48.792   6.676  13.444  0.00  0.00    +0.000 A 
ENDROOT
BRANCH   1   7
ATOM      7  C   UNL     1      50.071   8.220  14.972  0.00  0.00    +0.000 C 
BRANCH   7   8
ATOM      8  N   UNL     1      50.943   7.065  15.141  0.00  0.00    +0.000 NA
ATOM      9  H   UNL     1      51.603   7.255  15.893  0.00  0.00    +0.000 HD
ATOM     10  H   UNL     1      51.497   6.947  14.294  0.00  0.00    +0.000 HD
ENDBRANCH   7   8
ENDBRANCH   1   7
BRANCH   4  11
ATOM     11  O   UNL     1      45.504   7.087  11.784  0.00  0.00    +0.000 OA
BRANCH  11  12
ATOM     12  C   UNL     1      44.916   5.787  11.864  0.00  0.00    +0.000 C 
BRANCH  12  13
ATOM     13  C   UNL     1      45.176   4.991  10.613  0.00  0.00    +0.000 A 
ATOM     14  C   UNL     1      44.710   3.685  10.433  0.00  0.00    +0.000 A 
ATOM     15  C   UNL     1      44.923   3.040   9.218  0.00  0.00    +0.000 A 
ATOM     16  C   UNL     1      45.585   3.735   8.222  0.00  0.00    +0.000 A 
ATOM     17 CL   UNL     1      45.875   3.017   6.692  0.00  0.00    +0.000 Cl
ATOM     18  N   UNL     1      46.039   4.998   8.345  0.00  0.00    +0.000 NA
ATOM     19  C   UNL     1      45.820   5.596   9.536  0.00  0.00    +0.000 A 
ENDBRANCH  12  13
ENDBRANCH  11  12
ENDBRANCH   4  11
TORSDOF 5
ENDMDL
MODEL 9
REMARK VINA RESULT:    -4.771      5.202      7.993
REMARK INTER + INTRA:          -6.542
REMARK INTER:                  -6.096
REMARK INTRA:                  -0.446
REMARK UNBOUND:                -0.517
REMARK  Name = 
REMARK  5 active torsions:
REMARK  status: ('A' for Active; 'I' for Inactive)
REMARK    1  A    between atoms: N_1  and  C_2
REMARK    2  A    between atoms: C_2  and  C_3
REMARK    3  A    between atoms: C_6  and  O_7
REMARK    4  A    between atoms: O_7  and  C_8
REMARK    5  A    between atoms: C_8  and  C_9
REMARK                            x       y       z     vdW  Elec       q    Type
REMARK                         _______ _______ _______ _____ _____    ______ ____
ROOT
ATOM      1  C   UNL     1      50.242   3.978  17.773  0.00  0.00    +0.000 A 
ATOM      2  C   UNL     1      49.508   5.121  17.427  0.00  0.00    +0.000 A 
ATOM      3  C   UNL     1      48.318   5.008  16.702  0.00  0.00    +0.000 A 
ATOM      4  C   UNL     1      47.856   3.755  16.301  0.00  0.00    +0.000 A 
ATOM      5  C   UNL     1      48.557   2.611  16.684  0.00  0.00    +0.000 A 
ATOM      6  C   UNL     1      49.748   2.721  17.406  0.00  0.00    +0.000 A 
ENDROOT
BRANCH   1   7
ATOM      7  C   UNL     1      51.548   4.093  18.516  0.00  0.00    +0.000 C 
BRANCH   7   8
ATOM      8  N   UNL     1      51.904   5.485  18.758  0.00  0.00    +0.000 NA
ATOM      9  H   UNL     1      52.527   5.801  18.017  0.00  0.00    +0.000 HD
ATOM     10  H   UNL     1      52.434   5.541  19.626  0.00  0.00    +0.000 HD
ENDBRANCH   7   8
ENDBRANCH   1   7
BRANCH   4  11
ATOM     11  O   UNL     1      46.717   3.756  15.541  0.00  0.00    +0.000 OA
BRANCH  11  12
ATOM     12  C   UNL     1      46.941   3.763  14.128  0.00  0.00    +0.000 C 
BRANCH  12  13
ATOM     13  C   UNL     1      46.417   5.025  13.498  0.00  0.00    +0.000 A 
ATOM     14  C   UNL     1      47.254   6.044  13.031  0.00  0.00    +0.000 A 
ATOM     15  C   UNL     1      46.700   7.148  12.389  0.00  0.00    +0.000 A 
ATOM     16  C   UNL     1      45.327   7.183  12.227  0.00  0.00    +0.000 A 
ATOM     17 CL   UNL     1      44.568   8.500  11.434  0.00  0.00    +0.000 Cl
ATOM     18  N   UNL     1      44.484   6.218  12.646  0.00  0.00    +0.000 NA
ATOM     19  C   UNL     1      45.050   5.162  13.267  0.00  0.00    +0.000 A 
ENDBRANCH  12  13
ENDBRANCH  11  12
ENDBRANCH   4  11
TORSDOF 5
ENDMDL
