MODEL 1
REMARK VINA RESULT:    -8.170      0.000      0.000
REMARK INTER + INTRA:         -12.178
REMARK INTER:                 -11.035
REMARK INTRA:                  -1.143
REMARK UNBOUND:                -1.143
REMARK  Name = 
REMARK  7 active torsions:
REMARK  status: ('A' for Active; 'I' for Inactive)
REMARK    1  A    between atoms: C_1  and  C_2
REMARK    2  A    between atoms: C_2  and  C_3
REMARK    3  A    between atoms: C_7  and  C_8
REMARK    4  A    between atoms: C_8  and  C_9
REMARK    5  A    between atoms: C_9  and  N_10
REMARK    6  A    between atoms: N_10  and  C_11
REMARK    7  A    between atoms: C_14  and  C_15
REMARK                            x       y       z     vdW  Elec       q    Type
REMARK                         _______ _______ _______ _____ _____    ______ ____
ROOT
ATOM      1  C   UNL     1      43.073   4.671  11.072  0.00  0.00    +0.000 C 
ENDROOT
BRANCH   1   2
ATOM      2  N   UNL     1      43.824   5.064   9.872  0.00  0.00    +0.000 N 
ATOM      3  H   UNL     1      44.333   5.935  10.001  0.00  0.00    +0.000 HD
BRANCH   2   4
ATOM      4  C   UNL     1      44.645   4.079   9.288  0.00  0.00    +0.000 A 
ATOM      5  C   UNL     1      44.514   2.714   9.573  0.00  0.00    +0.000 A 
ATOM      6  C   UNL     1      45.314   1.756   8.944  0.00  0.00    +0.000 A 
ATOM      7  C   UNL     1      46.237   2.137   7.971  0.00  0.00    +0.000 A 
ATOM      8  C   UNL     1      46.354   3.490   7.636  0.00  0.00    +0.000 A 
ATOM      9  C   UNL     1      45.548   4.446   8.279  0.00  0.00    +0.000 A 
BRANCH   7  10
ATOM     10  C   UNL     1      47.065   1.073   7.349  0.00  0.00    +0.000 C 
ATOM     11  N   UNL     1      46.767  -0.224   7.662  0.00  0.00    +0.000 N 
ATOM     12  O   UNL     1      48.010   1.337   6.616  0.00  0.00    +0.000 OA
ATOM     13  H   UNL     1      46.176  -0.474   8.438  0.00  0.00    +0.000 HD
ATOM     14  H   UNL     1      47.428  -0.917   7.330  0.00  0.00    +0.000 HD
ENDBRANCH   7  10
ENDBRANCH   2   4
ENDBRANCH   1   2
BRANCH   1  15
ATOM     15  C   UNL     1      43.434   5.543  12.281  0.00  0.00    +0.000 C 
BRANCH  15  20
ATOM     16  C   UNL     1      47.131   6.327  12.939  0.00  0.00    +0.000 A 
ATOM     17  C   UNL     1      47.535   5.104  13.509  0.00  0.00    +0.000 A 
ATOM     18  C   UNL     1      46.648   4.035  13.651  0.00  0.00    +0.000 A 
ATOM     19  C   UNL     1      45.327   4.162  13.232  0.00  0.00    +0.000 A 
ATOM     20  C   UNL     1      44.892   5.354  12.646  0.00  0.00    +0.000 A 
ATOM     21  C   UNL     1      45.803   6.418  12.489  0.00  0.00    +0.000 A 
BRANCH  16  23
ATOM     22  C   UNL     1      48.574   7.734  11.463  0.00  0.00    +0.000 C 
ATOM     23  C   UNL     1      48.111   7.514  12.914  0.00  0.00    +0.000 C 
ATOM     24  C   UNL     1      47.476   8.774  13.513  0.00  0.00    +0.000 C 
ATOM     25  C   UNL     1      47.908   8.769  14.973  0.00  0.00    +0.000 C 
ATOM     26  O   UNL     1      48.938   7.787  15.128  0.00  0.00    +0.000 OA
ATOM     27  C   UNL     1      49.352   7.397  13.815  0.00  0.00    +0.000 C 
ENDBRANCH  16  23
ENDBRANCH  15  20
ENDBRANCH   1  15
TORSDOF 6
ENDMDL
MODEL 2
REMARK VINA RESULT:    -7.918      1.331      1.804
REMARK INTER + INTRA:         -11.838
REMARK INTER:                 -10.862
REMARK INTRA:                  -0.976
REMARK UNBOUND:                -1.143
REMARK  Name = 
REMARK  7 active torsions:
REMARK  status: ('A' for Active; 'I' for Inactive)
REMARK    1  A    between atoms: C_1  and  C_2
REMARK    2  A    between atoms: C_2  and  C_3
REMARK    3  A    between atoms: C_7  and  C_8
REMARK    4  A    between atoms: C_8  and  C_9
REMARK    5  A    between atoms: C_9  and  N_10
REMARK    6  A    between atoms: N_10  and  C_11
REMARK    7  A    between atoms: C_14  and  C_15
REMARK                            x       y       z     vdW  Elec       q    Type
REMARK                         _______ _______ _______ _____ _____    ______ ____
ROOT
ATOM      1  C   UNL     1      43.989   5.120  11.241  0.00  0.00    +0.000 C 
ENDROOT
BRANCH   1   2
ATOM      2  N   UNL     1      43.617   4.783   9.860  0.00  0.00    +0.000 N 
ATOM      3  H   UNL     1      43.361   5.605   9.316  0.00  0.00    +0.000 HD
BRANCH   2   4
ATOM      4  C   UNL     1      44.510   3.960   9.146  0.00  0.00    +0.000 A 
ATOM      5  C   UNL     1      45.491   4.470   8.286  0.00  0.00    +0.000 A 
ATOM      6  C   UNL     1      46.392   3.630   7.626  0.00  0.00    +0.000 A 
ATOM      7  C   UNL     1      46.366   2.254   7.848  0.00  0.00    +0.000 A 
ATOM      8  C   UNL     1      45.424   1.725   8.738  0.00  0.00    +0.000 A 
ATOM      9  C   UNL     1      44.520   2.579   9.393  0.00  0.00    +0.000 A 
BRANCH   7  10
ATOM     10  C   UNL     1      47.342   1.416   7.107  0.00  0.00    +0.000 C 
ATOM     11  N   UNL     1      48.441   2.037   6.584  0.00  0.00    +0.000 N 
ATOM     12  O   UNL     1      47.157   0.218   6.927  0.00  0.00    +0.000 OA
ATOM     13  H   UNL     1      48.507   3.038   6.491  0.00  0.00    +0.000 HD
ATOM     14  H   UNL     1      49.016   1.468   5.974  0.00  0.00    +0.000 HD
ENDBRANCH   7  10
ENDBRANCH   2   4
ENDBRANCH   1   2
BRANCH   1  15
ATOM     15  C   UNL     1      44.676   6.489  11.327  0.00  0.00    +0.000 C 
BRANCH  15  20
ATOM     16  C   UNL     1      48.240   7.233  12.536  0.00  0.00    +0.000 A 
ATOM     17  C   UNL     1      48.318   6.330  13.614  0.00  0.00    +0.000 A 
ATOM     18  C   UNL     1      47.261   5.474  13.929  0.00  0.00    +0.000 A 
ATOM     19  C   UNL     1      46.090   5.502  13.177  0.00  0.00    +0.000 A 
ATOM     20  C   UNL     1      45.980   6.373  12.089  0.00  0.00    +0.000 A 
ATOM     21  C   UNL     1      47.063   7.217  11.769  0.00  0.00    +0.000 A 
BRANCH  16  23
ATOM     22  C   UNL     1      50.341   7.653  11.252  0.00  0.00    +0.000 C 
ATOM     23  C   UNL     1      49.382   8.239  12.304  0.00  0.00    +0.000 C 
ATOM     24  C   UNL     1      48.840   9.612  11.887  0.00  0.00    +0.000 C 
ATOM     25  C   UNL     1      48.744  10.400  13.186  0.00  0.00    +0.000 C 
ATOM     26  O   UNL     1      49.449   9.675  14.199  0.00  0.00    +0.000 OA
ATOM     27  C   UNL     1      50.197   8.647  13.541  0.00  0.00    +0.000 C 
ENDBRANCH  16  23
ENDBRANCH  15  20
ENDBRANCH   1  15
TORSDOF 6
ENDMDL
MODEL 3
REMARK VINA RESULT:    -7.866      2.474      3.618
REMARK INTER + INTRA:         -11.768
REMARK INTER:                 -10.963
REMARK INTRA:                  -0.805
REMARK UNBOUND:                -1.143
REMARK  Name = 
REMARK  7 active torsions:
REMARK  status: ('A' for Active; 'I' for Inactive)
REMARK    1  A    between atoms: C_1  and  C_2
REMARK    2  A    between atoms: C_2  and  C_3
REMARK    3  A    between atoms: C_7  and  C_8
REMARK    4  A    between atoms: C_8  and  C_9
REMARK    5  A    between atoms: C_9  and  N_10
REMARK    6  A    between atoms: N_10  and  C_11
REMARK    7  A    between atoms: C_14  and  C_15
REMARK                            x       y       z     vdW  Elec       q    Type
REMARK                         _______ _______ _______ _____ _____    ______ ____
ROOT
ATOM      1  C   UNL     1      44.668   4.948  11.687  0.00  0.00    +0.000 C 
ENDROOT
BRANCH   1   2
ATOM      2  N   UNL     1      43.986   4.234  10.599  0.00  0.00    +0.000 N 
ATOM      3  H   UNL     1      43.190   4.753  10.234  0.00  0.00    +0.000 HD
BRANCH   2   4
ATOM      4  C   UNL     1      44.798   3.749   9.554  0.00  0.00    +0.000 A 
ATOM      5  C   UNL     1      45.501   4.593   8.684  0.00  0.00    +0.000 A 
ATOM      6  C   UNL     1      46.333   4.081   7.685  0.00  0.00    +0.000 A 
ATOM      7  C   UNL     1      46.522   2.705   7.560  0.00  0.00    +0.000 A 
ATOM      8  C   UNL     1      45.865   1.844   8.446  0.00  0.00    +0.000 A 
ATOM      9  C   UNL     1      45.027   2.369   9.444  0.00  0.00    +0.000 A 
BRANCH   7  10
ATOM     10  C   UNL     1      47.408   2.225   6.469  0.00  0.00    +0.000 C 
ATOM     11  N   UNL     1      47.428   2.944   5.307  0.00  0.00    +0.000 N 
ATOM     12  O   UNL     1      48.070   1.201   6.581  0.00  0.00    +0.000 OA
ATOM     13  H   UNL     1      46.728   3.634   5.082  0.00  0.00    +0.000 HD
ATOM     14  H   UNL     1      47.937   2.521   4.539  0.00  0.00    +0.000 HD
ENDBRANCH   7  10
ENDBRANCH   2   4
ENDBRANCH   1   2
BRANCH   1  15
ATOM     15  C   UNL     1      45.413   3.984  12.621  0.00  0.00    +0.000 C 
BRANCH  15  20
ATOM     16  C   UNL     1      47.591   4.915  15.639  0.00  0.00    +0.000 A 
ATOM     17  C   UNL     1      48.280   6.019  15.102  0.00  0.00    +0.000 A 
ATOM     18  C   UNL     1      48.031   6.479  13.807  0.00  0.00    +0.000 A 
ATOM     19  C   UNL     1      47.085   5.841  13.009  0.00  0.00    +0.000 A 
ATOM     20  C   UNL     1      46.367   4.752  13.512  0.00  0.00    +0.000 A 
ATOM     21  C   UNL     1      46.614   4.311  14.828  0.00  0.00    +0.000 A 
BRANCH  16  23
ATOM     22  C   UNL     1      47.189   5.138  18.094  0.00  0.00    +0.000 C 
ATOM     23  C   UNL     1      47.986   4.372  17.024  0.00  0.00    +0.000 C 
ATOM     24  C   UNL     1      47.764   2.857  17.114  0.00  0.00    +0.000 C 
ATOM     25  C   UNL     1      49.113   2.245  16.764  0.00  0.00    +0.000 C 
ATOM     26  O   UNL     1      50.091   3.291  16.778  0.00  0.00    +0.000 OA
ATOM     27  C   UNL     1      49.480   4.435  17.383  0.00  0.00    +0.000 C 
ENDBRANCH  16  23
ENDBRANCH  15  20
ENDBRANCH   1  15
TORSDOF 6
ENDMDL
MODEL 4
REMARK VINA RESULT:    -7.229      1.503      2.242
REMARK INTER + INTRA:         -10.907
REMARK INTER:                 -10.332
REMARK INTRA:                  -0.575
REMARK UNBOUND:                -1.143
REMARK  Name = 
REMARK  7 active torsions:
REMARK  status: ('A' for Active; 'I' for Inactive)
REMARK    1  A    between atoms: C_1  and  C_2
REMARK    2  A    between atoms: C_2  and  C_3
REMARK    3  A    between atoms: C_7  and  C_8
REMARK    4  A    between atoms: C_8  and  C_9
REMARK    5  A    between atoms: C_9  and  N_10
REMARK    6  A    between atoms: N_10  and  C_11
REMARK    7  A    between atoms: C_14  and  C_15
REMARK                            x       y       z     vdW  Elec       q    Type
REMARK                         _______ _______ _______ _____ _____    ______ ____
ROOT
ATOM      1  C   UNL     1      43.608   4.934  11.026  0.00  0.00    +0.000 C 
ENDROOT
BRANCH   1   2
ATOM      2  N   UNL     1      43.585   3.584  10.446  0.00  0.00    +0.000 N 
ATOM      3  H   UNL     1      42.668   3.334  10.082  0.00  0.00    +0.000 HD
BRANCH   2   4
ATOM      4  C   UNL     1      44.600   3.277   9.518  0.00  0.00    +0.000 A 
ATOM      5  C   UNL     1      45.034   1.968   9.272  0.00  0.00    +0.000 A 
ATOM      6  C   UNL     1      46.012   1.691   8.313  0.00  0.00    +0.000 A 
ATOM      7  C   UNL     1      46.549   2.717   7.536  0.00  0.00    +0.000 A 
ATOM      8  C   UNL     1      46.099   4.027   7.732  0.00  0.00    +0.000 A 
ATOM      9  C   UNL     1      45.118   4.295   8.703  0.00  0.00    +0.000 A 
BRANCH   7  10
ATOM     10  C   UNL     1      47.593   2.357   6.543  0.00  0.00    +0.000 C 
ATOM     11  N   UNL     1      47.692   3.130   5.421  0.00  0.00    +0.000 N 
ATOM     12  O   UNL     1      48.317   1.381   6.694  0.00  0.00    +0.000 OA
ATOM     13  H   UNL     1      46.970   3.776   5.140  0.00  0.00    +0.000 HD
ATOM     14  H   UNL     1      48.319   2.784   4.704  0.00  0.00    +0.000 HD
ENDBRANCH   7  10
ENDBRANCH   2   4
ENDBRANCH   1   2
BRANCH   1  15
ATOM     15  C   UNL     1      44.754   5.101  12.033  0.00  0.00    +0.000 C 
BRANCH  15  20
ATOM     16  C   UNL     1      46.836   8.240  12.760  0.00  0.00    +0.000 A 
ATOM     17  C   UNL     1      46.030   9.210  12.133  0.00  0.00    +0.000 A 
ATOM     18  C   UNL     1      44.824   8.871  11.516  0.00  0.00    +0.000 A 
ATOM     19  C   UNL     1      44.393   7.547  11.503  0.00  0.00    +0.000 A 
ATOM     20  C   UNL     1      45.156   6.558  12.130  0.00  0.00    +0.000 A 
ATOM     21  C   UNL     1      46.361   6.917  12.767  0.00  0.00    +0.000 A 
BRANCH  16  23
ATOM     22  C   UNL     1      48.547  10.060  12.820  0.00  0.00    +0.000 C 
ATOM     23  C   UNL     1      48.213   8.642  13.319  0.00  0.00    +0.000 C 
ATOM     24  C   UNL     1      48.242   8.549  14.850  0.00  0.00    +0.000 C 
ATOM     25  C   UNL     1      48.804   7.165  15.143  0.00  0.00    +0.000 C 
ATOM     26  O   UNL     1      49.338   6.636  13.925  0.00  0.00    +0.000 OA
ATOM     27  C   UNL     1      49.388   7.711  12.982  0.00  0.00    +0.000 C 
ENDBRANCH  16  23
ENDBRANCH  15  20
ENDBRANCH   1  15
TORSDOF 6
ENDMDL
MODEL 5
REMARK VINA RESULT:    -6.745      2.498      3.341
REMARK INTER + INTRA:         -10.253
REMARK INTER:                  -9.442
REMARK INTRA:                  -0.811
REMARK UNBOUND:                -1.143
REMARK  Name = 
REMARK  7 active torsions:
REMARK  status: ('A' for Active; 'I' for Inactive)
REMARK    1  A    between atoms: C_1  and  C_2
REMARK    2  A    between atoms: C_2  and  C_3
REMARK    3  A    between atoms: C_7  and  C_8
REMARK    4  A    between atoms: C_8  and  C_9
REMARK    5  A    between atoms: C_9  and  N_10
REMARK    6  A    between atoms: N_10  and  C_11
REMARK    7  A    between atoms: C_14  and  C_15
REMARK                            x       y       z     vdW  Elec       q    Type
REMARK                         _______ _______ _______ _____ _____    ______ ____
ROOT
ATOM      1  C   UNL     1      44.818   5.027  12.123  0.00  0.00    +0.000 C 
ENDROOT
BRANCH   1   2
ATOM      2  N   UNL     1      44.111   4.324  11.045  0.00  0.00    +0.000 N 
ATOM      3  H   UNL     1      43.270   4.814  10.748  0.00  0.00    +0.000 HD
BRANCH   2   4
ATOM      4  C   UNL     1      44.883   3.924   9.936  0.00  0.00    +0.000 A 
ATOM      5  C   UNL     1      44.939   2.598   9.487  0.00  0.00    +0.000 A 
ATOM      6  C   UNL     1      45.679   2.240   8.357  0.00  0.00    +0.000 A 
ATOM      7  C   UNL     1      46.346   3.213   7.614  0.00  0.00    +0.000 A 
ATOM      8  C   UNL     1      46.268   4.551   8.016  0.00  0.00    +0.000 A 
ATOM      9  C   UNL     1      45.525   4.899   9.157  0.00  0.00    +0.000 A 
BRANCH   7  10
ATOM     10  C   UNL     1      47.125   2.766   6.431  0.00  0.00    +0.000 C 
ATOM     11  N   UNL     1      48.482   2.669   6.566  0.00  0.00    +0.000 N 
ATOM     12  O   UNL     1      46.586   2.530   5.357  0.00  0.00    +0.000 OA
ATOM     13  H   UNL     1      48.982   3.084   7.336  0.00  0.00    +0.000 HD
ATOM     14  H   UNL     1      48.995   2.492   5.711  0.00  0.00    +0.000 HD
ENDBRANCH   7  10
ENDBRANCH   2   4
ENDBRANCH   1   2
BRANCH   1  15
ATOM     15  C   UNL     1      45.962   4.183  12.699  0.00  0.00    +0.000 C 
BRANCH  15  20
ATOM     16  C   UNL     1      47.980   5.328  15.754  0.00  0.00    +0.000 A 
ATOM     17  C   UNL     1      48.619   6.457  15.207  0.00  0.00    +0.000 A 
ATOM     18  C   UNL     1      48.385   6.864  13.892  0.00  0.00    +0.000 A 
ATOM     19  C   UNL     1      47.506   6.148  13.084  0.00  0.00    +0.000 A 
ATOM     20  C   UNL     1      46.839   5.032  13.596  0.00  0.00    +0.000 A 
ATOM     21  C   UNL     1      47.069   4.643  14.931  0.00  0.00    +0.000 A 
BRANCH  16  23
ATOM     22  C   UNL     1      49.277   3.617  17.033  0.00  0.00    +0.000 C 
ATOM     23  C   UNL     1      48.362   4.848  17.166  0.00  0.00    +0.000 C 
ATOM     24  C   UNL     1      49.022   5.970  17.977  0.00  0.00    +0.000 C 
ATOM     25  C   UNL     1      47.882   6.598  18.769  0.00  0.00    +0.000 C 
ATOM     26  O   UNL     1      46.745   5.733  18.670  0.00  0.00    +0.000 OA
ATOM     27  C   UNL     1      47.199   4.498  18.109  0.00  0.00    +0.000 C 
ENDBRANCH  16  23
ENDBRANCH  15  20
ENDBRANCH   1  15
TORSDOF 6
ENDMDL
MODEL 6
REMARK VINA RESULT:    -6.697      4.757      7.985
REMARK INTER + INTRA:         -10.189
REMARK INTER:                  -9.632
REMARK INTRA:                  -0.557
REMARK UNBOUND:                -1.143
REMARK  Name = 
REMARK  7 active torsions:
REMARK  status: ('A' for Active; 'I' for Inactive)
REMARK    1  A    between atoms: C_1  and  C_2
REMARK    2  A    between atoms: C_2  and  C_3
REMARK    3  A    between atoms: C_7  and  C_8
REMARK    4  A    between atoms: C_8  and  C_9
REMARK    5  A    between atoms: C_9  and  N_10
REMARK    6  A    between atoms: N_10  and  C_11
REMARK    7  A    between atoms: C_14  and  C_15
REMARK                            x       y       z     vdW  Elec       q    Type
REMARK                         _______ _______ _______ _____ _____    ______ ____
ROOT
ATOM      1  C   UNL     1      48.103   5.728  15.683  0.00  0.00    +0.000 C 
ENDROOT
BRANCH   1   2
ATOM      2  N   UNL     1      48.408   5.359  17.072  0.00  0.00    +0.000 N 
ATOM      3  H   UNL     1      47.568   5.208  17.626  0.00  0.00    +0.000 HD
BRANCH   2   4
ATOM      4  C   UNL     1      49.335   4.315  17.261  0.00  0.00    +0.000 A 
ATOM      5  C   UNL     1      49.007   2.965  17.075  0.00  0.00    +0.000 A 
ATOM      6  C   UNL     1      49.961   1.955  17.227  0.00  0.00    +0.000 A 
ATOM      7  C   UNL     1      51.286   2.274  17.522  0.00  0.00    +0.000 A 
ATOM      8  C   UNL     1      51.647   3.618  17.667  0.00  0.00    +0.000 A 
ATOM      9  C   UNL     1      50.679   4.626  17.517  0.00  0.00    +0.000 A 
BRANCH   7  10
ATOM     10  C   UNL     1      52.247   1.153  17.683  0.00  0.00    +0.000 C 
ATOM     11  N   UNL     1      51.776  -0.013  18.217  0.00  0.00    +0.000 N 
ATOM     12  O   UNL     1      53.431   1.273  17.390  0.00  0.00    +0.000 OA
ATOM     13  H   UNL     1      50.890  -0.074  18.694  0.00  0.00    +0.000 HD
ATOM     14  H   UNL     1      52.478  -0.709  18.436  0.00  0.00    +0.000 HD
ENDBRANCH   7  10
ENDBRANCH   2   4
ENDBRANCH   1   2
BRANCH   1  15
ATOM     15  C   UNL     1      47.119   4.745  15.035  0.00  0.00    +0.000 C 
BRANCH  15  20
ATOM     16  C   UNL     1      45.199   5.164  11.741  0.00  0.00    +0.000 A 
ATOM     17  C   UNL     1      45.963   6.188  11.149  0.00  0.00    +0.000 A 
ATOM     18  C   UNL     1      47.093   6.714  11.779  0.00  0.00    +0.000 A 
ATOM     19  C   UNL     1      47.487   6.233  13.024  0.00  0.00    +0.000 A 
ATOM     20  C   UNL     1      46.765   5.205  13.636  0.00  0.00    +0.000 A 
ATOM     21  C   UNL     1      45.638   4.669  12.981  0.00  0.00    +0.000 A 
BRANCH  16  23
ATOM     22  C   UNL     1      42.788   5.721  11.392  0.00  0.00    +0.000 C 
ATOM     23  C   UNL     1      43.895   4.702  11.065  0.00  0.00    +0.000 C 
ATOM     24  C   UNL     1      44.083   4.522   9.554  0.00  0.00    +0.000 C 
ATOM     25  C   UNL     1      44.406   3.045   9.377  0.00  0.00    +0.000 C 
ATOM     26  O   UNL     1      44.125   2.378  10.612  0.00  0.00    +0.000 OA
ATOM     27  C   UNL     1      43.394   3.296  11.432  0.00  0.00    +0.000 C 
ENDBRANCH  16  23
ENDBRANCH  15  20
ENDBRANCH   1  15
TORSDOF 6
ENDMDL
MODEL 7
REMARK VINA RESULT:    -6.446      3.821      7.201
REMARK INTER + INTRA:          -9.850
REMARK INTER:                  -8.648
REMARK INTRA:                  -1.201
REMARK UNBOUND:                -1.143
REMARK  Name = 
REMARK  7 active torsions:
REMARK  status: ('A' for Active; 'I' for Inactive)
REMARK    1  A    between atoms: C_1  and  C_2
REMARK    2  A    between atoms: C_2  and  C_3
REMARK    3  A    between atoms: C_7  and  C_8
REMARK    4  A    between atoms: C_8  and  C_9
REMARK    5  A    between atoms: C_9  and  N_10
REMARK    6  A    between atoms: N_10  and  C_11
REMARK    7  A    between atoms: C_14  and  C_15
REMARK                            x       y       z     vdW  Elec       q    Type
REMARK                         _______ _______ _______ _____ _____    ______ ____
ROOT
ATOM      1  C   UNL     1      49.617   7.250  12.813  0.00  0.00    +0.000 C 
ENDROOT
BRANCH   1   2
ATOM      2  N   UNL     1      49.143   7.687  14.133  0.00  0.00    +0.000 N 
ATOM      3  H   UNL     1      48.480   8.457  14.072  0.00  0.00    +0.000 HD
BRANCH   2   4
ATOM      4  C   UNL     1      48.674   6.682  15.001  0.00  0.00    +0.000 A 
ATOM      5  C   UNL     1      47.770   5.691  14.599  0.00  0.00    +0.000 A 
ATOM      6  C   UNL     1      47.358   4.680  15.472  0.00  0.00    +0.000 A 
ATOM      7  C   UNL     1      47.881   4.606  16.762  0.00  0.00    +0.000 A 
ATOM      8  C   UNL     1      48.820   5.558  17.172  0.00  0.00    +0.000 A 
ATOM      9  C   UNL     1      49.224   6.573  16.288  0.00  0.00    +0.000 A 
BRANCH   7  10
ATOM     10  C   UNL     1      47.393   3.515  17.644  0.00  0.00    +0.000 C 
ATOM     11  N   UNL     1      48.144   3.206  18.744  0.00  0.00    +0.000 N 
ATOM     12  O   UNL     1      46.378   2.880  17.383  0.00  0.00    +0.000 OA
ATOM     13  H   UNL     1      49.093   3.523  18.860  0.00  0.00    +0.000 HD
ATOM     14  H   UNL     1      47.858   2.376  19.250  0.00  0.00    +0.000 HD
ENDBRANCH   7  10
ENDBRANCH   2   4
ENDBRANCH   1   2
BRANCH   1  15
ATOM     15  C   UNL     1      48.961   8.050  11.679  0.00  0.00    +0.000 C 
BRANCH  15  20
ATOM     16  C   UNL     1      45.498   6.437  11.338  0.00  0.00    +0.000 A 
ATOM     17  C   UNL     1      44.713   7.424  11.966  0.00  0.00    +0.000 A 
ATOM     18  C   UNL     1      45.278   8.601  12.461  0.00  0.00    +0.000 A 
ATOM     19  C   UNL     1      46.648   8.821  12.348  0.00  0.00    +0.000 A 
ATOM     20  C   UNL     1      47.457   7.873  11.716  0.00  0.00    +0.000 A 
ATOM     21  C   UNL     1      46.872   6.699  11.202  0.00  0.00    +0.000 A 
BRANCH  16  23
ATOM     22  C   UNL     1      45.334   4.754   9.499  0.00  0.00    +0.000 C 
ATOM     23  C   UNL     1      44.850   5.105  10.917  0.00  0.00    +0.000 C 
ATOM     24  C   UNL     1      45.160   3.991  11.924  0.00  0.00    +0.000 C 
ATOM     25  C   UNL     1      43.970   3.983  12.873  0.00  0.00    +0.000 C 
ATOM     26  O   UNL     1      42.937   4.789  12.296  0.00  0.00    +0.000 OA
ATOM     27  C   UNL     1      43.314   5.054  10.941  0.00  0.00    +0.000 C 
ENDBRANCH  16  23
ENDBRANCH  15  20
ENDBRANCH   1  15
TORSDOF 6
ENDMDL
MODEL 8
REMARK VINA RESULT:    -6.331      3.620      6.009
REMARK INTER + INTRA:          -9.695
REMARK INTER:                  -8.498
REMARK INTRA:                  -1.197
REMARK UNBOUND:                -1.143
REMARK  Name = 
REMARK  7 active torsions:
REMARK  status: ('A' for Active; 'I' for Inactive)
REMARK    1  A    between atoms: C_1  and  C_2
REMARK    2  A    between atoms: C_2  and  C_3
REMARK    3  A    between atoms: C_7  and  C_8
REMARK    4  A    between atoms: C_8  and  C_9
REMARK    5  A    between atoms: C_9  and  N_10
REMARK    6  A    between atoms: N_10  and  C_11
REMARK    7  A    between atoms: C_14  and  C_15
REMARK                            x       y       z     vdW  Elec       q    Type
REMARK                         _______ _______ _______ _____ _____    ______ ____
ROOT
ATOM      1  C   UNL     1      48.266   7.700  14.208  0.00  0.00    +0.000 C 
ENDROOT
BRANCH   1   2
ATOM      2  N   UNL     1      48.138   7.186  12.839  0.00  0.00    +0.000 N 
ATOM      3  H   UNL     1      49.009   6.794  12.488  0.00  0.00    +0.000 HD
BRANCH   2   4
ATOM      4  C   UNL     1      47.055   6.320  12.587  0.00  0.00    +0.000 A 
ATOM      5  C   UNL     1      46.372   6.293  11.364  0.00  0.00    +0.000 A 
ATOM      6  C   UNL     1      45.330   5.392  11.129  0.00  0.00    +0.000 A 
ATOM      7  C   UNL     1      44.975   4.456  12.099  0.00  0.00    +0.000 A 
ATOM      8  C   UNL     1      45.673   4.433  13.311  0.00  0.00    +0.000 A 
ATOM      9  C   UNL     1      46.716   5.347  13.539  0.00  0.00    +0.000 A 
BRANCH   7  10
ATOM     10  C   UNL     1      43.852   3.534  11.792  0.00  0.00    +0.000 C 
ATOM     11  N   UNL     1      43.785   2.362  12.491  0.00  0.00    +0.000 N 
ATOM     12  O   UNL     1      43.033   3.786  10.916  0.00  0.00    +0.000 OA
ATOM     13  H   UNL     1      44.559   2.006  13.030  0.00  0.00    +0.000 HD
ATOM     14  H   UNL     1      43.090   1.699  12.169  0.00  0.00    +0.000 HD
ENDBRANCH   7  10
ENDBRANCH   2   4
ENDBRANCH   1   2
BRANCH   1  15
ATOM     15  C   UNL     1      49.721   8.048  14.552  0.00  0.00    +0.000 C 
BRANCH  15  20
ATOM     16  C   UNL     1      49.867   5.177  17.091  0.00  0.00    +0.000 A 
ATOM     17  C   UNL     1      51.248   5.174  17.367  0.00  0.00    +0.000 A 
ATOM     18  C   UNL     1      52.114   6.097  16.776  0.00  0.00    +0.000 A 
ATOM     19  C   UNL     1      51.622   7.046  15.885  0.00  0.00    +0.000 A 
ATOM     20  C   UNL     1      50.255   7.091  15.598  0.00  0.00    +0.000 A 
ATOM     21  C   UNL     1      49.389   6.168  16.217  0.00  0.00    +0.000 A 
BRANCH  16  23
ATOM     22  C   UNL     1      48.724   4.369  19.161  0.00  0.00    +0.000 C 
ATOM     23  C   UNL     1      48.974   4.066  17.672  0.00  0.00    +0.000 C 
ATOM     24  C   UNL     1      47.665   3.932  16.884  0.00  0.00    +0.000 C 
ATOM     25  C   UNL     1      47.938   2.836  15.863  0.00  0.00    +0.000 C 
ATOM     26  O   UNL     1      49.161   2.186  16.226  0.00  0.00    +0.000 OA
ATOM     27  C   UNL     1      49.500   2.627  17.545  0.00  0.00    +0.000 C 
ENDBRANCH  16  23
ENDBRANCH  15  20
ENDBRANCH   1  15
TORSDOF 6
ENDMDL
MODEL 9
REMARK VINA RESULT:    -6.254      1.452      2.277
REMARK INTER + INTRA:          -9.591
REMARK INTER:                  -9.163
REMARK INTRA:                  -0.428
REMARK UNBOUND:                -1.143
REMARK  Name = 
REMARK  7 active torsions:
REMARK  status: ('A' for Active; 'I' for Inactive)
REMARK    1  A    between atoms: C_1  and  C_2
REMARK    2  A    between atoms: C_2  and  C_3
REMARK    3  A    between atoms: C_7  and  C_8
REMARK    4  A    between atoms: C_8  and  C_9
REMARK    5  A    between atoms: C_9  and  N_10
REMARK    6  A    between atoms: N_10  and  C_11
REMARK    7  A    between atoms: C_14  and  C_15
REMARK                            x       y       z     vdW  Elec       q    Type
REMARK                         _______ _______ _______ _____ _____    ______ ____
ROOT
ATOM      1  C   UNL     1      44.646   4.458  12.211  0.00  0.00    +0.000 C 
ENDROOT
BRANCH   1   2
ATOM      2  N   UNL     1      43.921   4.323  10.941  0.00  0.00    +0.000 N 
ATOM      3  H   UNL     1      43.391   5.160  10.706  0.00  0.00    +0.000 HD
BRANCH   2   4
ATOM      4  C   UNL     1      44.662   3.864   9.834  0.00  0.00    +0.000 A 
ATOM      5  C   UNL     1      45.283   4.729   8.924  0.00  0.00    +0.000 A 
ATOM      6  C   UNL     1      46.048   4.244   7.860  0.00  0.00    +0.000 A 
ATOM      7  C   UNL     1      46.255   2.873   7.708  0.00  0.00    +0.000 A 
ATOM      8  C   UNL     1      45.682   1.991   8.631  0.00  0.00    +0.000 A 
ATOM      9  C   UNL     1      44.910   2.490   9.694  0.00  0.00    +0.000 A 
BRANCH   7  10
ATOM     10  C   UNL     1      47.068   2.421   6.550  0.00  0.00    +0.000 C 
ATOM     11  N   UNL     1      48.149   1.625   6.808  0.00  0.00    +0.000 N 
ATOM     12  O   UNL     1      46.814   2.777   5.406  0.00  0.00    +0.000 OA
ATOM     13  H   UNL     1      48.535   1.516   7.733  0.00  0.00    +0.000 HD
ATOM     14  H   UNL     1      48.757   1.444   6.019  0.00  0.00    +0.000 HD
ENDBRANCH   7  10
ENDBRANCH   2   4
ENDBRANCH   1   2
BRANCH   1  15
ATOM     15  C   UNL     1      45.839   5.415  12.086  0.00  0.00    +0.000 C 
BRANCH  15  20
ATOM     16  C   UNL     1      48.427   6.359  14.756  0.00  0.00    +0.000 A 
ATOM     17  C   UNL     1      48.154   5.363  15.714  0.00  0.00    +0.000 A 
ATOM     18  C   UNL     1      47.180   4.386  15.496  0.00  0.00    +0.000 A 
ATOM     19  C   UNL     1      46.446   4.382  14.313  0.00  0.00    +0.000 A 
ATOM     20  C   UNL     1      46.700   5.343  13.331  0.00  0.00    +0.000 A 
ATOM     21  C   UNL     1      47.700   6.311  13.554  0.00  0.00    +0.000 A 
BRANCH  16  23
ATOM     22  C   UNL     1      50.567   6.887  15.933  0.00  0.00    +0.000 C 
ATOM     23  C   UNL     1      49.423   7.483  15.093  0.00  0.00    +0.000 C 
ATOM     24  C   UNL     1      49.940   8.170  13.822  0.00  0.00    +0.000 C 
ATOM     25  C   UNL     1      49.027   9.373  13.634  0.00  0.00    +0.000 C 
ATOM     26  O   UNL     1      48.266   9.546  14.834  0.00  0.00    +0.000 OA
ATOM     27  C   UNL     1      48.853   8.704  15.832  0.00  0.00    +0.000 C 
ENDBRANCH  16  23
ENDBRANCH  15  20
ENDBRANCH   1  15
TORSDOF 6
ENDMDL
