MODEL 1
REMARK VINA RESULT:    -8.482      0.000      0.000
REMARK INTER + INTRA:         -11.072
REMARK INTER:                 -10.466
REMARK INTRA:                  -0.607
REMARK UNBOUND:                -0.607
REMARK  Name = 
REMARK  6 active torsions:
REMARK  status: ('A' for Active; 'I' for Inactive)
REMARK    1  A    between atoms: C_1  and  C_2
REMARK    2  A    between atoms: C_5  and  C_6
REMARK    3  A    between atoms: C_6  and  C_7
REMARK    4  A    between atoms: C_6  and  N_8
REMARK    5  A    between atoms: N_8  and  C_9
REMARK    6  A    between atoms: C_12  and  C_13
REMARK                            x       y       z     vdW  Elec       q    Type
REMARK                         _______ _______ _______ _____ _____    ______ ____
ROOT
ATOM      1  N   UNL     1      43.703   4.711   9.905  0.00  0.00    +0.000 N 
ATOM      2  H   UNL     1      43.865   5.680   9.628  0.00  0.00    +0.000 HD
ENDROOT
BRANCH   1   3
ATOM      3  C   UNL     1      44.620   3.874   9.252  0.00  0.00    +0.000 A 
ATOM      4  C   UNL     1      44.628   2.481   9.358  0.00  0.00    +0.000 A 
ATOM      5  C   UNL     1      45.516   1.693   8.611  0.00  0.00    +0.000 A 
ATOM      6  C   UNL     1      46.408   2.283   7.713  0.00  0.00    +0.000 A 
ATOM      7  C   UNL     1      46.401   3.672   7.573  0.00  0.00    +0.000 A 
ATOM      8  C   UNL     1      45.504   4.449   8.321  0.00  0.00    +0.000 A 
BRANCH   6   9
ATOM      9  C   UNL     1      47.331   1.396   6.956  0.00  0.00    +0.000 C 
ATOM     10  N   UNL     1      48.424   1.973   6.369  0.00  0.00    +0.000 N 
ATOM     11  O   UNL     1      47.111   0.199   6.821  0.00  0.00    +0.000 OA
ATOM     12  H   UNL     1      48.508   2.969   6.238  0.00  0.00    +0.000 HD
ATOM     13  H   UNL     1      48.969   1.371   5.764  0.00  0.00    +0.000 HD
ENDBRANCH   6   9
ENDBRANCH   1   3
BRANCH   1  14
ATOM     14  C   UNL     1      43.505   4.627  11.368  0.00  0.00    +0.000 C 
ATOM     15  C   UNL     1      42.346   5.518  11.831  0.00  0.00    +0.000 C 
BRANCH  14  20
ATOM     16  C   UNL     1      48.153   6.224  14.438  0.00  0.00    +0.000 C 
ATOM     17  C   UNL     1      46.993   5.833  13.579  0.00  0.00    +0.000 A 
ATOM     18  C   UNL     1      46.580   6.610  12.497  0.00  0.00    +0.000 A 
ATOM     19  C   UNL     1      45.471   6.216  11.747  0.00  0.00    +0.000 A 
ATOM     20  C   UNL     1      44.783   5.055  12.104  0.00  0.00    +0.000 A 
ATOM     21  N   UNL     1      45.184   4.278  13.142  0.00  0.00    +0.000 NA
ATOM     22  C   UNL     1      46.267   4.680  13.848  0.00  0.00    +0.000 A 
ENDBRANCH  14  20
ENDBRANCH   1  14
TORSDOF 4
ENDMDL
MODEL 2
REMARK VINA RESULT:    -8.480      0.122      1.105
REMARK INTER + INTRA:         -11.069
REMARK INTER:                 -10.472
REMARK INTRA:                  -0.597
REMARK UNBOUND:                -0.607
REMARK  Name = 
REMARK  6 active torsions:
REMARK  status: ('A' for Active; 'I' for Inactive)
REMARK    1  A    between atoms: C_1  and  C_2
REMARK    2  A    between atoms: C_5  and  C_6
REMARK    3  A    between atoms: C_6  and  C_7
REMARK    4  A    between atoms: C_6  and  N_8
REMARK    5  A    between atoms: N_8  and  C_9
REMARK    6  A    between atoms: C_12  and  C_13
REMARK                            x       y       z     vdW  Elec       q    Type
REMARK                         _______ _______ _______ _____ _____    ______ ____
ROOT
ATOM      1  N   UNL     1      43.730   4.861   9.876  0.00  0.00    +0.000 N 
ATOM      2  H   UNL     1      43.944   5.841   9.688  0.00  0.00    +0.000 HD
ENDROOT
BRANCH   1   3
ATOM      3  C   UNL     1      44.591   4.040   9.132  0.00  0.00    +0.000 A 
ATOM      4  C   UNL     1      45.579   4.516   8.266  0.00  0.00    +0.000 A 
ATOM      5  C   UNL     1      46.467   3.646   7.617  0.00  0.00    +0.000 A 
ATOM      6  C   UNL     1      46.403   2.269   7.839  0.00  0.00    +0.000 A 
ATOM      7  C   UNL     1      45.439   1.772   8.718  0.00  0.00    +0.000 A 
ATOM      8  C   UNL     1      44.560   2.653   9.367  0.00  0.00    +0.000 A 
BRANCH   6   9
ATOM      9  C   UNL     1      47.365   1.396   7.114  0.00  0.00    +0.000 C 
ATOM     10  N   UNL     1      48.444   1.994   6.524  0.00  0.00    +0.000 N 
ATOM     11  O   UNL     1      47.186   0.189   7.006  0.00  0.00    +0.000 OA
ATOM     12  H   UNL     1      48.496   2.989   6.369  0.00  0.00    +0.000 HD
ATOM     13  H   UNL     1      49.016   1.397   5.940  0.00  0.00    +0.000 HD
ENDBRANCH   6   9
ENDBRANCH   1   3
BRANCH   1  14
ATOM     14  C   UNL     1      43.544   4.650  11.328  0.00  0.00    +0.000 C 
ATOM     15  C   UNL     1      42.356   5.456  11.866  0.00  0.00    +0.000 C 
BRANCH  14  20
ATOM     16  C   UNL     1      48.137   6.204  14.501  0.00  0.00    +0.000 C 
ATOM     17  C   UNL     1      46.994   5.822  13.616  0.00  0.00    +0.000 A 
ATOM     18  C   UNL     1      46.636   6.579  12.501  0.00  0.00    +0.000 A 
ATOM     19  C   UNL     1      45.541   6.195  11.727  0.00  0.00    +0.000 A 
ATOM     20  C   UNL     1      44.810   5.063  12.093  0.00  0.00    +0.000 A 
ATOM     21  N   UNL     1      45.157   4.305  13.164  0.00  0.00    +0.000 NA
ATOM     22  C   UNL     1      46.227   4.697  13.893  0.00  0.00    +0.000 A 
ENDBRANCH  14  20
ENDBRANCH   1  14
TORSDOF 4
ENDMDL
MODEL 3
REMARK VINA RESULT:    -7.268      2.784      6.210
REMARK INTER + INTRA:          -9.574
REMARK INTER:                  -9.664
REMARK INTRA:                   0.090
REMARK UNBOUND:                -0.607
REMARK  Name = 
REMARK  6 active torsions:
REMARK  status: ('A' for Active; 'I' for Inactive)
REMARK    1  A    between atoms: C_1  and  C_2
REMARK    2  A    between atoms: C_5  and  C_6
REMARK    3  A    between atoms: C_6  and  C_7
REMARK    4  A    between atoms: C_6  and  N_8
REMARK    5  A    between atoms: N_8  and  C_9
REMARK    6  A    between atoms: C_12  and  C_13
REMARK                            x       y       z     vdW  Elec       q    Type
REMARK                         _______ _______ _______ _____ _____    ______ ____
ROOT
ATOM      1  N   UNL     1      44.233   5.446  10.365  0.00  0.00    +0.000 N 
ATOM      2  H   UNL     1      43.390   5.998  10.527  0.00  0.00    +0.000 HD
ENDROOT
BRANCH   1   3
ATOM      3  C   UNL     1      45.125   5.626  11.433  0.00  0.00    +0.000 A 
ATOM      4  C   UNL     1      44.992   5.013  12.682  0.00  0.00    +0.000 A 
ATOM      5  C   UNL     1      45.964   5.163  13.681  0.00  0.00    +0.000 A 
ATOM      6  C   UNL     1      47.116   5.915  13.444  0.00  0.00    +0.000 A 
ATOM      7  C   UNL     1      47.284   6.516  12.196  0.00  0.00    +0.000 A 
ATOM      8  C   UNL     1      46.307   6.354  11.202  0.00  0.00    +0.000 A 
BRANCH   6   9
ATOM      9  C   UNL     1      48.108   6.046  14.546  0.00  0.00    +0.000 C 
ATOM     10  N   UNL     1      47.737   5.609  15.787  0.00  0.00    +0.000 N 
ATOM     11  O   UNL     1      49.204   6.562  14.369  0.00  0.00    +0.000 OA
ATOM     12  H   UNL     1      46.777   5.419  16.033  0.00  0.00    +0.000 HD
ATOM     13  H   UNL     1      48.382   5.817  16.540  0.00  0.00    +0.000 HD
ENDBRANCH   6   9
ENDBRANCH   1   3
BRANCH   1  14
ATOM     14  C   UNL     1      43.872   4.092   9.895  0.00  0.00    +0.000 C 
ATOM     15  C   UNL     1      43.656   3.128  11.068  0.00  0.00    +0.000 C 
BRANCH  14  20
ATOM     16  C   UNL     1      47.881   2.105   6.213  0.00  0.00    +0.000 C 
ATOM     17  C   UNL     1      46.878   2.570   7.220  0.00  0.00    +0.000 A 
ATOM     18  C   UNL     1      46.268   1.694   8.116  0.00  0.00    +0.000 A 
ATOM     19  C   UNL     1      45.316   2.175   9.014  0.00  0.00    +0.000 A 
ATOM     20  C   UNL     1      44.977   3.529   8.990  0.00  0.00    +0.000 A 
ATOM     21  N   UNL     1      45.576   4.400   8.137  0.00  0.00    +0.000 NA
ATOM     22  C   UNL     1      46.501   3.906   7.281  0.00  0.00    +0.000 A 
ENDBRANCH  14  20
ENDBRANCH   1  14
TORSDOF 4
ENDMDL
MODEL 4
REMARK VINA RESULT:    -6.856      3.374      6.577
REMARK INTER + INTRA:          -9.065
REMARK INTER:                  -8.457
REMARK INTRA:                  -0.609
REMARK UNBOUND:                -0.607
REMARK  Name = 
REMARK  6 active torsions:
REMARK  status: ('A' for Active; 'I' for Inactive)
REMARK    1  A    between atoms: C_1  and  C_2
REMARK    2  A    between atoms: C_5  and  C_6
REMARK    3  A    between atoms: C_6  and  C_7
REMARK    4  A    between atoms: C_6  and  N_8
REMARK    5  A    between atoms: N_8  and  C_9
REMARK    6  A    between atoms: C_12  and  C_13
REMARK                            x       y       z     vdW  Elec       q    Type
REMARK                         _______ _______ _______ _____ _____    ______ ____
ROOT
ATOM      1  N   UNL     1      45.225   4.410  11.855  0.00  0.00    +0.000 N 
ATOM      2  H   UNL     1      46.089   3.869  11.799  0.00  0.00    +0.000 HD
ENDROOT
BRANCH   1   3
ATOM      3  C   UNL     1      45.530   5.774  11.979  0.00  0.00    +0.000 A 
ATOM      4  C   UNL     1      46.804   6.273  12.264  0.00  0.00    +0.000 A 
ATOM      5  C   UNL     1      47.064   7.651  12.288  0.00  0.00    +0.000 A 
ATOM      6  C   UNL     1      46.053   8.570  12.001  0.00  0.00    +0.000 A 
ATOM      7  C   UNL     1      44.779   8.095  11.689  0.00  0.00    +0.000 A 
ATOM      8  C   UNL     1      44.532   6.713  11.662  0.00  0.00    +0.000 A 
BRANCH   6   9
ATOM      9  C   UNL     1      46.387  10.019  12.052  0.00  0.00    +0.000 C 
ATOM     10  N   UNL     1      45.353  10.903  12.190  0.00  0.00    +0.000 N 
ATOM     11  O   UNL     1      47.538  10.421  11.934  0.00  0.00    +0.000 OA
ATOM     12  H   UNL     1      44.391  10.643  12.036  0.00  0.00    +0.000 HD
ATOM     13  H   UNL     1      45.595  11.883  12.103  0.00  0.00    +0.000 HD
ENDBRANCH   6   9
ENDBRANCH   1   3
BRANCH   1  14
ATOM     14  C   UNL     1      44.262   3.935  10.839  0.00  0.00    +0.000 C 
ATOM     15  C   UNL     1      43.417   2.769  11.366  0.00  0.00    +0.000 C 
BRANCH  14  20
ATOM     16  C   UNL     1      47.268   2.036   6.264  0.00  0.00    +0.000 C 
ATOM     17  C   UNL     1      46.456   2.580   7.396  0.00  0.00    +0.000 A 
ATOM     18  C   UNL     1      46.227   3.945   7.553  0.00  0.00    +0.000 A 
ATOM     19  C   UNL     1      45.488   4.402   8.645  0.00  0.00    +0.000 A 
ATOM     20  C   UNL     1      45.002   3.479   9.574  0.00  0.00    +0.000 A 
ATOM     21  N   UNL     1      45.200   2.144   9.424  0.00  0.00    +0.000 NA
ATOM     22  C   UNL     1      45.914   1.730   8.352  0.00  0.00    +0.000 A 
ENDBRANCH  14  20
ENDBRANCH   1  14
TORSDOF 4
ENDMDL
MODEL 5
REMARK VINA RESULT:    -6.422      1.698      2.301
REMARK INTER + INTRA:          -8.530
REMARK INTER:                  -8.034
REMARK INTRA:                  -0.496
REMARK UNBOUND:                -0.607
REMARK  Name = 
REMARK  6 active torsions:
REMARK  status: ('A' for Active; 'I' for Inactive)
REMARK    1  A    between atoms: C_1  and  C_2
REMARK    2  A    between atoms: C_5  and  C_6
REMARK    3  A    between atoms: C_6  and  C_7
REMARK    4  A    between atoms: C_6  and  N_8
REMARK    5  A    between atoms: N_8  and  C_9
REMARK    6  A    between atoms: C_12  and  C_13
REMARK                            x       y       z     vdW  Elec       q    Type
REMARK                         _______ _______ _______ _____ _____    ______ ____
ROOT
ATOM      1  N   UNL     1      43.870   4.708  10.319  0.00  0.00    +0.000 N 
ATOM      2  H   UNL     1      43.464   5.565   9.941  0.00  0.00    +0.000 HD
ENDROOT
BRANCH   1   3
ATOM      3  C   UNL     1      44.743   4.145   9.376  0.00  0.00    +0.000 A 
ATOM      4  C   UNL     1      44.632   2.843   8.879  0.00  0.00    +0.000 A 
ATOM      5  C   UNL     1      45.485   2.367   7.873  0.00  0.00    +0.000 A 
ATOM      6  C   UNL     1      46.460   3.195   7.317  0.00  0.00    +0.000 A 
ATOM      7  C   UNL     1      46.574   4.507   7.780  0.00  0.00    +0.000 A 
ATOM      8  C   UNL     1      45.712   4.975   8.783  0.00  0.00    +0.000 A 
BRANCH   6   9
ATOM      9  C   UNL     1      47.341   2.630   6.259  0.00  0.00    +0.000 C 
ATOM     10  N   UNL     1      48.682   2.562   6.520  0.00  0.00    +0.000 N 
ATOM     11  O   UNL     1      46.900   2.274   5.174  0.00  0.00    +0.000 OA
ATOM     12  H   UNL     1      49.114   3.068   7.278  0.00  0.00    +0.000 HD
ATOM     13  H   UNL     1      49.270   2.286   5.744  0.00  0.00    +0.000 HD
ENDBRANCH   6   9
ENDBRANCH   1   3
BRANCH   1  14
ATOM     14  C   UNL     1      44.296   4.921  11.719  0.00  0.00    +0.000 C 
ATOM     15  C   UNL     1      43.151   4.651  12.703  0.00  0.00    +0.000 C 
BRANCH  14  20
ATOM     16  C   UNL     1      46.146  10.398  12.114  0.00  0.00    +0.000 C 
ATOM     17  C   UNL     1      45.686   8.975  12.091  0.00  0.00    +0.000 A 
ATOM     18  C   UNL     1      46.376   7.963  12.755  0.00  0.00    +0.000 A 
ATOM     19  C   UNL     1      45.921   6.647  12.675  0.00  0.00    +0.000 A 
ATOM     20  C   UNL     1      44.785   6.363  11.913  0.00  0.00    +0.000 A 
ATOM     21  N   UNL     1      44.090   7.340  11.276  0.00  0.00    +0.000 NA
ATOM     22  C   UNL     1      44.552   8.609  11.378  0.00  0.00    +0.000 A 
ENDBRANCH  14  20
ENDBRANCH   1  14
TORSDOF 4
ENDMDL
MODEL 6
REMARK VINA RESULT:    -6.090      3.279      5.982
REMARK INTER + INTRA:          -8.120
REMARK INTER:                  -7.434
REMARK INTRA:                  -0.686
REMARK UNBOUND:                -0.607
REMARK  Name = 
REMARK  6 active torsions:
REMARK  status: ('A' for Active; 'I' for Inactive)
REMARK    1  A    between atoms: C_1  and  C_2
REMARK    2  A    between atoms: C_5  and  C_6
REMARK    3  A    between atoms: C_6  and  C_7
REMARK    4  A    between atoms: C_6  and  N_8
REMARK    5  A    between atoms: N_8  and  C_9
REMARK    6  A    between atoms: C_12  and  C_13
REMARK                            x       y       z     vdW  Elec       q    Type
REMARK                         _______ _______ _______ _____ _____    ______ ____
ROOT
ATOM      1  N   UNL     1      44.550   5.907  12.685  0.00  0.00    +0.000 N 
ATOM      2  H   UNL     1      44.613   4.990  13.130  0.00  0.00    +0.000 HD
ENDROOT
BRANCH   1   3
ATOM      3  C   UNL     1      45.817   6.509  12.666  0.00  0.00    +0.000 A 
ATOM      4  C   UNL     1      47.009   5.846  12.967  0.00  0.00    +0.000 A 
ATOM      5  C   UNL     1      48.254   6.480  12.845  0.00  0.00    +0.000 A 
ATOM      6  C   UNL     1      48.338   7.797  12.391  0.00  0.00    +0.000 A 
ATOM      7  C   UNL     1      47.163   8.473  12.061  0.00  0.00    +0.000 A 
ATOM      8  C   UNL     1      45.924   7.826  12.181  0.00  0.00    +0.000 A 
BRANCH   6   9
ATOM      9  C   UNL     1      49.686   8.420  12.292  0.00  0.00    +0.000 C 
ATOM     10  N   UNL     1      50.773   7.616  12.499  0.00  0.00    +0.000 N 
ATOM     11  O   UNL     1      49.830   9.617  12.073  0.00  0.00    +0.000 OA
ATOM     12  H   UNL     1      50.701   6.705  12.925  0.00  0.00    +0.000 HD
ATOM     13  H   UNL     1      51.668   8.086  12.543  0.00  0.00    +0.000 HD
ENDBRANCH   6   9
ENDBRANCH   1   3
BRANCH   1  14
ATOM     14  C   UNL     1      43.730   5.821  11.457  0.00  0.00    +0.000 C 
ATOM     15  C   UNL     1      42.261   5.522  11.781  0.00  0.00    +0.000 C 
BRANCH  14  20
ATOM     16  C   UNL     1      45.868   1.498   8.245  0.00  0.00    +0.000 C 
ATOM     17  C   UNL     1      45.308   2.657   9.006  0.00  0.00    +0.000 A 
ATOM     18  C   UNL     1      45.666   3.973   8.719  0.00  0.00    +0.000 A 
ATOM     19  C   UNL     1      45.138   5.015   9.482  0.00  0.00    +0.000 A 
ATOM     20  C   UNL     1      44.268   4.720  10.533  0.00  0.00    +0.000 A 
ATOM     21  N   UNL     1      43.893   3.445  10.812  0.00  0.00    +0.000 NA
ATOM     22  C   UNL     1      44.416   2.454  10.052  0.00  0.00    +0.000 A 
ENDBRANCH  14  20
ENDBRANCH   1  14
TORSDOF 4
ENDMDL
MODEL 7
REMARK VINA RESULT:    -5.820      3.770      6.105
REMARK INTER + INTRA:          -7.787
REMARK INTER:                  -7.278
REMARK INTRA:                  -0.509
REMARK UNBOUND:                -0.607
REMARK  Name = 
REMARK  6 active torsions:
REMARK  status: ('A' for Active; 'I' for Inactive)
REMARK    1  A    between atoms: C_1  and  C_2
REMARK    2  A    between atoms: C_5  and  C_6
REMARK    3  A    between atoms: C_6  and  C_7
REMARK    4  A    between atoms: C_6  and  N_8
REMARK    5  A    between atoms: N_8  and  C_9
REMARK    6  A    between atoms: C_12  and  C_13
REMARK                            x       y       z     vdW  Elec       q    Type
REMARK                         _______ _______ _______ _____ _____    ______ ____
ROOT
ATOM      1  N   UNL     1      47.557   5.188  15.365  0.00  0.00    +0.000 N 
ATOM      2  H   UNL     1      48.534   5.379  15.141  0.00  0.00    +0.000 HD
ENDROOT
BRANCH   1   3
ATOM      3  C   UNL     1      46.858   4.872  14.190  0.00  0.00    +0.000 A 
ATOM      4  C   UNL     1      46.594   3.570  13.758  0.00  0.00    +0.000 A 
ATOM      5  C   UNL     1      45.814   3.318  12.620  0.00  0.00    +0.000 A 
ATOM      6  C   UNL     1      45.253   4.371  11.895  0.00  0.00    +0.000 A 
ATOM      7  C   UNL     1      45.483   5.680  12.322  0.00  0.00    +0.000 A 
ATOM      8  C   UNL     1      46.260   5.919  13.466  0.00  0.00    +0.000 A 
BRANCH   6   9
ATOM      9  C   UNL     1      44.443   4.042  10.691  0.00  0.00    +0.000 C 
ATOM     10  N   UNL     1      44.085   5.073   9.867  0.00  0.00    +0.000 N 
ATOM     11  O   UNL     1      44.070   2.899  10.457  0.00  0.00    +0.000 OA
ATOM     12  H   UNL     1      44.147   6.039  10.148  0.00  0.00    +0.000 HD
ATOM     13  H   UNL     1      43.437   4.840   9.125  0.00  0.00    +0.000 HD
ENDBRANCH   6   9
ENDBRANCH   1   3
BRANCH   1  14
ATOM     14  C   UNL     1      47.468   4.321  16.560  0.00  0.00    +0.000 C 
ATOM     15  C   UNL     1      47.061   5.118  17.805  0.00  0.00    +0.000 C 
BRANCH  14  20
ATOM     16  C   UNL     1      52.397   1.499  17.710  0.00  0.00    +0.000 C 
ATOM     17  C   UNL     1      51.169   2.293  17.396  0.00  0.00    +0.000 A 
ATOM     18  C   UNL     1      51.019   3.616  17.807  0.00  0.00    +0.000 A 
ATOM     19  C   UNL     1      49.839   4.302  17.515  0.00  0.00    +0.000 A 
ATOM     20  C   UNL     1      48.819   3.642  16.827  0.00  0.00    +0.000 A 
ATOM     21  N   UNL     1      48.958   2.359  16.402  0.00  0.00    +0.000 NA
ATOM     22  C   UNL     1      50.115   1.722  16.694  0.00  0.00    +0.000 A 
ENDBRANCH  14  20
ENDBRANCH   1  14
TORSDOF 4
ENDMDL
