MODEL 1
REMARK VINA RESULT:    -8.388      0.000      0.000
REMARK INTER + INTRA:         -12.155
REMARK INTER:                 -10.840
REMARK INTRA:                  -1.315
REMARK UNBOUND:                -1.315
REMARK  Name = 
REMARK  6 active torsions:
REMARK  status: ('A' for Active; 'I' for Inactive)
REMARK    1  A    between atoms: C_1  and  C_2
REMARK    2  A    between atoms: C_4  and  C_5
REMARK    3  A    between atoms: C_10  and  O_11
REMARK    4  A    between atoms: O_11  and  C_12
REMARK    5  A    between atoms: C_12  and  C_13
REMARK    6  A    between atoms: C_17  and  C_18
REMARK                            x       y       z     vdW  Elec       q    Type
REMARK                         _______ _______ _______ _____ _____    ______ ____
ROOT
ATOM      1  C   UNL     1      43.808   6.449  11.618  0.00  0.00    +0.000 C 
ENDROOT
BRANCH   1   2
ATOM      2  C   UNL     1      43.866   5.018  11.158  0.00  0.00    +0.000 A 
ATOM      3  C   UNL     1      43.185   4.005  11.827  0.00  0.00    +0.000 A 
ATOM      4  C   UNL     1      43.361   2.703  11.393  0.00  0.00    +0.000 A 
ATOM      5  N   UNL     1      44.152   2.355  10.353  0.00  0.00    +0.000 NA
ATOM      6  C   UNL     1      44.797   3.345   9.687  0.00  0.00    +0.000 A 
ATOM      7  C   UNL     1      44.674   4.678  10.070  0.00  0.00    +0.000 A 
BRANCH   6   8
ATOM      8  C   UNL     1      45.647   2.930   8.553  0.00  0.00    +0.000 A 
ATOM      9  C   UNL     1      46.070   1.594   8.395  0.00  0.00    +0.000 A 
ATOM     10  C   UNL     1      46.868   1.205   7.319  0.00  0.00    +0.000 A 
ATOM     11  C   UNL     1      47.259   2.152   6.387  0.00  0.00    +0.000 A 
ATOM     12  F   UNL     1      48.035   1.781   5.358  0.00  0.00    +0.000 F 
ATOM     13  C   UNL     1      46.864   3.477   6.506  0.00  0.00    +0.000 A 
ATOM     14  C   UNL     1      46.063   3.862   7.582  0.00  0.00    +0.000 A 
ENDBRANCH   6   8
ENDBRANCH   1   2
BRANCH   1  15
ATOM     15  O   UNL     1      44.526   6.639  12.825  0.00  0.00    +0.000 OA
BRANCH  15  22
ATOM     16  C   UNL     1      46.693   4.483  13.707  0.00  0.00    +0.000 C 
ATOM     17  C   UNL     1      46.898   5.863  13.147  0.00  0.00    +0.000 A 
ATOM     18  C   UNL     1      48.246   6.256  12.990  0.00  0.00    +0.000 A 
ATOM     19  C   UNL     1      48.617   7.501  12.470  0.00  0.00    +0.000 A 
ATOM     20  C   UNL     1      47.613   8.389  12.089  0.00  0.00    +0.000 A 
ATOM     21  C   UNL     1      46.269   8.020  12.241  0.00  0.00    +0.000 A 
ATOM     22  C   UNL     1      45.890   6.771  12.767  0.00  0.00    +0.000 A 
BRANCH  19  23
ATOM     23  C   UNL     1      50.077   7.791  12.361  0.00  0.00    +0.000 C 
ATOM     24  N   UNL     1      50.849   7.719  13.485  0.00  0.00    +0.000 N 
ATOM     25  O   UNL     1      50.590   8.091  11.289  0.00  0.00    +0.000 OA
ATOM     26  H   UNL     1      50.518   7.482  14.410  0.00  0.00    +0.000 HD
ATOM     27  H   UNL     1      51.833   7.922  13.368  0.00  0.00    +0.000 HD
ENDBRANCH  19  23
ENDBRANCH  15  22
ENDBRANCH   1  15
TORSDOF 5
ENDMDL
MODEL 2
REMARK VINA RESULT:    -8.013      0.552      1.798
REMARK INTER + INTRA:         -11.670
REMARK INTER:                 -10.677
REMARK INTRA:                  -0.993
REMARK UNBOUND:                -1.315
REMARK  Name = 
REMARK  6 active torsions:
REMARK  status: ('A' for Active; 'I' for Inactive)
REMARK    1  A    between atoms: C_1  and  C_2
REMARK    2  A    between atoms: C_4  and  C_5
REMARK    3  A    between atoms: C_10  and  O_11
REMARK    4  A    between atoms: O_11  and  C_12
REMARK    5  A    between atoms: C_12  and  C_13
REMARK    6  A    between atoms: C_17  and  C_18
REMARK                            x       y       z     vdW  Elec       q    Type
REMARK                         _______ _______ _______ _____ _____    ______ ____
ROOT
ATOM      1  C   UNL     1      43.331   6.254  11.422  0.00  0.00    +0.000 C 
ENDROOT
BRANCH   1   2
ATOM      2  C   UNL     1      43.580   4.823  11.032  0.00  0.00    +0.000 A 
ATOM      3  C   UNL     1      43.056   3.762  11.765  0.00  0.00    +0.000 A 
ATOM      4  C   UNL     1      43.405   2.476  11.393  0.00  0.00    +0.000 A 
ATOM      5  N   UNL     1      44.221   2.187  10.354  0.00  0.00    +0.000 NA
ATOM      6  C   UNL     1      44.713   3.220   9.627  0.00  0.00    +0.000 A 
ATOM      7  C   UNL     1      44.412   4.542   9.946  0.00  0.00    +0.000 A 
BRANCH   6   8
ATOM      8  C   UNL     1      45.596   2.868   8.497  0.00  0.00    +0.000 A 
ATOM      9  C   UNL     1      45.937   3.808   7.503  0.00  0.00    +0.000 A 
ATOM     10  C   UNL     1      46.777   3.473   6.440  0.00  0.00    +0.000 A 
ATOM     11  C   UNL     1      47.283   2.187   6.355  0.00  0.00    +0.000 A 
ATOM     12  F   UNL     1      48.081   1.860   5.328  0.00  0.00    +0.000 F 
ATOM     13  C   UNL     1      46.972   1.232   7.312  0.00  0.00    +0.000 A 
ATOM     14  C   UNL     1      46.134   1.571   8.376  0.00  0.00    +0.000 A 
ENDBRANCH   6   8
ENDBRANCH   1   2
BRANCH   1  15
ATOM     15  O   UNL     1      44.009   6.596  12.619  0.00  0.00    +0.000 OA
BRANCH  15  22
ATOM     16  C   UNL     1      45.188   9.423  11.760  0.00  0.00    +0.000 C 
ATOM     17  C   UNL     1      45.917   8.174  12.170  0.00  0.00    +0.000 A 
ATOM     18  C   UNL     1      47.326   8.272  12.174  0.00  0.00    +0.000 A 
ATOM     19  C   UNL     1      48.159   7.210  12.542  0.00  0.00    +0.000 A 
ATOM     20  C   UNL     1      47.572   6.005  12.922  0.00  0.00    +0.000 A 
ATOM     21  C   UNL     1      46.175   5.886  12.921  0.00  0.00    +0.000 A 
ATOM     22  C   UNL     1      45.333   6.949  12.548  0.00  0.00    +0.000 A 
BRANCH  19  23
ATOM     23  C   UNL     1      49.632   7.446  12.499  0.00  0.00    +0.000 C 
ATOM     24  N   UNL     1      50.327   7.488  13.674  0.00  0.00    +0.000 N 
ATOM     25  O   UNL     1      50.224   7.602  11.437  0.00  0.00    +0.000 OA
ATOM     26  H   UNL     1      49.929   7.373  14.596  0.00  0.00    +0.000 HD
ATOM     27  H   UNL     1      51.323   7.650  13.602  0.00  0.00    +0.000 HD
ENDBRANCH  19  23
ENDBRANCH  15  22
ENDBRANCH   1  15
TORSDOF 5
ENDMDL
MODEL 3
REMARK VINA RESULT:    -7.792      3.401      6.656
REMARK INTER + INTRA:         -11.385
REMARK INTER:                 -10.466
REMARK INTRA:                  -0.919
REMARK UNBOUND:                -1.315
REMARK  Name = 
REMARK  6 active torsions:
REMARK  status: ('A' for Active; 'I' for Inactive)
REMARK    1  A    between atoms: C_1  and  C_2
REMARK    2  A    between atoms: C_4  and  C_5
REMARK    3  A    between atoms: C_10  and  O_11
REMARK    4  A    between atoms: O_11  and  C_12
REMARK    5  A    between atoms: C_12  and  C_13
REMARK    6  A    between atoms: C_17  and  C_18
REMARK                            x       y       z     vdW  Elec       q    Type
REMARK                         _______ _______ _______ _____ _____    ______ ____
ROOT
ATOM      1  C   UNL     1      43.774   4.903  11.369  0.00  0.00    +0.000 C 
ENDROOT
BRANCH   1   2
ATOM      2  C   UNL     1      45.128   5.030  12.012  0.00  0.00    +0.000 A 
ATOM      3  C   UNL     1      45.590   4.098  12.937  0.00  0.00    +0.000 A 
ATOM      4  C   UNL     1      46.808   4.335  13.548  0.00  0.00    +0.000 A 
ATOM      5  N   UNL     1      47.581   5.416  13.298  0.00  0.00    +0.000 NA
ATOM      6  C   UNL     1      47.140   6.312  12.380  0.00  0.00    +0.000 A 
ATOM      7  C   UNL     1      45.921   6.145  11.729  0.00  0.00    +0.000 A 
BRANCH   6   8
ATOM      8  C   UNL     1      48.011   7.477  12.127  0.00  0.00    +0.000 A 
ATOM      9  C   UNL     1      49.400   7.334  11.928  0.00  0.00    +0.000 A 
ATOM     10  C   UNL     1      50.219   8.437  11.683  0.00  0.00    +0.000 A 
ATOM     11  C   UNL     1      49.657   9.702  11.639  0.00  0.00    +0.000 A 
ATOM     12  F   UNL     1      50.445  10.764  11.416  0.00  0.00    +0.000 F 
ATOM     13  C   UNL     1      48.295   9.886  11.831  0.00  0.00    +0.000 A 
ATOM     14  C   UNL     1      47.478   8.780  12.072  0.00  0.00    +0.000 A 
ENDBRANCH   6   8
ENDBRANCH   1   2
BRANCH   1  15
ATOM     15  O   UNL     1      43.863   4.926   9.955  0.00  0.00    +0.000 OA
BRANCH  15  22
ATOM     16  C   UNL     1      43.819   1.783  10.451  0.00  0.00    +0.000 C 
ATOM     17  C   UNL     1      44.671   2.585   9.506  0.00  0.00    +0.000 A 
ATOM     18  C   UNL     1      45.580   1.833   8.730  0.00  0.00    +0.000 A 
ATOM     19  C   UNL     1      46.440   2.417   7.792  0.00  0.00    +0.000 A 
ATOM     20  C   UNL     1      46.393   3.799   7.617  0.00  0.00    +0.000 A 
ATOM     21  C   UNL     1      45.500   4.563   8.381  0.00  0.00    +0.000 A 
ATOM     22  C   UNL     1      44.637   3.982   9.328  0.00  0.00    +0.000 A 
BRANCH  19  23
ATOM     23  C   UNL     1      47.354   1.509   7.040  0.00  0.00    +0.000 C 
ATOM     24  N   UNL     1      48.463   2.037   6.444  0.00  0.00    +0.000 N 
ATOM     25  O   UNL     1      47.129   0.308   6.950  0.00  0.00    +0.000 OA
ATOM     26  H   UNL     1      48.732   3.011   6.461  0.00  0.00    +0.000 HD
ATOM     27  H   UNL     1      49.057   1.388   5.945  0.00  0.00    +0.000 HD
ENDBRANCH  19  23
ENDBRANCH  15  22
ENDBRANCH   1  15
TORSDOF 5
ENDMDL
MODEL 4
REMARK VINA RESULT:    -7.588      3.873      7.431
REMARK INTER + INTRA:         -11.121
REMARK INTER:                 -10.382
REMARK INTRA:                  -0.739
REMARK UNBOUND:                -1.315
REMARK  Name = 
REMARK  6 active torsions:
REMARK  status: ('A' for Active; 'I' for Inactive)
REMARK    1  A    between atoms: C_1  and  C_2
REMARK    2  A    between atoms: C_4  and  C_5
REMARK    3  A    between atoms: C_10  and  O_11
REMARK    4  A    between atoms: O_11  and  C_12
REMARK    5  A    between atoms: C_12  and  C_13
REMARK    6  A    between atoms: C_17  and  C_18
REMARK                            x       y       z     vdW  Elec       q    Type
REMARK                         _______ _______ _______ _____ _____    ______ ____
ROOT
ATOM      1  C   UNL     1      44.097   5.262  11.397  0.00  0.00    +0.000 C 
ENDROOT
BRANCH   1   2
ATOM      2  C   UNL     1      45.381   5.752  12.008  0.00  0.00    +0.000 A 
ATOM      3  C   UNL     1      46.203   6.664  11.352  0.00  0.00    +0.000 A 
ATOM      4  C   UNL     1      47.410   6.996  11.942  0.00  0.00    +0.000 A 
ATOM      5  N   UNL     1      47.837   6.493  13.122  0.00  0.00    +0.000 NA
ATOM      6  C   UNL     1      47.024   5.623  13.772  0.00  0.00    +0.000 A 
ATOM      7  C   UNL     1      45.798   5.235  13.237  0.00  0.00    +0.000 A 
BRANCH   6   8
ATOM      8  C   UNL     1      47.519   5.098  15.061  0.00  0.00    +0.000 A 
ATOM      9  C   UNL     1      48.371   5.856  15.890  0.00  0.00    +0.000 A 
ATOM     10  C   UNL     1      48.831   5.358  17.110  0.00  0.00    +0.000 A 
ATOM     11  C   UNL     1      48.448   4.090  17.514  0.00  0.00    +0.000 A 
ATOM     12  F   UNL     1      48.899   3.607  18.681  0.00  0.00    +0.000 F 
ATOM     13  C   UNL     1      47.611   3.312  16.727  0.00  0.00    +0.000 A 
ATOM     14  C   UNL     1      47.149   3.814  15.508  0.00  0.00    +0.000 A 
ENDBRANCH   6   8
ENDBRANCH   1   2
BRANCH   1  15
ATOM     15  O   UNL     1      44.187   5.181   9.986  0.00  0.00    +0.000 OA
BRANCH  15  22
ATOM     16  C   UNL     1      43.808   2.139  10.836  0.00  0.00    +0.000 C 
ATOM     17  C   UNL     1      44.680   2.723   9.760  0.00  0.00    +0.000 A 
ATOM     18  C   UNL     1      45.437   1.786   9.023  0.00  0.00    +0.000 A 
ATOM     19  C   UNL     1      46.291   2.156   7.977  0.00  0.00    +0.000 A 
ATOM     20  C   UNL     1      46.395   3.506   7.649  0.00  0.00    +0.000 A 
ATOM     21  C   UNL     1      45.654   4.452   8.372  0.00  0.00    +0.000 A 
ATOM     22  C   UNL     1      44.798   4.087   9.427  0.00  0.00    +0.000 A 
BRANCH  19  23
ATOM     23  C   UNL     1      47.036   1.066   7.282  0.00  0.00    +0.000 C 
ATOM     24  N   UNL     1      46.790  -0.229   7.636  0.00  0.00    +0.000 N 
ATOM     25  O   UNL     1      47.858   1.312   6.407  0.00  0.00    +0.000 OA
ATOM     26  H   UNL     1      46.134  -0.530   8.344  0.00  0.00    +0.000 HD
ATOM     27  H   UNL     1      47.315  -0.938   7.141  0.00  0.00    +0.000 HD
ENDBRANCH  19  23
ENDBRANCH  15  22
ENDBRANCH   1  15
TORSDOF 5
ENDMDL
MODEL 5
REMARK VINA RESULT:    -7.462      2.668      3.464
REMARK INTER + INTRA:         -10.958
REMARK INTER:                 -10.138
REMARK INTRA:                  -0.820
REMARK UNBOUND:                -1.315
REMARK  Name = 
REMARK  6 active torsions:
REMARK  status: ('A' for Active; 'I' for Inactive)
REMARK    1  A    between atoms: C_1  and  C_2
REMARK    2  A    between atoms: C_4  and  C_5
REMARK    3  A    between atoms: C_10  and  O_11
REMARK    4  A    between atoms: O_11  and  C_12
REMARK    5  A    between atoms: C_12  and  C_13
REMARK    6  A    between atoms: C_17  and  C_18
REMARK                            x       y       z     vdW  Elec       q    Type
REMARK                         _______ _______ _______ _____ _____    ______ ____
ROOT
ATOM      1  C   UNL     1      46.085   7.231  12.397  0.00  0.00    +0.000 C 
ENDROOT
BRANCH   1   2
ATOM      2  C   UNL     1      45.210   6.349  11.550  0.00  0.00    +0.000 A 
ATOM      3  C   UNL     1      43.828   6.310  11.718  0.00  0.00    +0.000 A 
ATOM      4  C   UNL     1      43.105   5.407  10.959  0.00  0.00    +0.000 A 
ATOM      5  N   UNL     1      43.658   4.564  10.059  0.00  0.00    +0.000 NA
ATOM      6  C   UNL     1      45.001   4.619   9.879  0.00  0.00    +0.000 A 
ATOM      7  C   UNL     1      45.796   5.497  10.611  0.00  0.00    +0.000 A 
BRANCH   6   8
ATOM      8  C   UNL     1      45.571   3.689   8.884  0.00  0.00    +0.000 A 
ATOM      9  C   UNL     1      46.206   4.154   7.714  0.00  0.00    +0.000 A 
ATOM     10  C   UNL     1      46.749   3.272   6.780  0.00  0.00    +0.000 A 
ATOM     11  C   UNL     1      46.657   1.907   7.001  0.00  0.00    +0.000 A 
ATOM     12  F   UNL     1      47.168   1.058   6.098  0.00  0.00    +0.000 F 
ATOM     13  C   UNL     1      46.040   1.409   8.139  0.00  0.00    +0.000 A 
ATOM     14  C   UNL     1      45.501   2.295   9.075  0.00  0.00    +0.000 A 
ENDBRANCH   6   8
ENDBRANCH   1   2
BRANCH   1  15
ATOM     15  O   UNL     1      47.342   6.630  12.652  0.00  0.00    +0.000 OA
BRANCH  15  22
ATOM     16  C   UNL     1      46.294   3.718  13.389  0.00  0.00    +0.000 C 
ATOM     17  C   UNL     1      47.084   4.685  14.227  0.00  0.00    +0.000 A 
ATOM     18  C   UNL     1      47.405   4.233  15.526  0.00  0.00    +0.000 A 
ATOM     19  C   UNL     1      48.146   4.999  16.434  0.00  0.00    +0.000 A 
ATOM     20  C   UNL     1      48.586   6.260  16.036  0.00  0.00    +0.000 A 
ATOM     21  C   UNL     1      48.273   6.728  14.752  0.00  0.00    +0.000 A 
ATOM     22  C   UNL     1      47.526   5.964  13.837  0.00  0.00    +0.000 A 
BRANCH  19  23
ATOM     23  C   UNL     1      48.413   4.404  17.776  0.00  0.00    +0.000 C 
ATOM     24  N   UNL     1      47.573   4.707  18.809  0.00  0.00    +0.000 N 
ATOM     25  O   UNL     1      49.364   3.655  17.965  0.00  0.00    +0.000 OA
ATOM     26  H   UNL     1      46.766   5.313  18.752  0.00  0.00    +0.000 HD
ATOM     27  H   UNL     1      47.788   4.283  19.702  0.00  0.00    +0.000 HD
ENDBRANCH  19  23
ENDBRANCH  15  22
ENDBRANCH   1  15
TORSDOF 5
ENDMDL
MODEL 6
REMARK VINA RESULT:    -7.447      2.376      3.481
REMARK INTER + INTRA:         -10.938
REMARK INTER:                 -10.432
REMARK INTRA:                  -0.507
REMARK UNBOUND:                -1.315
REMARK  Name = 
REMARK  6 active torsions:
REMARK  status: ('A' for Active; 'I' for Inactive)
REMARK    1  A    between atoms: C_1  and  C_2
REMARK    2  A    between atoms: C_4  and  C_5
REMARK    3  A    between atoms: C_10  and  O_11
REMARK    4  A    between atoms: O_11  and  C_12
REMARK    5  A    between atoms: C_12  and  C_13
REMARK    6  A    between atoms: C_17  and  C_18
REMARK                            x       y       z     vdW  Elec       q    Type
REMARK                         _______ _______ _______ _____ _____    ______ ____
ROOT
ATOM      1  C   UNL     1      45.983   7.337  12.151  0.00  0.00    +0.000 C 
ENDROOT
BRANCH   1   2
ATOM      2  C   UNL     1      45.155   6.345  11.382  0.00  0.00    +0.000 A 
ATOM      3  C   UNL     1      43.792   6.188  11.621  0.00  0.00    +0.000 A 
ATOM      4  C   UNL     1      43.120   5.192  10.934  0.00  0.00    +0.000 A 
ATOM      5  N   UNL     1      43.706   4.366  10.038  0.00  0.00    +0.000 NA
ATOM      6  C   UNL     1      45.029   4.535   9.789  0.00  0.00    +0.000 A 
ATOM      7  C   UNL     1      45.773   5.511  10.447  0.00  0.00    +0.000 A 
BRANCH   6   8
ATOM      8  C   UNL     1      45.635   3.619   8.802  0.00  0.00    +0.000 A 
ATOM      9  C   UNL     1      45.612   2.221   8.978  0.00  0.00    +0.000 A 
ATOM     10  C   UNL     1      46.181   1.359   8.040  0.00  0.00    +0.000 A 
ATOM     11  C   UNL     1      46.786   1.887   6.912  0.00  0.00    +0.000 A 
ATOM     12  F   UNL     1      47.343   1.060   6.016  0.00  0.00    +0.000 F 
ATOM     13  C   UNL     1      46.831   3.258   6.701  0.00  0.00    +0.000 A 
ATOM     14  C   UNL     1      46.257   4.118   7.640  0.00  0.00    +0.000 A 
ENDBRANCH   6   8
ENDBRANCH   1   2
BRANCH   1  15
ATOM     15  O   UNL     1      47.267   6.820  12.457  0.00  0.00    +0.000 OA
BRANCH  15  22
ATOM     16  C   UNL     1      49.037   7.799  14.912  0.00  0.00    +0.000 C 
ATOM     17  C   UNL     1      48.220   6.545  14.769  0.00  0.00    +0.000 A 
ATOM     18  C   UNL     1      48.244   5.680  15.886  0.00  0.00    +0.000 A 
ATOM     19  C   UNL     1      47.530   4.477  15.928  0.00  0.00    +0.000 A 
ATOM     20  C   UNL     1      46.762   4.120  14.821  0.00  0.00    +0.000 A 
ATOM     21  C   UNL     1      46.729   4.963  13.702  0.00  0.00    +0.000 A 
ATOM     22  C   UNL     1      47.448   6.171  13.652  0.00  0.00    +0.000 A 
BRANCH  19  23
ATOM     23  C   UNL     1      47.644   3.655  17.168  0.00  0.00    +0.000 C 
ATOM     24  N   UNL     1      48.778   3.754  17.922  0.00  0.00    +0.000 N 
ATOM     25  O   UNL     1      46.746   2.898  17.518  0.00  0.00    +0.000 OA
ATOM     26  H   UNL     1      49.571   4.347  17.715  0.00  0.00    +0.000 HD
ATOM     27  H   UNL     1      48.817   3.181  18.754  0.00  0.00    +0.000 HD
ENDBRANCH  19  23
ENDBRANCH  15  22
ENDBRANCH   1  15
TORSDOF 5
ENDMDL
MODEL 7
REMARK VINA RESULT:    -7.394      3.558      7.008
REMARK INTER + INTRA:         -10.870
REMARK INTER:                  -9.956
REMARK INTRA:                  -0.914
REMARK UNBOUND:                -1.315
REMARK  Name = 
REMARK  6 active torsions:
REMARK  status: ('A' for Active; 'I' for Inactive)
REMARK    1  A    between atoms: C_1  and  C_2
REMARK    2  A    between atoms: C_4  and  C_5
REMARK    3  A    between atoms: C_10  and  O_11
REMARK    4  A    between atoms: O_11  and  C_12
REMARK    5  A    between atoms: C_12  and  C_13
REMARK    6  A    between atoms: C_17  and  C_18
REMARK                            x       y       z     vdW  Elec       q    Type
REMARK                         _______ _______ _______ _____ _____    ______ ____
ROOT
ATOM      1  C   UNL     1      44.971   6.290  10.641  0.00  0.00    +0.000 C 
ENDROOT
BRANCH   1   2
ATOM      2  C   UNL     1      45.975   5.959  11.711  0.00  0.00    +0.000 A 
ATOM      3  C   UNL     1      45.728   4.981  12.671  0.00  0.00    +0.000 A 
ATOM      4  C   UNL     1      46.665   4.800  13.672  0.00  0.00    +0.000 A 
ATOM      5  N   UNL     1      47.810   5.510  13.772  0.00  0.00    +0.000 NA
ATOM      6  C   UNL     1      48.062   6.446  12.823  0.00  0.00    +0.000 A 
ATOM      7  C   UNL     1      47.163   6.691  11.789  0.00  0.00    +0.000 A 
BRANCH   6   8
ATOM      8  C   UNL     1      49.324   7.199  12.960  0.00  0.00    +0.000 A 
ATOM      9  C   UNL     1      49.877   7.495  14.223  0.00  0.00    +0.000 A 
ATOM     10  C   UNL     1      51.074   8.201  14.347  0.00  0.00    +0.000 A 
ATOM     11  C   UNL     1      51.732   8.628  13.206  0.00  0.00    +0.000 A 
ATOM     12  F   UNL     1      52.876   9.317  13.324  0.00  0.00    +0.000 F 
ATOM     13  C   UNL     1      51.221   8.358  11.944  0.00  0.00    +0.000 A 
ATOM     14  C   UNL     1      50.025   7.648  11.823  0.00  0.00    +0.000 A 
ENDBRANCH   6   8
ENDBRANCH   1   2
BRANCH   1  15
ATOM     15  O   UNL     1      44.273   5.136  10.204  0.00  0.00    +0.000 OA
BRANCH  15  22
ATOM     16  C   UNL     1      44.057   1.971  10.448  0.00  0.00    +0.000 C 
ATOM     17  C   UNL     1      44.901   2.798   9.518  0.00  0.00    +0.000 A 
ATOM     18  C   UNL     1      45.711   2.062   8.626  0.00  0.00    +0.000 A 
ATOM     19  C   UNL     1      46.548   2.670   7.684  0.00  0.00    +0.000 A 
ATOM     20  C   UNL     1      46.580   4.062   7.623  0.00  0.00    +0.000 A 
ATOM     21  C   UNL     1      45.786   4.810   8.503  0.00  0.00    +0.000 A 
ATOM     22  C   UNL     1      44.946   4.204   9.455  0.00  0.00    +0.000 A 
BRANCH  19  23
ATOM     23  C   UNL     1      47.355   1.776   6.804  0.00  0.00    +0.000 C 
ATOM     24  N   UNL     1      48.408   2.305   6.114  0.00  0.00    +0.000 N 
ATOM     25  O   UNL     1      47.092   0.584   6.690  0.00  0.00    +0.000 OA
ATOM     26  H   UNL     1      48.702   3.272   6.142  0.00  0.00    +0.000 HD
ATOM     27  H   UNL     1      48.930   1.666   5.529  0.00  0.00    +0.000 HD
ENDBRANCH  19  23
ENDBRANCH  15  22
ENDBRANCH   1  15
TORSDOF 5
ENDMDL
MODEL 8
REMARK VINA RESULT:    -7.077      3.590      7.004
REMARK INTER + INTRA:         -10.461
REMARK INTER:                  -9.487
REMARK INTRA:                  -0.974
REMARK UNBOUND:                -1.315
REMARK  Name = 
REMARK  6 active torsions:
REMARK  status: ('A' for Active; 'I' for Inactive)
REMARK    1  A    between atoms: C_1  and  C_2
REMARK    2  A    between atoms: C_4  and  C_5
REMARK    3  A    between atoms: C_10  and  O_11
REMARK    4  A    between atoms: O_11  and  C_12
REMARK    5  A    between atoms: C_12  and  C_13
REMARK    6  A    between atoms: C_17  and  C_18
REMARK                            x       y       z     vdW  Elec       q    Type
REMARK                         _______ _______ _______ _____ _____    ______ ____
ROOT
ATOM      1  C   UNL     1      44.836   3.246  11.959  0.00  0.00    +0.000 C 
ENDROOT
BRANCH   1   2
ATOM      2  C   UNL     1      45.075   4.676  12.359  0.00  0.00    +0.000 A 
ATOM      3  C   UNL     1      44.038   5.604  12.415  0.00  0.00    +0.000 A 
ATOM      4  C   UNL     1      44.355   6.919  12.705  0.00  0.00    +0.000 A 
ATOM      5  N   UNL     1      45.612   7.357  12.944  0.00  0.00    +0.000 NA
ATOM      6  C   UNL     1      46.618   6.448  12.912  0.00  0.00    +0.000 A 
ATOM      7  C   UNL     1      46.377   5.108  12.620  0.00  0.00    +0.000 A 
BRANCH   6   8
ATOM      8  C   UNL     1      47.976   6.960  13.183  0.00  0.00    +0.000 A 
ATOM      9  C   UNL     1      48.754   7.564  12.174  0.00  0.00    +0.000 A 
ATOM     10  C   UNL     1      50.035   8.052  12.436  0.00  0.00    +0.000 A 
ATOM     11  C   UNL     1      50.558   7.936  13.713  0.00  0.00    +0.000 A 
ATOM     12  F   UNL     1      51.793   8.394  13.963  0.00  0.00    +0.000 F 
ATOM     13  C   UNL     1      49.825   7.348  14.734  0.00  0.00    +0.000 A 
ATOM     14  C   UNL     1      48.542   6.864  14.470  0.00  0.00    +0.000 A 
ENDBRANCH   6   8
ENDBRANCH   1   2
BRANCH   1  15
ATOM     15  O   UNL     1      44.238   3.154  10.678  0.00  0.00    +0.000 OA
BRANCH  15  22
ATOM     16  C   UNL     1      45.585   5.616   9.178  0.00  0.00    +0.000 C 
ATOM     17  C   UNL     1      45.668   4.148   8.862  0.00  0.00    +0.000 A 
ATOM     18  C   UNL     1      46.458   3.818   7.739  0.00  0.00    +0.000 A 
ATOM     19  C   UNL     1      46.655   2.500   7.311  0.00  0.00    +0.000 A 
ATOM     20  C   UNL     1      46.046   1.471   8.027  0.00  0.00    +0.000 A 
ATOM     21  C   UNL     1      45.255   1.778   9.142  0.00  0.00    +0.000 A 
ATOM     22  C   UNL     1      45.050   3.101   9.574  0.00  0.00    +0.000 A 
BRANCH  19  23
ATOM     23  C   UNL     1      47.510   2.290   6.106  0.00  0.00    +0.000 C 
ATOM     24  N   UNL     1      47.352   3.120   5.033  0.00  0.00    +0.000 N 
ATOM     25  O   UNL     1      48.345   1.394   6.064  0.00  0.00    +0.000 OA
ATOM     26  H   UNL     1      46.691   3.883   4.974  0.00  0.00    +0.000 HD
ATOM     27  H   UNL     1      47.951   2.945   4.237  0.00  0.00    +0.000 HD
ENDBRANCH  19  23
ENDBRANCH  15  22
ENDBRANCH   1  15
TORSDOF 5
ENDMDL
MODEL 9
REMARK VINA RESULT:    -7.076      3.552      6.906
REMARK INTER + INTRA:         -10.460
REMARK INTER:                  -9.817
REMARK INTRA:                  -0.642
REMARK UNBOUND:                -1.315
REMARK  Name = 
REMARK  6 active torsions:
REMARK  status: ('A' for Active; 'I' for Inactive)
REMARK    1  A    between atoms: C_1  and  C_2
REMARK    2  A    between atoms: C_4  and  C_5
REMARK    3  A    between atoms: C_10  and  O_11
REMARK    4  A    between atoms: O_11  and  C_12
REMARK    5  A    between atoms: C_12  and  C_13
REMARK    6  A    between atoms: C_17  and  C_18
REMARK                            x       y       z     vdW  Elec       q    Type
REMARK                         _______ _______ _______ _____ _____    ______ ____
ROOT
ATOM      1  C   UNL     1      44.033   3.069  11.920  0.00  0.00    +0.000 C 
ENDROOT
BRANCH   1   2
ATOM      2  C   UNL     1      45.194   3.838  12.488  0.00  0.00    +0.000 A 
ATOM      3  C   UNL     1      46.164   3.224  13.277  0.00  0.00    +0.000 A 
ATOM      4  C   UNL     1      47.150   4.018  13.834  0.00  0.00    +0.000 A 
ATOM      5  N   UNL     1      47.233   5.356  13.654  0.00  0.00    +0.000 NA
ATOM      6  C   UNL     1      46.302   5.949  12.867  0.00  0.00    +0.000 A 
ATOM      7  C   UNL     1      45.275   5.217  12.278  0.00  0.00    +0.000 A 
BRANCH   6   8
ATOM      8  C   UNL     1      46.426   7.410  12.687  0.00  0.00    +0.000 A 
ATOM      9  C   UNL     1      47.640   8.084  12.930  0.00  0.00    +0.000 A 
ATOM     10  C   UNL     1      47.755   9.463  12.753  0.00  0.00    +0.000 A 
ATOM     11  C   UNL     1      46.652  10.189  12.335  0.00  0.00    +0.000 A 
ATOM     12  F   UNL     1      46.758  11.516  12.176  0.00  0.00    +0.000 F 
ATOM     13  C   UNL     1      45.439   9.563  12.086  0.00  0.00    +0.000 A 
ATOM     14  C   UNL     1      45.328   8.182  12.260  0.00  0.00    +0.000 A 
ENDBRANCH   6   8
ENDBRANCH   1   2
BRANCH   1  15
ATOM     15  O   UNL     1      43.711   3.501  10.610  0.00  0.00    +0.000 OA
BRANCH  15  22
ATOM     16  C   UNL     1      45.488   5.778   9.275  0.00  0.00    +0.000 C 
ATOM     17  C   UNL     1      45.453   4.304   8.980  0.00  0.00    +0.000 A 
ATOM     18  C   UNL     1      46.335   3.872   7.966  0.00  0.00    +0.000 A 
ATOM     19  C   UNL     1      46.442   2.533   7.574  0.00  0.00    +0.000 A 
ATOM     20  C   UNL     1      45.643   1.587   8.213  0.00  0.00    +0.000 A 
ATOM     21  C   UNL     1      44.758   1.997   9.220  0.00  0.00    +0.000 A 
ATOM     22  C   UNL     1      44.644   3.342   9.616  0.00  0.00    +0.000 A 
BRANCH  19  23
ATOM     23  C   UNL     1      47.412   2.211   6.486  0.00  0.00    +0.000 C 
ATOM     24  N   UNL     1      47.303   2.865   5.292  0.00  0.00    +0.000 N 
ATOM     25  O   UNL     1      48.296   1.379   6.645  0.00  0.00    +0.000 OA
ATOM     26  H   UNL     1      46.608   3.564   5.066  0.00  0.00    +0.000 HD
ATOM     27  H   UNL     1      47.980   2.619   4.582  0.00  0.00    +0.000 HD
ENDBRANCH  19  23
ENDBRANCH  15  22
ENDBRANCH   1  15
TORSDOF 5
ENDMDL
