MODEL 1
REMARK VINA RESULT:    -9.250      0.000      0.000
REMARK INTER + INTRA:         -12.661
REMARK INTER:                 -11.413
REMARK INTRA:                  -1.248
REMARK UNBOUND:                -1.248
REMARK  Name = 
REMARK  4 active torsions:
REMARK  status: ('A' for Active; 'I' for Inactive)
REMARK    1  A    between atoms: C_2  and  C_4
REMARK    2  A    between atoms: N_8  and  C_9
REMARK    3  A    between atoms: C_9  and  C_10
REMARK    4  A    between atoms: C_14  and  C_15
REMARK                            x       y       z     vdW  Elec       q    Type
REMARK                         _______ _______ _______ _____ _____    ______ ____
ROOT
ATOM      1  C   UNL     1      43.789   4.899  11.382  0.00  0.00    +0.000 C 
ATOM      2  C   UNL     1      42.440   5.206  12.021  0.00  0.00    +0.000 C 
ATOM      3  C   UNL     1      43.028   6.163  11.038  0.00  0.00    +0.000 C 
ENDROOT
BRANCH   1   8
ATOM      4  C   UNL     1      46.548   2.749   7.526  0.00  0.00    +0.000 A 
ATOM      5  C   UNL     1      46.191   4.086   7.691  0.00  0.00    +0.000 A 
ATOM      6  C   UNL     1      45.300   4.438   8.705  0.00  0.00    +0.000 A 
ATOM      7  C   UNL     1      44.783   3.456   9.538  0.00  0.00    +0.000 A 
ATOM      8  N   UNL     1      43.802   3.709  10.507  0.00  0.00    +0.000 N 
ATOM      9  N   UNL     1      45.130   2.158   9.395  0.00  0.00    +0.000 NA
ATOM     10  C   UNL     1      45.999   1.827   8.396  0.00  0.00    +0.000 A 
ATOM     11  H   UNL     1      43.686   2.821  10.994  0.00  0.00    +0.000 HD
BRANCH   4  13
ATOM     12  N   UNL     1      47.350   2.903   5.239  0.00  0.00    +0.000 N 
ATOM     13  C   UNL     1      47.436   2.274   6.448  0.00  0.00    +0.000 C 
ATOM     14  O   UNL     1      48.232   1.363   6.632  0.00  0.00    +0.000 OA
ATOM     15  H   UNL     1      48.016   2.615   4.532  0.00  0.00    +0.000 HD
ATOM     16  H   UNL     1      46.888   3.792   5.112  0.00  0.00    +0.000 HD
ENDBRANCH   4  13
ENDBRANCH   1   8
BRANCH   1  17
ATOM     17  C   UNL     1      45.049   5.012  12.235  0.00  0.00    +0.000 A 
ATOM     18  C   UNL     1      45.536   3.939  12.995  0.00  0.00    +0.000 A 
ATOM     19  C   UNL     1      46.776   4.007  13.632  0.00  0.00    +0.000 A 
ATOM     20  C   UNL     1      47.570   5.146  13.494  0.00  0.00    +0.000 A 
ATOM     21  C   UNL     1      47.135   6.244  12.736  0.00  0.00    +0.000 A 
ATOM     22  C   UNL     1      45.851   6.166  12.162  0.00  0.00    +0.000 A 
BRANCH  21  23
ATOM     23  C   UNL     1      48.023   7.383  12.417  0.00  0.00    +0.000 A 
ATOM     24  C   UNL     1      49.404   7.186  12.232  0.00  0.00    +0.000 A 
ATOM     25  C   UNL     1      50.227   8.224  11.799  0.00  0.00    +0.000 A 
ATOM     26  F   UNL     1      51.531   7.990  11.608  0.00  0.00    +0.000 F 
ATOM     27  C   UNL     1      49.714   9.482  11.531  0.00  0.00    +0.000 A 
ATOM     28  C   UNL     1      48.360   9.695  11.728  0.00  0.00    +0.000 A 
ATOM     29  F   UNL     1      47.838  10.900  11.457  0.00  0.00    +0.000 F 
ATOM     30  C   UNL     1      47.521   8.674  12.176  0.00  0.00    +0.000 A 
ENDBRANCH  21  23
ENDBRANCH   1  17
TORSDOF 4
ENDMDL
MODEL 2
REMARK VINA RESULT:    -9.229      2.720      3.951
REMARK INTER + INTRA:         -12.635
REMARK INTER:                 -12.022
REMARK INTRA:                  -0.613
REMARK UNBOUND:                -1.248
REMARK  Name = 
REMARK  4 active torsions:
REMARK  status: ('A' for Active; 'I' for Inactive)
REMARK    1  A    between atoms: C_2  and  C_4
REMARK    2  A    between atoms: N_8  and  C_9
REMARK    3  A    between atoms: C_9  and  C_10
REMARK    4  A    between atoms: C_14  and  C_15
REMARK                            x       y       z     vdW  Elec       q    Type
REMARK                         _______ _______ _______ _____ _____    ______ ____
ROOT
ATOM      1  C   UNL     1      43.964   4.921  11.511  0.00  0.00    +0.000 C 
ATOM      2  C   UNL     1      42.835   5.013  12.531  0.00  0.00    +0.000 C 
ATOM      3  C   UNL     1      42.886   5.979  11.395  0.00  0.00    +0.000 C 
ENDROOT
BRANCH   1   8
ATOM      4  C   UNL     1      46.440   2.725   7.492  0.00  0.00    +0.000 A 
ATOM      5  C   UNL     1      46.016   4.046   7.628  0.00  0.00    +0.000 A 
ATOM      6  C   UNL     1      45.215   4.400   8.713  0.00  0.00    +0.000 A 
ATOM      7  C   UNL     1      44.852   3.438   9.645  0.00  0.00    +0.000 A 
ATOM      8  N   UNL     1      43.963   3.686  10.699  0.00  0.00    +0.000 N 
ATOM      9  N   UNL     1      45.266   2.157   9.530  0.00  0.00    +0.000 NA
ATOM     10  C   UNL     1      46.046   1.823   8.461  0.00  0.00    +0.000 A 
ATOM     11  H   UNL     1      43.956   2.821  11.240  0.00  0.00    +0.000 HD
BRANCH   4  13
ATOM     12  N   UNL     1      47.234   3.001   5.213  0.00  0.00    +0.000 N 
ATOM     13  C   UNL     1      47.240   2.244   6.350  0.00  0.00    +0.000 C 
ATOM     14  O   UNL     1      47.899   1.215   6.421  0.00  0.00    +0.000 OA
ATOM     15  H   UNL     1      47.844   2.697   4.465  0.00  0.00    +0.000 HD
ATOM     16  H   UNL     1      46.903   3.955   5.189  0.00  0.00    +0.000 HD
ENDBRANCH   4  13
ENDBRANCH   1   8
BRANCH   1  17
ATOM     17  C   UNL     1      45.368   5.346  11.927  0.00  0.00    +0.000 A 
ATOM     18  C   UNL     1      46.085   6.335  11.239  0.00  0.00    +0.000 A 
ATOM     19  C   UNL     1      47.293   6.829  11.732  0.00  0.00    +0.000 A 
ATOM     20  C   UNL     1      47.794   6.361  12.948  0.00  0.00    +0.000 A 
ATOM     21  C   UNL     1      47.111   5.380  13.682  0.00  0.00    +0.000 A 
ATOM     22  C   UNL     1      45.929   4.858  13.122  0.00  0.00    +0.000 A 
BRANCH  21  23
ATOM     23  C   UNL     1      47.514   4.999  15.054  0.00  0.00    +0.000 A 
ATOM     24  C   UNL     1      48.320   5.854  15.828  0.00  0.00    +0.000 A 
ATOM     25  C   UNL     1      48.592   5.571  17.165  0.00  0.00    +0.000 A 
ATOM     26  F   UNL     1      49.341   6.423  17.876  0.00  0.00    +0.000 F 
ATOM     27  C   UNL     1      48.075   4.442  17.778  0.00  0.00    +0.000 A 
ATOM     28  C   UNL     1      47.298   3.580  17.022  0.00  0.00    +0.000 A 
ATOM     29  F   UNL     1      46.772   2.491  17.600  0.00  0.00    +0.000 F 
ATOM     30  C   UNL     1      47.025   3.838  15.678  0.00  0.00    +0.000 A 
ENDBRANCH  21  23
ENDBRANCH   1  17
TORSDOF 4
ENDMDL
MODEL 3
REMARK VINA RESULT:    -7.644      4.167      7.168
REMARK INTER + INTRA:         -10.679
REMARK INTER:                  -9.637
REMARK INTRA:                  -1.042
REMARK UNBOUND:                -1.248
REMARK  Name = 
REMARK  4 active torsions:
REMARK  status: ('A' for Active; 'I' for Inactive)
REMARK    1  A    between atoms: C_2  and  C_4
REMARK    2  A    between atoms: N_8  and  C_9
REMARK    3  A    between atoms: C_9  and  C_10
REMARK    4  A    between atoms: C_14  and  C_15
REMARK                            x       y       z     vdW  Elec       q    Type
REMARK                         _______ _______ _______ _____ _____    ______ ____
ROOT
ATOM      1  C   UNL     1      46.231   5.106  13.333  0.00  0.00    +0.000 C 
ATOM      2  C   UNL     1      46.262   4.197  14.557  0.00  0.00    +0.000 C 
ATOM      3  C   UNL     1      47.390   4.162  13.580  0.00  0.00    +0.000 C 
ENDROOT
BRANCH   1   8
ATOM      4  C   UNL     1      48.393   9.506  11.580  0.00  0.00    +0.000 A 
ATOM      5  C   UNL     1      48.978   8.248  11.708  0.00  0.00    +0.000 A 
ATOM      6  C   UNL     1      48.282   7.230  12.362  0.00  0.00    +0.000 A 
ATOM      7  C   UNL     1      47.016   7.481  12.873  0.00  0.00    +0.000 A 
ATOM      8  N   UNL     1      46.298   6.551  13.636  0.00  0.00    +0.000 N 
ATOM      9  N   UNL     1      46.434   8.694  12.745  0.00  0.00    +0.000 NA
ATOM     10  C   UNL     1      47.128   9.681  12.108  0.00  0.00    +0.000 A 
ATOM     11  H   UNL     1      45.394   6.994  13.798  0.00  0.00    +0.000 HD
BRANCH   4  13
ATOM     12  N   UNL     1      50.415  10.790  11.179  0.00  0.00    +0.000 N 
ATOM     13  C   UNL     1      49.074  10.657  10.958  0.00  0.00    +0.000 C 
ATOM     14  O   UNL     1      48.466  11.455  10.257  0.00  0.00    +0.000 OA
ATOM     15  H   UNL     1      50.881  11.542  10.687  0.00  0.00    +0.000 HD
ATOM     16  H   UNL     1      50.989  10.045  11.547  0.00  0.00    +0.000 HD
ENDBRANCH   4  13
ENDBRANCH   1   8
BRANCH   1  17
ATOM     17  C   UNL     1      45.253   4.789  12.206  0.00  0.00    +0.000 A 
ATOM     18  C   UNL     1      44.006   5.420  12.098  0.00  0.00    +0.000 A 
ATOM     19  C   UNL     1      43.201   5.242  10.972  0.00  0.00    +0.000 A 
ATOM     20  C   UNL     1      43.645   4.449   9.914  0.00  0.00    +0.000 A 
ATOM     21  C   UNL     1      44.890   3.804   9.966  0.00  0.00    +0.000 A 
ATOM     22  C   UNL     1      45.646   3.953  11.144  0.00  0.00    +0.000 A 
BRANCH  21  23
ATOM     23  C   UNL     1      45.470   3.112   8.793  0.00  0.00    +0.000 A 
ATOM     24  C   UNL     1      45.856   3.838   7.652  0.00  0.00    +0.000 A 
ATOM     25  C   UNL     1      46.527   3.219   6.599  0.00  0.00    +0.000 A 
ATOM     26  F   UNL     1      46.902   3.950   5.541  0.00  0.00    +0.000 F 
ATOM     27  C   UNL     1      46.839   1.871   6.641  0.00  0.00    +0.000 A 
ATOM     28  C   UNL     1      46.445   1.140   7.750  0.00  0.00    +0.000 A 
ATOM     29  F   UNL     1      46.753  -0.163   7.821  0.00  0.00    +0.000 F 
ATOM     30  C   UNL     1      45.760   1.737   8.809  0.00  0.00    +0.000 A 
ENDBRANCH  21  23
ENDBRANCH   1  17
TORSDOF 4
ENDMDL
MODEL 4
REMARK VINA RESULT:    -7.455      5.116      8.277
REMARK INTER + INTRA:         -10.446
REMARK INTER:                  -9.358
REMARK INTRA:                  -1.088
REMARK UNBOUND:                -1.248
REMARK  Name = 
REMARK  4 active torsions:
REMARK  status: ('A' for Active; 'I' for Inactive)
REMARK    1  A    between atoms: C_2  and  C_4
REMARK    2  A    between atoms: N_8  and  C_9
REMARK    3  A    between atoms: C_9  and  C_10
REMARK    4  A    between atoms: C_14  and  C_15
REMARK                            x       y       z     vdW  Elec       q    Type
REMARK                         _______ _______ _______ _____ _____    ______ ____
ROOT
ATOM      1  C   UNL     1      49.024   7.946  12.593  0.00  0.00    +0.000 C 
ATOM      2  C   UNL     1      49.952   8.110  11.395  0.00  0.00    +0.000 C 
ATOM      3  C   UNL     1      49.720   9.263  12.315  0.00  0.00    +0.000 C 
ENDROOT
BRANCH   1   8
ATOM      4  C   UNL     1      48.437   6.800  17.638  0.00  0.00    +0.000 A 
ATOM      5  C   UNL     1      48.569   8.056  17.048  0.00  0.00    +0.000 A 
ATOM      6  C   UNL     1      48.890   8.146  15.692  0.00  0.00    +0.000 A 
ATOM      7  C   UNL     1      49.069   6.988  14.949  0.00  0.00    +0.000 A 
ATOM      8  N   UNL     1      49.499   6.990  13.615  0.00  0.00    +0.000 N 
ATOM      9  N   UNL     1      48.933   5.765  15.508  0.00  0.00    +0.000 NA
ATOM     10  C   UNL     1      48.623   5.692  16.835  0.00  0.00    +0.000 A 
ATOM     11  H   UNL     1      49.464   6.011  13.331  0.00  0.00    +0.000 HD
BRANCH   4  13
ATOM     12  N   UNL     1      47.243   5.648  19.412  0.00  0.00    +0.000 N 
ATOM     13  C   UNL     1      48.157   6.605  19.073  0.00  0.00    +0.000 C 
ATOM     14  O   UNL     1      48.732   7.261  19.930  0.00  0.00    +0.000 OA
ATOM     15  H   UNL     1      47.116   5.475  20.402  0.00  0.00    +0.000 HD
ATOM     16  H   UNL     1      46.926   4.937  18.768  0.00  0.00    +0.000 HD
ENDBRANCH   4  13
ENDBRANCH   1   8
BRANCH   1  17
ATOM     17  C   UNL     1      47.521   7.846  12.352  0.00  0.00    +0.000 A 
ATOM     18  C   UNL     1      46.665   8.946  12.498  0.00  0.00    +0.000 A 
ATOM     19  C   UNL     1      45.326   8.878  12.111  0.00  0.00    +0.000 A 
ATOM     20  C   UNL     1      44.824   7.708  11.538  0.00  0.00    +0.000 A 
ATOM     21  C   UNL     1      45.641   6.582  11.359  0.00  0.00    +0.000 A 
ATOM     22  C   UNL     1      46.968   6.666  11.822  0.00  0.00    +0.000 A 
BRANCH  21  23
ATOM     23  C   UNL     1      45.195   5.399  10.591  0.00  0.00    +0.000 A 
ATOM     24  C   UNL     1      45.641   5.189   9.273  0.00  0.00    +0.000 A 
ATOM     25  C   UNL     1      45.338   4.014   8.589  0.00  0.00    +0.000 A 
ATOM     26  F   UNL     1      45.805   3.840   7.346  0.00  0.00    +0.000 F 
ATOM     27  C   UNL     1      44.592   3.010   9.184  0.00  0.00    +0.000 A 
ATOM     28  C   UNL     1      44.128   3.212  10.473  0.00  0.00    +0.000 A 
ATOM     29  F   UNL     1      43.420   2.247  11.076  0.00  0.00    +0.000 F 
ATOM     30  C   UNL     1      44.408   4.388  11.170  0.00  0.00    +0.000 A 
ENDBRANCH  21  23
ENDBRANCH   1  17
TORSDOF 4
ENDMDL
MODEL 5
REMARK VINA RESULT:    -7.052      4.514      7.544
REMARK INTER + INTRA:          -9.949
REMARK INTER:                  -9.808
REMARK INTRA:                  -0.141
REMARK UNBOUND:                -1.248
REMARK  Name = 
REMARK  4 active torsions:
REMARK  status: ('A' for Active; 'I' for Inactive)
REMARK    1  A    between atoms: C_2  and  C_4
REMARK    2  A    between atoms: N_8  and  C_9
REMARK    3  A    between atoms: C_9  and  C_10
REMARK    4  A    between atoms: C_14  and  C_15
REMARK                            x       y       z     vdW  Elec       q    Type
REMARK                         _______ _______ _______ _____ _____    ______ ____
ROOT
ATOM      1  C   UNL     1      48.244   7.773  12.685  0.00  0.00    +0.000 C 
ATOM      2  C   UNL     1      49.441   7.270  11.887  0.00  0.00    +0.000 C 
ATOM      3  C   UNL     1      49.068   8.714  11.830  0.00  0.00    +0.000 C 
ENDROOT
BRANCH   1   8
ATOM      4  C   UNL     1      48.108   4.295  16.556  0.00  0.00    +0.000 A 
ATOM      5  C   UNL     1      47.246   4.408  15.467  0.00  0.00    +0.000 A 
ATOM      6  C   UNL     1      47.347   5.517  14.626  0.00  0.00    +0.000 A 
ATOM      7  C   UNL     1      48.303   6.489  14.880  0.00  0.00    +0.000 A 
ATOM      8  N   UNL     1      48.398   7.683  14.152  0.00  0.00    +0.000 N 
ATOM      9  N   UNL     1      49.152   6.385  15.927  0.00  0.00    +0.000 NA
ATOM     10  C   UNL     1      49.040   5.298  16.744  0.00  0.00    +0.000 A 
ATOM     11  H   UNL     1      49.228   8.146  14.522  0.00  0.00    +0.000 HD
BRANCH   4  13
ATOM     12  N   UNL     1      46.821   2.613  17.744  0.00  0.00    +0.000 N 
ATOM     13  C   UNL     1      48.040   3.191  17.532  0.00  0.00    +0.000 C 
ATOM     14  O   UNL     1      49.038   2.794  18.118  0.00  0.00    +0.000 OA
ATOM     15  H   UNL     1      46.803   1.810  18.362  0.00  0.00    +0.000 HD
ATOM     16  H   UNL     1      46.033   2.745  17.126  0.00  0.00    +0.000 HD
ENDBRANCH   4  13
ENDBRANCH   1   8
BRANCH   1  17
ATOM     17  C   UNL     1      46.840   7.399  12.219  0.00  0.00    +0.000 A 
ATOM     18  C   UNL     1      45.739   8.248  12.404  0.00  0.00    +0.000 A 
ATOM     19  C   UNL     1      44.502   7.966  11.825  0.00  0.00    +0.000 A 
ATOM     20  C   UNL     1      44.351   6.837  11.018  0.00  0.00    +0.000 A 
ATOM     21  C   UNL     1      45.422   5.960  10.792  0.00  0.00    +0.000 A 
ATOM     22  C   UNL     1      46.637   6.241  11.446  0.00  0.00    +0.000 A 
BRANCH  21  23
ATOM     23  C   UNL     1      45.348   4.864   9.801  0.00  0.00    +0.000 A 
ATOM     24  C   UNL     1      46.021   4.965   8.569  0.00  0.00    +0.000 A 
ATOM     25  C   UNL     1      46.071   3.888   7.687  0.00  0.00    +0.000 A 
ATOM     26  F   UNL     1      46.744   4.015   6.536  0.00  0.00    +0.000 F 
ATOM     27  C   UNL     1      45.466   2.681   7.993  0.00  0.00    +0.000 A 
ATOM     28  C   UNL     1      44.783   2.574   9.193  0.00  0.00    +0.000 A 
ATOM     29  F   UNL     1      44.205   1.410   9.519  0.00  0.00    +0.000 F 
ATOM     30  C   UNL     1      44.707   3.645  10.084  0.00  0.00    +0.000 A 
ENDBRANCH  21  23
ENDBRANCH   1  17
TORSDOF 4
ENDMDL
MODEL 6
REMARK VINA RESULT:    -6.848      4.450      6.920
REMARK INTER + INTRA:          -9.697
REMARK INTER:                  -8.547
REMARK INTRA:                  -1.150
REMARK UNBOUND:                -1.248
REMARK  Name = 
REMARK  4 active torsions:
REMARK  status: ('A' for Active; 'I' for Inactive)
REMARK    1  A    between atoms: C_2  and  C_4
REMARK    2  A    between atoms: N_8  and  C_9
REMARK    3  A    between atoms: C_9  and  C_10
REMARK    4  A    between atoms: C_14  and  C_15
REMARK                            x       y       z     vdW  Elec       q    Type
REMARK                         _______ _______ _______ _____ _____    ______ ____
ROOT
ATOM      1  C   UNL     1      48.939   8.321  12.692  0.00  0.00    +0.000 C 
ATOM      2  C   UNL     1      49.823   9.353  12.001  0.00  0.00    +0.000 C 
ATOM      3  C   UNL     1      50.201   7.909  11.961  0.00  0.00    +0.000 C 
ENDROOT
BRANCH   1   8
ATOM      4  C   UNL     1      44.798   5.169  12.833  0.00  0.00    +0.000 A 
ATOM      5  C   UNL     1      46.146   4.821  12.788  0.00  0.00    +0.000 A 
ATOM      6  C   UNL     1      47.104   5.814  12.581  0.00  0.00    +0.000 A 
ATOM      7  C   UNL     1      46.705   7.134  12.426  0.00  0.00    +0.000 A 
ATOM      8  N   UNL     1      47.591   8.172  12.106  0.00  0.00    +0.000 N 
ATOM      9  N   UNL     1      45.401   7.485  12.479  0.00  0.00    +0.000 NA
ATOM     10  C   UNL     1      44.475   6.503  12.678  0.00  0.00    +0.000 A 
ATOM     11  H   UNL     1      47.019   9.016  12.134  0.00  0.00    +0.000 HD
BRANCH   4  13
ATOM     12  N   UNL     1      44.006   2.875  12.731  0.00  0.00    +0.000 N 
ATOM     13  C   UNL     1      43.711   4.184  12.990  0.00  0.00    +0.000 C 
ATOM     14  O   UNL     1      42.592   4.520  13.354  0.00  0.00    +0.000 OA
ATOM     15  H   UNL     1      43.271   2.202  12.912  0.00  0.00    +0.000 HD
ATOM     16  H   UNL     1      44.952   2.527  12.658  0.00  0.00    +0.000 HD
ENDBRANCH   4  13
ENDBRANCH   1   8
BRANCH   1  17
ATOM     17  C   UNL     1      48.924   8.269  14.216  0.00  0.00    +0.000 A 
ATOM     18  C   UNL     1      48.436   9.327  14.997  0.00  0.00    +0.000 A 
ATOM     19  C   UNL     1      48.274   9.194  16.376  0.00  0.00    +0.000 A 
ATOM     20  C   UNL     1      48.570   7.981  17.000  0.00  0.00    +0.000 A 
ATOM     21  C   UNL     1      49.051   6.888  16.264  0.00  0.00    +0.000 A 
ATOM     22  C   UNL     1      49.264   7.079  14.886  0.00  0.00    +0.000 A 
BRANCH  21  23
ATOM     23  C   UNL     1      49.196   5.540  16.859  0.00  0.00    +0.000 A 
ATOM     24  C   UNL     1      48.088   4.680  16.965  0.00  0.00    +0.000 A 
ATOM     25  C   UNL     1      48.238   3.364  17.396  0.00  0.00    +0.000 A 
ATOM     26  F   UNL     1      47.163   2.567  17.458  0.00  0.00    +0.000 F 
ATOM     27  C   UNL     1      49.482   2.856  17.730  0.00  0.00    +0.000 A 
ATOM     28  C   UNL     1      50.579   3.698  17.650  0.00  0.00    +0.000 A 
ATOM     29  F   UNL     1      51.796   3.223  17.950  0.00  0.00    +0.000 F 
ATOM     30  C   UNL     1      50.449   5.024  17.235  0.00  0.00    +0.000 A 
ENDBRANCH  21  23
ENDBRANCH   1  17
TORSDOF 4
ENDMDL
MODEL 7
REMARK VINA RESULT:    -6.798      4.092      6.155
REMARK INTER + INTRA:          -9.635
REMARK INTER:                  -9.094
REMARK INTRA:                  -0.542
REMARK UNBOUND:                -1.248
REMARK  Name = 
REMARK  4 active torsions:
REMARK  status: ('A' for Active; 'I' for Inactive)
REMARK    1  A    between atoms: C_2  and  C_4
REMARK    2  A    between atoms: N_8  and  C_9
REMARK    3  A    between atoms: C_9  and  C_10
REMARK    4  A    between atoms: C_14  and  C_15
REMARK                            x       y       z     vdW  Elec       q    Type
REMARK                         _______ _______ _______ _____ _____    ______ ____
ROOT
ATOM      1  C   UNL     1      47.324   8.592  13.163  0.00  0.00    +0.000 C 
ATOM      2  C   UNL     1      47.454   9.923  12.433  0.00  0.00    +0.000 C 
ATOM      3  C   UNL     1      48.145   8.714  11.896  0.00  0.00    +0.000 C 
ENDROOT
BRANCH   1   8
ATOM      4  C   UNL     1      44.650   4.428  11.544  0.00  0.00    +0.000 A 
ATOM      5  C   UNL     1      45.615   5.157  10.852  0.00  0.00    +0.000 A 
ATOM      6  C   UNL     1      46.095   6.349  11.396  0.00  0.00    +0.000 A 
ATOM      7  C   UNL     1      45.611   6.792  12.618  0.00  0.00    +0.000 A 
ATOM      8  N   UNL     1      45.958   8.028  13.180  0.00  0.00    +0.000 N 
ATOM      9  N   UNL     1      44.683   6.087  13.304  0.00  0.00    +0.000 NA
ATOM     10  C   UNL     1      44.219   4.926  12.758  0.00  0.00    +0.000 A 
ATOM     11  H   UNL     1      45.507   8.031  14.095  0.00  0.00    +0.000 HD
BRANCH   4  13
ATOM     12  N   UNL     1      44.736   2.499  10.071  0.00  0.00    +0.000 N 
ATOM     13  C   UNL     1      44.042   3.189  11.023  0.00  0.00    +0.000 C 
ATOM     14  O   UNL     1      42.965   2.783  11.439  0.00  0.00    +0.000 OA
ATOM     15  H   UNL     1      44.341   1.614   9.776  0.00  0.00    +0.000 HD
ATOM     16  H   UNL     1      45.713   2.664   9.872  0.00  0.00    +0.000 HD
ENDBRANCH   4  13
ENDBRANCH   1   8
BRANCH   1  17
ATOM     17  C   UNL     1      48.049   8.407  14.492  0.00  0.00    +0.000 A 
ATOM     18  C   UNL     1      48.218   9.459  15.405  0.00  0.00    +0.000 A 
ATOM     19  C   UNL     1      48.732   9.233  16.682  0.00  0.00    +0.000 A 
ATOM     20  C   UNL     1      49.059   7.937  17.084  0.00  0.00    +0.000 A 
ATOM     21  C   UNL     1      48.900   6.848  16.213  0.00  0.00    +0.000 A 
ATOM     22  C   UNL     1      48.441   7.123  14.911  0.00  0.00    +0.000 A 
BRANCH  21  23
ATOM     23  C   UNL     1      49.060   5.448  16.666  0.00  0.00    +0.000 A 
ATOM     24  C   UNL     1      50.299   4.987  17.147  0.00  0.00    +0.000 A 
ATOM     25  C   UNL     1      50.426   3.715  17.702  0.00  0.00    +0.000 A 
ATOM     26  F   UNL     1      51.616   3.323  18.174  0.00  0.00    +0.000 F 
ATOM     27  C   UNL     1      49.339   2.864  17.801  0.00  0.00    +0.000 A 
ATOM     28  C   UNL     1      48.118   3.297  17.312  0.00  0.00    +0.000 A 
ATOM     29  F   UNL     1      47.047   2.497  17.415  0.00  0.00    +0.000 F 
ATOM     30  C   UNL     1      47.971   4.561  16.740  0.00  0.00    +0.000 A 
ENDBRANCH  21  23
ENDBRANCH   1  17
TORSDOF 4
ENDMDL
MODEL 8
REMARK VINA RESULT:    -6.692      1.484      2.594
REMARK INTER + INTRA:          -9.505
REMARK INTER:                  -9.460
REMARK INTRA:                  -0.045
REMARK UNBOUND:                -1.248
REMARK  Name = 
REMARK  4 active torsions:
REMARK  status: ('A' for Active; 'I' for Inactive)
REMARK    1  A    between atoms: C_2  and  C_4
REMARK    2  A    between atoms: N_8  and  C_9
REMARK    3  A    between atoms: C_9  and  C_10
REMARK    4  A    between atoms: C_14  and  C_15
REMARK                            x       y       z     vdW  Elec       q    Type
REMARK                         _______ _______ _______ _____ _____    ______ ____
ROOT
ATOM      1  C   UNL     1      44.062   4.035  11.800  0.00  0.00    +0.000 C 
ATOM      2  C   UNL     1      44.871   3.344  12.892  0.00  0.00    +0.000 C 
ATOM      3  C   UNL     1      43.424   3.638  13.116  0.00  0.00    +0.000 C 
ENDROOT
BRANCH   1   8
ATOM      4  C   UNL     1      46.504   2.980   7.324  0.00  0.00    +0.000 A 
ATOM      5  C   UNL     1      46.367   4.211   7.964  0.00  0.00    +0.000 A 
ATOM      6  C   UNL     1      45.526   4.317   9.073  0.00  0.00    +0.000 A 
ATOM      7  C   UNL     1      44.841   3.200   9.527  0.00  0.00    +0.000 A 
ATOM      8  N   UNL     1      43.897   3.246  10.561  0.00  0.00    +0.000 N 
ATOM      9  N   UNL     1      44.974   1.999   8.922  0.00  0.00    +0.000 NA
ATOM     10  C   UNL     1      45.796   1.910   7.836  0.00  0.00    +0.000 A 
ATOM     11  H   UNL     1      43.629   2.273  10.709  0.00  0.00    +0.000 HD
BRANCH   4  13
ATOM     12  N   UNL     1      48.642   2.477   6.288  0.00  0.00    +0.000 N 
ATOM     13  C   UNL     1      47.322   2.783   6.113  0.00  0.00    +0.000 C 
ATOM     14  O   UNL     1      46.836   2.872   4.993  0.00  0.00    +0.000 OA
ATOM     15  H   UNL     1      49.173   2.273   5.450  0.00  0.00    +0.000 HD
ATOM     16  H   UNL     1      49.023   2.168   7.170  0.00  0.00    +0.000 HD
ENDBRANCH   4  13
ENDBRANCH   1   8
BRANCH   1  17
ATOM     17  C   UNL     1      44.314   5.514  11.523  0.00  0.00    +0.000 A 
ATOM     18  C   UNL     1      43.286   6.390  11.147  0.00  0.00    +0.000 A 
ATOM     19  C   UNL     1      43.502   7.765  11.063  0.00  0.00    +0.000 A 
ATOM     20  C   UNL     1      44.752   8.296  11.385  0.00  0.00    +0.000 A 
ATOM     21  C   UNL     1      45.812   7.465  11.777  0.00  0.00    +0.000 A 
ATOM     22  C   UNL     1      45.575   6.077  11.788  0.00  0.00    +0.000 A 
BRANCH  21  23
ATOM     23  C   UNL     1      47.085   8.006  12.302  0.00  0.00    +0.000 A 
ATOM     24  C   UNL     1      47.121   8.694  13.529  0.00  0.00    +0.000 A 
ATOM     25  C   UNL     1      48.330   9.087  14.098  0.00  0.00    +0.000 A 
ATOM     26  F   UNL     1      48.324   9.716  15.281  0.00  0.00    +0.000 F 
ATOM     27  C   UNL     1      49.537   8.812  13.479  0.00  0.00    +0.000 A 
ATOM     28  C   UNL     1      49.516   8.154  12.260  0.00  0.00    +0.000 A 
ATOM     29  F   UNL     1      50.673   7.860  11.652  0.00  0.00    +0.000 F 
ATOM     30  C   UNL     1      48.315   7.764  11.666  0.00  0.00    +0.000 A 
ENDBRANCH  21  23
ENDBRANCH   1  17
TORSDOF 4
ENDMDL
MODEL 9
REMARK VINA RESULT:    -6.485      4.598      7.335
REMARK INTER + INTRA:          -9.250
REMARK INTER:                  -8.183
REMARK INTRA:                  -1.067
REMARK UNBOUND:                -1.248
REMARK  Name = 
REMARK  4 active torsions:
REMARK  status: ('A' for Active; 'I' for Inactive)
REMARK    1  A    between atoms: C_2  and  C_4
REMARK    2  A    between atoms: N_8  and  C_9
REMARK    3  A    between atoms: C_9  and  C_10
REMARK    4  A    between atoms: C_14  and  C_15
REMARK                            x       y       z     vdW  Elec       q    Type
REMARK                         _______ _______ _______ _____ _____    ______ ____
ROOT
ATOM      1  C   UNL     1      45.424   8.286  11.853  0.00  0.00    +0.000 C 
ATOM      2  C   UNL     1      44.571   9.248  11.035  0.00  0.00    +0.000 C 
ATOM      3  C   UNL     1      44.519   9.297  12.526  0.00  0.00    +0.000 C 
ENDROOT
BRANCH   1   8
ATOM      4  C   UNL     1      49.836   7.869  14.586  0.00  0.00    +0.000 A 
ATOM      5  C   UNL     1      48.611   8.389  14.999  0.00  0.00    +0.000 A 
ATOM      6  C   UNL     1      47.593   8.571  14.063  0.00  0.00    +0.000 A 
ATOM      7  C   UNL     1      47.810   8.231  12.735  0.00  0.00    +0.000 A 
ATOM      8  N   UNL     1      46.883   8.484  11.715  0.00  0.00    +0.000 N 
ATOM      9  N   UNL     1      48.990   7.716  12.325  0.00  0.00    +0.000 NA
ATOM     10  C   UNL     1      49.979   7.547  13.251  0.00  0.00    +0.000 A 
ATOM     11  H   UNL     1      47.293   8.061  10.883  0.00  0.00    +0.000 HD
BRANCH   4  13
ATOM     12  N   UNL     1      52.197   7.407  14.922  0.00  0.00    +0.000 N 
ATOM     13  C   UNL     1      50.989   7.695  15.491  0.00  0.00    +0.000 C 
ATOM     14  O   UNL     1      50.874   7.819  16.702  0.00  0.00    +0.000 OA
ATOM     15  H   UNL     1      52.992   7.362  15.549  0.00  0.00    +0.000 HD
ATOM     16  H   UNL     1      52.384   7.525  13.936  0.00  0.00    +0.000 HD
ENDBRANCH   4  13
ENDBRANCH   1   8
BRANCH   1  17
ATOM     17  C   UNL     1      45.036   6.811  11.896  0.00  0.00    +0.000 A 
ATOM     18  C   UNL     1      44.105   6.309  12.815  0.00  0.00    +0.000 A 
ATOM     19  C   UNL     1      43.638   4.997  12.729  0.00  0.00    +0.000 A 
ATOM     20  C   UNL     1      44.074   4.167  11.695  0.00  0.00    +0.000 A 
ATOM     21  C   UNL     1      44.998   4.623  10.742  0.00  0.00    +0.000 A 
ATOM     22  C   UNL     1      45.496   5.931  10.899  0.00  0.00    +0.000 A 
BRANCH  21  23
ATOM     23  C   UNL     1      45.337   3.838   9.535  0.00  0.00    +0.000 A 
ATOM     24  C   UNL     1      45.867   4.469   8.394  0.00  0.00    +0.000 A 
ATOM     25  C   UNL     1      46.316   3.727   7.305  0.00  0.00    +0.000 A 
ATOM     26  F   UNL     1      46.839   4.363   6.249  0.00  0.00    +0.000 F 
ATOM     27  C   UNL     1      46.261   2.343   7.308  0.00  0.00    +0.000 A 
ATOM     28  C   UNL     1      45.722   1.709   8.416  0.00  0.00    +0.000 A 
ATOM     29  F   UNL     1      45.676   0.371   8.449  0.00  0.00    +0.000 F 
ATOM     30  C   UNL     1      45.253   2.435   9.511  0.00  0.00    +0.000 A 
ENDBRANCH  21  23
ENDBRANCH   1  17
TORSDOF 4
ENDMDL
