MODEL 1
REMARK VINA RESULT:    -7.925      0.000      0.000
REMARK INTER + INTRA:         -12.406
REMARK INTER:                 -11.399
REMARK INTRA:                  -1.007
REMARK UNBOUND:                -1.007
REMARK  Name = 
REMARK  8 active torsions:
REMARK  status: ('A' for Active; 'I' for Inactive)
REMARK    1  A    between atoms: N_1  and  C_2
REMARK    2  A    between atoms: C_2  and  C_3
REMARK    3  A    between atoms: C_3  and  N_4
REMARK    4  A    between atoms: C_3  and  C_17
REMARK    5  A    between atoms: C_5  and  C_7
REMARK    6  A    between atoms: C_20  and  C_21
REMARK    7  A    between atoms: C_21  and  N_22
REMARK    8  A    between atoms: C_23  and  C_25
REMARK                            x       y       z     vdW  Elec       q    Type
REMARK                         _______ _______ _______ _____ _____    ______ ____
ROOT
ATOM      1  C   UNL     1      47.895   7.321  13.902  0.00  0.00    +0.000 C 
ENDROOT
BRANCH   1   2
ATOM      2  C   UNL     1      46.888   6.606  12.992  0.00  0.00    +0.000 A 
ATOM      3  C   UNL     1      46.645   5.235  13.142  0.00  0.00    +0.000 A 
ATOM      4  C   UNL     1      45.716   4.575  12.324  0.00  0.00    +0.000 A 
ATOM      5  C   UNL     1      45.005   5.269  11.335  0.00  0.00    +0.000 A 
ATOM      6  C   UNL     1      45.223   6.644  11.202  0.00  0.00    +0.000 A 
ATOM      7  C   UNL     1      46.157   7.300  12.011  0.00  0.00    +0.000 A 
BRANCH   5   8
ATOM      8  C   UNL     1      44.040   4.552  10.424  0.00  0.00    +0.000 C 
BRANCH   8   9
ATOM      9  N   UNL     1      44.680   3.544   9.613  0.00  0.00    +0.000 N 
ATOM     10  C   UNL     1      45.509   3.910   8.576  0.00  0.00    +0.000 C 
ATOM     11  O   UNL     1      45.718   5.085   8.286  0.00  0.00    +0.000 OA
ATOM     12  H   UNL     1      44.609   2.577   9.883  0.00  0.00    +0.000 HD
BRANCH  10  13
ATOM     13  C   UNL     1      46.121   2.820   7.841  0.00  0.00    +0.000 A 
ATOM     14  C   UNL     1      46.773   2.764   6.618  0.00  0.00    +0.000 A 
ATOM     15  C   UNL     1      47.197   1.429   6.401  0.00  0.00    +0.000 A 
ATOM     16  C   UNL     1      46.795   0.691   7.490  0.00  0.00    +0.000 A 
ATOM     17  N   UNL     1      46.143   1.535   8.349  0.00  0.00    +0.000 N 
ATOM     18  H   UNL     1      45.734   1.277   9.240  0.00  0.00    +0.000 HD
ENDBRANCH  10  13
ENDBRANCH   8   9
ENDBRANCH   5   8
ENDBRANCH   1   2
BRANCH   1  19
ATOM     19  N   UNL     1      47.932   6.619  15.178  0.00  0.00    +0.000 N 
ATOM     20  C   UNL     1      49.066   6.372  15.905  0.00  0.00    +0.000 C 
ATOM     21  O   UNL     1      50.193   6.620  15.492  0.00  0.00    +0.000 OA
ATOM     22  H   UNL     1      47.033   6.469  15.614  0.00  0.00    +0.000 HD
BRANCH  20  23
ATOM     23  C   UNL     1      48.842   5.739  17.214  0.00  0.00    +0.000 A 
ATOM     24  C   UNL     1      49.021   4.373  17.376  0.00  0.00    +0.000 A 
ATOM     25  S   UNL     1      48.627   3.816  18.942  0.00  0.00    +0.000 S 
ATOM     26  C   UNL     1      48.246   5.390  19.468  0.00  0.00    +0.000 A 
ATOM     27  N   UNL     1      47.811   5.624  20.736  0.00  0.00    +0.000 NA
ATOM     28  C   UNL     1      47.580   6.866  21.002  0.00  0.00    +0.000 A 
ATOM     29  N   UNL     1      47.761   7.899  20.121  0.00  0.00    +0.000 N 
ATOM     30  C   UNL     1      48.213   7.711  18.841  0.00  0.00    +0.000 A 
ATOM     31  O   UNL     1      48.385   8.663  18.088  0.00  0.00    +0.000 OA
ATOM     32  C   UNL     1      48.441   6.328  18.473  0.00  0.00    +0.000 A 
ATOM     33  H   UNL     1      47.577   8.854  20.392  0.00  0.00    +0.000 HD
ENDBRANCH  20  23
ENDBRANCH   1  19
BRANCH   1  34
ATOM     34  C   UNL     1      47.569   8.837  14.077  0.00  0.00    +0.000 C 
BRANCH  34  35
ATOM     35  N   UNL     1      47.469   9.274  15.476  0.00  0.00    +0.000 NA
ATOM     36  H   UNL     1      48.406   9.455  15.834  0.00  0.00    +0.000 HD
ATOM     37  H   UNL     1      47.085   8.516  16.042  0.00  0.00    +0.000 HD
ENDBRANCH  34  35
ENDBRANCH   1  34
TORSDOF 8
ENDMDL
MODEL 2
REMARK VINA RESULT:    -7.600      2.708      4.472
REMARK INTER + INTRA:         -11.939
REMARK INTER:                 -10.764
REMARK INTRA:                  -1.176
REMARK UNBOUND:                -1.007
REMARK  Name = 
REMARK  8 active torsions:
REMARK  status: ('A' for Active; 'I' for Inactive)
REMARK    1  A    between atoms: N_1  and  C_2
REMARK    2  A    between atoms: C_2  and  C_3
REMARK    3  A    between atoms: C_3  and  N_4
REMARK    4  A    between atoms: C_3  and  C_17
REMARK    5  A    between atoms: C_5  and  C_7
REMARK    6  A    between atoms: C_20  and  C_21
REMARK    7  A    between atoms: C_21  and  N_22
REMARK    8  A    between atoms: C_23  and  C_25
REMARK                            x       y       z     vdW  Elec       q    Type
REMARK                         _______ _______ _______ _____ _____    ______ ____
ROOT
ATOM      1  C   UNL     1      47.060   5.140  15.016  0.00  0.00    +0.000 C 
ENDROOT
BRANCH   1   2
ATOM      2  C   UNL     1      46.219   4.923  13.751  0.00  0.00    +0.000 A 
ATOM      3  C   UNL     1      46.061   3.638  13.215  0.00  0.00    +0.000 A 
ATOM      4  C   UNL     1      45.283   3.428  12.067  0.00  0.00    +0.000 A 
ATOM      5  C   UNL     1      44.640   4.495  11.425  0.00  0.00    +0.000 A 
ATOM      6  C   UNL     1      44.770   5.775  11.975  0.00  0.00    +0.000 A 
ATOM      7  C   UNL     1      45.556   5.986  13.114  0.00  0.00    +0.000 A 
BRANCH   5   8
ATOM      8  C   UNL     1      43.841   4.278  10.165  0.00  0.00    +0.000 C 
BRANCH   8   9
ATOM      9  N   UNL     1      44.549   3.490   9.183  0.00  0.00    +0.000 N 
ATOM     10  C   UNL     1      45.571   4.049   8.450  0.00  0.00    +0.000 C 
ATOM     11  O   UNL     1      45.905   5.224   8.578  0.00  0.00    +0.000 OA
ATOM     12  H   UNL     1      44.367   2.502   9.122  0.00  0.00    +0.000 HD
BRANCH  10  13
ATOM     13  C   UNL     1      46.232   3.165   7.510  0.00  0.00    +0.000 A 
ATOM     14  C   UNL     1      46.658   3.337   6.201  0.00  0.00    +0.000 A 
ATOM     15  C   UNL     1      47.271   2.134   5.771  0.00  0.00    +0.000 A 
ATOM     16  C   UNL     1      47.207   1.246   6.819  0.00  0.00    +0.000 A 
ATOM     17  N   UNL     1      46.574   1.872   7.859  0.00  0.00    +0.000 N 
ATOM     18  H   UNL     1      46.381   1.467   8.768  0.00  0.00    +0.000 HD
ENDBRANCH  10  13
ENDBRANCH   8   9
ENDBRANCH   5   8
ENDBRANCH   1   2
BRANCH   1  19
ATOM     19  N   UNL     1      48.242   5.907  14.647  0.00  0.00    +0.000 N 
ATOM     20  C   UNL     1      48.887   6.796  15.466  0.00  0.00    +0.000 C 
ATOM     21  O   UNL     1      48.459   7.123  16.568  0.00  0.00    +0.000 OA
ATOM     22  H   UNL     1      48.695   5.618  13.792  0.00  0.00    +0.000 HD
BRANCH  20  23
ATOM     23  C   UNL     1      50.121   7.373  14.912  0.00  0.00    +0.000 A 
ATOM     24  C   UNL     1      51.315   7.289  15.613  0.00  0.00    +0.000 A 
ATOM     25  S   UNL     1      52.612   8.095  14.848  0.00  0.00    +0.000 S 
ATOM     26  C   UNL     1      51.631   8.546  13.532  0.00  0.00    +0.000 A 
ATOM     27  N   UNL     1      52.126   9.288  12.504  0.00  0.00    +0.000 NA
ATOM     28  C   UNL     1      51.274   9.538  11.566  0.00  0.00    +0.000 A 
ATOM     29  N   UNL     1      49.977   9.100  11.552  0.00  0.00    +0.000 N 
ATOM     30  C   UNL     1      49.441   8.336  12.558  0.00  0.00    +0.000 A 
ATOM     31  O   UNL     1      48.282   7.943  12.500  0.00  0.00    +0.000 OA
ATOM     32  C   UNL     1      50.341   8.068  13.662  0.00  0.00    +0.000 A 
ATOM     33  H   UNL     1      49.361   9.316  10.782  0.00  0.00    +0.000 HD
ENDBRANCH  20  23
ENDBRANCH   1  19
BRANCH   1  34
ATOM     34  C   UNL     1      47.430   3.799  15.723  0.00  0.00    +0.000 C 
BRANCH  34  35
ATOM     35  N   UNL     1      46.715   3.567  16.986  0.00  0.00    +0.000 NA
ATOM     36  H   UNL     1      47.396   3.393  17.723  0.00  0.00    +0.000 HD
ATOM     37  H   UNL     1      46.152   2.719  16.906  0.00  0.00    +0.000 HD
ENDBRANCH  34  35
ENDBRANCH   1  34
TORSDOF 8
ENDMDL
MODEL 3
REMARK VINA RESULT:    -7.398      1.391      2.112
REMARK INTER + INTRA:         -11.648
REMARK INTER:                 -10.638
REMARK INTRA:                  -1.010
REMARK UNBOUND:                -1.007
REMARK  Name = 
REMARK  8 active torsions:
REMARK  status: ('A' for Active; 'I' for Inactive)
REMARK    1  A    between atoms: N_1  and  C_2
REMARK    2  A    between atoms: C_2  and  C_3
REMARK    3  A    between atoms: C_3  and  N_4
REMARK    4  A    between atoms: C_3  and  C_17
REMARK    5  A    between atoms: C_5  and  C_7
REMARK    6  A    between atoms: C_20  and  C_21
REMARK    7  A    between atoms: C_21  and  N_22
REMARK    8  A    between atoms: C_23  and  C_25
REMARK                            x       y       z     vdW  Elec       q    Type
REMARK                         _______ _______ _______ _____ _____    ______ ____
ROOT
ATOM      1  C   UNL     1      47.912   7.927  13.695  0.00  0.00    +0.000 C 
ENDROOT
BRANCH   1   2
ATOM      2  C   UNL     1      47.015   6.887  13.011  0.00  0.00    +0.000 A 
ATOM      3  C   UNL     1      46.443   7.154  11.760  0.00  0.00    +0.000 A 
ATOM      4  C   UNL     1      45.633   6.205  11.122  0.00  0.00    +0.000 A 
ATOM      5  C   UNL     1      45.373   4.961  11.715  0.00  0.00    +0.000 A 
ATOM      6  C   UNL     1      45.966   4.679  12.950  0.00  0.00    +0.000 A 
ATOM      7  C   UNL     1      46.766   5.631  13.592  0.00  0.00    +0.000 A 
BRANCH   5   8
ATOM      8  C   UNL     1      44.465   3.957  11.051  0.00  0.00    +0.000 C 
BRANCH   8   9
ATOM      9  N   UNL     1      45.168   3.078  10.149  0.00  0.00    +0.000 N 
ATOM     10  C   UNL     1      45.277   3.395   8.814  0.00  0.00    +0.000 C 
ATOM     11  O   UNL     1      44.771   4.407   8.335  0.00  0.00    +0.000 OA
ATOM     12  H   UNL     1      45.676   2.293  10.523  0.00  0.00    +0.000 HD
BRANCH  10  13
ATOM     13  C   UNL     1      46.026   2.456   8.000  0.00  0.00    +0.000 A 
ATOM     14  C   UNL     1      46.831   2.619   6.882  0.00  0.00    +0.000 A 
ATOM     15  C   UNL     1      47.337   1.349   6.510  0.00  0.00    +0.000 A 
ATOM     16  C   UNL     1      46.832   0.431   7.400  0.00  0.00    +0.000 A 
ATOM     17  N   UNL     1      46.039   1.105   8.290  0.00  0.00    +0.000 N 
ATOM     18  H   UNL     1      45.530   0.693   9.064  0.00  0.00    +0.000 HD
ENDBRANCH  10  13
ENDBRANCH   8   9
ENDBRANCH   5   8
ENDBRANCH   1   2
BRANCH   1  19
ATOM     19  N   UNL     1      47.959   7.620  15.118  0.00  0.00    +0.000 N 
ATOM     20  C   UNL     1      49.060   7.147  15.782  0.00  0.00    +0.000 C 
ATOM     21  O   UNL     1      50.096   6.823  15.213  0.00  0.00    +0.000 OA
ATOM     22  H   UNL     1      47.171   7.949  15.656  0.00  0.00    +0.000 HD
BRANCH  20  23
ATOM     23  C   UNL     1      48.899   7.011  17.238  0.00  0.00    +0.000 A 
ATOM     24  C   UNL     1      48.812   8.136  18.045  0.00  0.00    +0.000 A 
ATOM     25  S   UNL     1      48.719   7.772  19.711  0.00  0.00    +0.000 S 
ATOM     26  C   UNL     1      48.749   6.098  19.406  0.00  0.00    +0.000 A 
ATOM     27  N   UNL     1      48.716   5.194  20.423  0.00  0.00    +0.000 NA
ATOM     28  C   UNL     1      48.724   3.960  20.043  0.00  0.00    +0.000 A 
ATOM     29  N   UNL     1      48.744   3.545  18.738  0.00  0.00    +0.000 N 
ATOM     30  C   UNL     1      48.760   4.420  17.682  0.00  0.00    +0.000 A 
ATOM     31  O   UNL     1      48.754   4.012  16.527  0.00  0.00    +0.000 OA
ATOM     32  C   UNL     1      48.803   5.821  18.054  0.00  0.00    +0.000 A 
ATOM     33  H   UNL     1      48.734   2.563  18.502  0.00  0.00    +0.000 HD
ENDBRANCH  20  23
ENDBRANCH   1  19
BRANCH   1  34
ATOM     34  C   UNL     1      47.440   9.390  13.427  0.00  0.00    +0.000 C 
BRANCH  34  35
ATOM     35  N   UNL     1      48.271  10.418  14.067  0.00  0.00    +0.000 NA
ATOM     36  H   UNL     1      49.001   9.961  14.611  0.00  0.00    +0.000 HD
ATOM     37  H   UNL     1      47.704  10.948  14.730  0.00  0.00    +0.000 HD
ENDBRANCH  34  35
ENDBRANCH   1  34
TORSDOF 8
ENDMDL
MODEL 4
REMARK VINA RESULT:    -7.214      3.857      8.650
REMARK INTER + INTRA:         -11.384
REMARK INTER:                 -10.266
REMARK INTRA:                  -1.118
REMARK UNBOUND:                -1.007
REMARK  Name = 
REMARK  8 active torsions:
REMARK  status: ('A' for Active; 'I' for Inactive)
REMARK    1  A    between atoms: N_1  and  C_2
REMARK    2  A    between atoms: C_2  and  C_3
REMARK    3  A    between atoms: C_3  and  N_4
REMARK    4  A    between atoms: C_3  and  C_17
REMARK    5  A    between atoms: C_5  and  C_7
REMARK    6  A    between atoms: C_20  and  C_21
REMARK    7  A    between atoms: C_21  and  N_22
REMARK    8  A    between atoms: C_23  and  C_25
REMARK                            x       y       z     vdW  Elec       q    Type
REMARK                         _______ _______ _______ _____ _____    ______ ____
ROOT
ATOM      1  C   UNL     1      47.860   7.090  13.701  0.00  0.00    +0.000 C 
ENDROOT
BRANCH   1   2
ATOM      2  C   UNL     1      48.244   6.279  14.946  0.00  0.00    +0.000 A 
ATOM      3  C   UNL     1      47.530   5.123  15.289  0.00  0.00    +0.000 A 
ATOM      4  C   UNL     1      47.882   4.369  16.417  0.00  0.00    +0.000 A 
ATOM      5  C   UNL     1      48.958   4.747  17.232  0.00  0.00    +0.000 A 
ATOM      6  C   UNL     1      49.692   5.884  16.876  0.00  0.00    +0.000 A 
ATOM      7  C   UNL     1      49.334   6.643  15.756  0.00  0.00    +0.000 A 
BRANCH   5   8
ATOM      8  C   UNL     1      49.309   3.962  18.471  0.00  0.00    +0.000 C 
BRANCH   8   9
ATOM      9  N   UNL     1      50.615   3.352  18.395  0.00  0.00    +0.000 N 
ATOM     10  C   UNL     1      50.818   2.243  17.606  0.00  0.00    +0.000 C 
ATOM     11  O   UNL     1      49.912   1.719  16.962  0.00  0.00    +0.000 OA
ATOM     12  H   UNL     1      51.398   3.811  18.831  0.00  0.00    +0.000 HD
BRANCH  10  13
ATOM     13  C   UNL     1      52.172   1.724  17.581  0.00  0.00    +0.000 A 
ATOM     14  C   UNL     1      53.376   2.223  18.057  0.00  0.00    +0.000 A 
ATOM     15  C   UNL     1      54.392   1.274  17.779  0.00  0.00    +0.000 A 
ATOM     16  C   UNL     1      53.795   0.215  17.135  0.00  0.00    +0.000 A 
ATOM     17  N   UNL     1      52.461   0.497  17.015  0.00  0.00    +0.000 N 
ATOM     18  H   UNL     1      51.765  -0.099  16.582  0.00  0.00    +0.000 HD
ENDBRANCH  10  13
ENDBRANCH   8   9
ENDBRANCH   5   8
ENDBRANCH   1   2
BRANCH   1  19
ATOM     19  N   UNL     1      47.142   6.208  12.790  0.00  0.00    +0.000 N 
ATOM     20  C   UNL     1      46.195   6.616  11.889  0.00  0.00    +0.000 C 
ATOM     21  O   UNL     1      45.768   7.764  11.839  0.00  0.00    +0.000 OA
ATOM     22  H   UNL     1      47.510   5.270  12.718  0.00  0.00    +0.000 HD
BRANCH  20  23
ATOM     23  C   UNL     1      45.683   5.560  11.001  0.00  0.00    +0.000 A 
ATOM     24  C   UNL     1      45.901   5.623   9.633  0.00  0.00    +0.000 A 
ATOM     25  S   UNL     1      45.154   4.355   8.765  0.00  0.00    +0.000 S 
ATOM     26  C   UNL     1      44.552   3.655  10.195  0.00  0.00    +0.000 A 
ATOM     27  N   UNL     1      43.791   2.527  10.162  0.00  0.00    +0.000 NA
ATOM     28  C   UNL     1      43.421   2.097  11.322  0.00  0.00    +0.000 A 
ATOM     29  N   UNL     1      43.755   2.682  12.514  0.00  0.00    +0.000 N 
ATOM     30  C   UNL     1      44.533   3.809  12.595  0.00  0.00    +0.000 A 
ATOM     31  O   UNL     1      44.831   4.291  13.682  0.00  0.00    +0.000 OA
ATOM     32  C   UNL     1      44.935   4.363  11.318  0.00  0.00    +0.000 A 
ATOM     33  H   UNL     1      43.447   2.290  13.392  0.00  0.00    +0.000 HD
ENDBRANCH  20  23
ENDBRANCH   1  19
BRANCH   1  34
ATOM     34  C   UNL     1      49.094   7.757  13.020  0.00  0.00    +0.000 C 
BRANCH  34  35
ATOM     35  N   UNL     1      49.860   6.857  12.146  0.00  0.00    +0.000 NA
ATOM     36  H   UNL     1      50.727   6.601  12.615  0.00  0.00    +0.000 HD
ATOM     37  H   UNL     1      50.126   7.356  11.296  0.00  0.00    +0.000 HD
ENDBRANCH  34  35
ENDBRANCH   1  34
TORSDOF 8
ENDMDL
MODEL 5
REMARK VINA RESULT:    -6.716      2.980      4.039
REMARK INTER + INTRA:         -10.668
REMARK INTER:                  -9.590
REMARK INTRA:                  -1.078
REMARK UNBOUND:                -1.007
REMARK  Name = 
REMARK  8 active torsions:
REMARK  status: ('A' for Active; 'I' for Inactive)
REMARK    1  A    between atoms: N_1  and  C_2
REMARK    2  A    between atoms: C_2  and  C_3
REMARK    3  A    between atoms: C_3  and  N_4
REMARK    4  A    between atoms: C_3  and  C_17
REMARK    5  A    between atoms: C_5  and  C_7
REMARK    6  A    between atoms: C_20  and  C_21
REMARK    7  A    between atoms: C_21  and  N_22
REMARK    8  A    between atoms: C_23  and  C_25
REMARK                            x       y       z     vdW  Elec       q    Type
REMARK                         _______ _______ _______ _____ _____    ______ ____
ROOT
ATOM      1  C   UNL     1      47.526   5.056  15.609  0.00  0.00    +0.000 C 
ENDROOT
BRANCH   1   2
ATOM      2  C   UNL     1      46.846   5.132  14.236  0.00  0.00    +0.000 A 
ATOM      3  C   UNL     1      47.052   6.239  13.402  0.00  0.00    +0.000 A 
ATOM      4  C   UNL     1      46.446   6.311  12.140  0.00  0.00    +0.000 A 
ATOM      5  C   UNL     1      45.618   5.279  11.676  0.00  0.00    +0.000 A 
ATOM      6  C   UNL     1      45.434   4.159  12.493  0.00  0.00    +0.000 A 
ATOM      7  C   UNL     1      46.030   4.091  13.757  0.00  0.00    +0.000 A 
BRANCH   5   8
ATOM      8  C   UNL     1      44.928   5.377  10.338  0.00  0.00    +0.000 C 
BRANCH   8   9
ATOM      9  N   UNL     1      45.665   4.728   9.280  0.00  0.00    +0.000 N 
ATOM     10  C   UNL     1      45.349   3.443   8.901  0.00  0.00    +0.000 C 
ATOM     11  O   UNL     1      44.460   2.796   9.448  0.00  0.00    +0.000 OA
ATOM     12  H   UNL     1      46.332   5.261   8.747  0.00  0.00    +0.000 HD
BRANCH  10  13
ATOM     13  C   UNL     1      46.134   2.894   7.812  0.00  0.00    +0.000 A 
ATOM     14  C   UNL     1      46.760   1.669   7.632  0.00  0.00    +0.000 A 
ATOM     15  C   UNL     1      47.369   1.665   6.353  0.00  0.00    +0.000 A 
ATOM     16  C   UNL     1      47.110   2.885   5.773  0.00  0.00    +0.000 A 
ATOM     17  N   UNL     1      46.371   3.620   6.660  0.00  0.00    +0.000 N 
ATOM     18  H   UNL     1      46.030   4.563   6.512  0.00  0.00    +0.000 HD
ENDBRANCH  10  13
ENDBRANCH   8   9
ENDBRANCH   5   8
ENDBRANCH   1   2
BRANCH   1  19
ATOM     19  N   UNL     1      48.858   5.633  15.488  0.00  0.00    +0.000 N 
ATOM     20  C   UNL     1      49.279   6.771  16.121  0.00  0.00    +0.000 C 
ATOM     21  O   UNL     1      48.531   7.491  16.773  0.00  0.00    +0.000 OA
ATOM     22  H   UNL     1      49.545   5.043  15.041  0.00  0.00    +0.000 HD
BRANCH  20  23
ATOM     23  C   UNL     1      50.700   7.103  15.930  0.00  0.00    +0.000 A 
ATOM     24  C   UNL     1      51.070   8.210  15.181  0.00  0.00    +0.000 A 
ATOM     25  S   UNL     1      52.761   8.375  15.001  0.00  0.00    +0.000 S 
ATOM     26  C   UNL     1      53.055   6.996  15.954  0.00  0.00    +0.000 A 
ATOM     27  N   UNL     1      54.322   6.557  16.189  0.00  0.00    +0.000 NA
ATOM     28  C   UNL     1      54.395   5.513  16.946  0.00  0.00    +0.000 A 
ATOM     29  N   UNL     1      53.319   4.876  17.503  0.00  0.00    +0.000 N 
ATOM     30  C   UNL     1      52.027   5.293  17.307  0.00  0.00    +0.000 A 
ATOM     31  O   UNL     1      51.090   4.711  17.842  0.00  0.00    +0.000 OA
ATOM     32  C   UNL     1      51.884   6.434  16.424  0.00  0.00    +0.000 A 
ATOM     33  H   UNL     1      53.440   4.070  18.099  0.00  0.00    +0.000 HD
ENDBRANCH  20  23
ENDBRANCH   1  19
BRANCH   1  34
ATOM     34  C   UNL     1      47.568   3.602  16.173  0.00  0.00    +0.000 C 
BRANCH  34  35
ATOM     35  N   UNL     1      46.772   3.406  17.393  0.00  0.00    +0.000 NA
ATOM     36  H   UNL     1      47.056   2.533  17.835  0.00  0.00    +0.000 HD
ATOM     37  H   UNL     1      45.789   3.297  17.143  0.00  0.00    +0.000 HD
ENDBRANCH  34  35
ENDBRANCH   1  34
TORSDOF 8
ENDMDL
MODEL 6
REMARK VINA RESULT:    -6.657      2.771      9.984
REMARK INTER + INTRA:         -10.583
REMARK INTER:                  -9.579
REMARK INTRA:                  -1.005
REMARK UNBOUND:                -1.007
REMARK  Name = 
REMARK  8 active torsions:
REMARK  status: ('A' for Active; 'I' for Inactive)
REMARK    1  A    between atoms: N_1  and  C_2
REMARK    2  A    between atoms: C_2  and  C_3
REMARK    3  A    between atoms: C_3  and  N_4
REMARK    4  A    between atoms: C_3  and  C_17
REMARK    5  A    between atoms: C_5  and  C_7
REMARK    6  A    between atoms: C_20  and  C_21
REMARK    7  A    between atoms: C_21  and  N_22
REMARK    8  A    between atoms: C_23  and  C_25
REMARK                            x       y       z     vdW  Elec       q    Type
REMARK                         _______ _______ _______ _____ _____    ______ ____
ROOT
ATOM      1  C   UNL     1      44.486   4.568  11.456  0.00  0.00    +0.000 C 
ENDROOT
BRANCH   1   2
ATOM      2  C   UNL     1      45.567   5.196  12.346  0.00  0.00    +0.000 A 
ATOM      3  C   UNL     1      46.228   4.425  13.311  0.00  0.00    +0.000 A 
ATOM      4  C   UNL     1      47.226   4.987  14.120  0.00  0.00    +0.000 A 
ATOM      5  C   UNL     1      47.592   6.333  13.986  0.00  0.00    +0.000 A 
ATOM      6  C   UNL     1      46.955   7.099  13.003  0.00  0.00    +0.000 A 
ATOM      7  C   UNL     1      45.952   6.541  12.203  0.00  0.00    +0.000 A 
BRANCH   5   8
ATOM      8  C   UNL     1      48.632   6.950  14.886  0.00  0.00    +0.000 C 
BRANCH   8   9
ATOM      9  N   UNL     1      48.295   6.843  16.286  0.00  0.00    +0.000 N 
ATOM     10  C   UNL     1      48.926   5.915  17.083  0.00  0.00    +0.000 C 
ATOM     11  O   UNL     1      49.770   5.136  16.644  0.00  0.00    +0.000 OA
ATOM     12  H   UNL     1      47.682   7.527  16.698  0.00  0.00    +0.000 HD
BRANCH  10  13
ATOM     13  C   UNL     1      48.532   5.908  18.478  0.00  0.00    +0.000 A 
ATOM     14  C   UNL     1      47.356   6.265  19.122  0.00  0.00    +0.000 A 
ATOM     15  C   UNL     1      47.520   6.028  20.510  0.00  0.00    +0.000 A 
ATOM     16  C   UNL     1      48.790   5.534  20.693  0.00  0.00    +0.000 A 
ATOM     17  N   UNL     1      49.395   5.471  19.466  0.00  0.00    +0.000 N 
ATOM     18  H   UNL     1      50.337   5.146  19.284  0.00  0.00    +0.000 HD
ENDBRANCH  10  13
ENDBRANCH   8   9
ENDBRANCH   5   8
ENDBRANCH   1   2
BRANCH   1  19
ATOM     19  N   UNL     1      45.144   3.700  10.488  0.00  0.00    +0.000 N 
ATOM     20  C   UNL     1      44.564   2.617   9.884  0.00  0.00    +0.000 C 
ATOM     21  O   UNL     1      43.454   2.195  10.190  0.00  0.00    +0.000 OA
ATOM     22  H   UNL     1      46.023   4.044  10.128  0.00  0.00    +0.000 HD
BRANCH  20  23
ATOM     23  C   UNL     1      45.389   1.956   8.862  0.00  0.00    +0.000 A 
ATOM     24  C   UNL     1      45.403   0.573   8.754  0.00  0.00    +0.000 A 
ATOM     25  S   UNL     1      46.489  -0.006   7.569  0.00  0.00    +0.000 S 
ATOM     26  C   UNL     1      46.944   1.574   7.131  0.00  0.00    +0.000 A 
ATOM     27  N   UNL     1      47.876   1.798   6.165  0.00  0.00    +0.000 NA
ATOM     28  C   UNL     1      48.108   3.045   5.923  0.00  0.00    +0.000 A 
ATOM     29  N   UNL     1      47.480   4.090   6.547  0.00  0.00    +0.000 N 
ATOM     30  C   UNL     1      46.524   3.911   7.513  0.00  0.00    +0.000 A 
ATOM     31  O   UNL     1      45.966   4.871   8.032  0.00  0.00    +0.000 OA
ATOM     32  C   UNL     1      46.260   2.528   7.859  0.00  0.00    +0.000 A 
ATOM     33  H   UNL     1      47.694   5.047   6.304  0.00  0.00    +0.000 HD
ENDBRANCH  20  23
ENDBRANCH   1  19
BRANCH   1  34
ATOM     34  C   UNL     1      43.586   5.639  10.765  0.00  0.00    +0.000 C 
BRANCH  34  35
ATOM     35  N   UNL     1      42.370   5.979  11.516  0.00  0.00    +0.000 NA
ATOM     36  H   UNL     1      42.577   6.752  12.146  0.00  0.00    +0.000 HD
ATOM     37  H   UNL     1      42.103   5.189  12.106  0.00  0.00    +0.000 HD
ENDBRANCH  34  35
ENDBRANCH   1  34
TORSDOF 8
ENDMDL
MODEL 7
REMARK VINA RESULT:    -6.607      4.682      7.806
REMARK INTER + INTRA:         -10.510
REMARK INTER:                  -9.660
REMARK INTRA:                  -0.850
REMARK UNBOUND:                -1.007
REMARK  Name = 
REMARK  8 active torsions:
REMARK  status: ('A' for Active; 'I' for Inactive)
REMARK    1  A    between atoms: N_1  and  C_2
REMARK    2  A    between atoms: C_2  and  C_3
REMARK    3  A    between atoms: C_3  and  N_4
REMARK    4  A    between atoms: C_3  and  C_17
REMARK    5  A    between atoms: C_5  and  C_7
REMARK    6  A    between atoms: C_20  and  C_21
REMARK    7  A    between atoms: C_21  and  N_22
REMARK    8  A    between atoms: C_23  and  C_25
REMARK                            x       y       z     vdW  Elec       q    Type
REMARK                         _______ _______ _______ _____ _____    ______ ____
ROOT
ATOM      1  C   UNL     1      46.024   8.319  12.557  0.00  0.00    +0.000 C 
ENDROOT
BRANCH   1   2
ATOM      2  C   UNL     1      47.500   8.438  12.156  0.00  0.00    +0.000 A 
ATOM      3  C   UNL     1      48.065   9.691  11.889  0.00  0.00    +0.000 A 
ATOM      4  C   UNL     1      49.417   9.811  11.535  0.00  0.00    +0.000 A 
ATOM      5  C   UNL     1      50.241   8.681  11.441  0.00  0.00    +0.000 A 
ATOM      6  C   UNL     1      49.689   7.430  11.736  0.00  0.00    +0.000 A 
ATOM      7  C   UNL     1      48.337   7.310  12.079  0.00  0.00    +0.000 A 
BRANCH   5   8
ATOM      8  C   UNL     1      51.683   8.804  11.016  0.00  0.00    +0.000 C 
BRANCH   8   9
ATOM      9  N   UNL     1      52.017   7.934   9.913  0.00  0.00    +0.000 N 
ATOM     10  C   UNL     1      53.094   7.082  10.002  0.00  0.00    +0.000 C 
ATOM     11  O   UNL     1      53.819   7.041  10.992  0.00  0.00    +0.000 OA
ATOM     12  H   UNL     1      51.389   7.873   9.128  0.00  0.00    +0.000 HD
BRANCH  10  13
ATOM     13  C   UNL     1      53.326   6.234   8.849  0.00  0.00    +0.000 A 
ATOM     14  C   UNL     1      52.860   6.279   7.543  0.00  0.00    +0.000 A 
ATOM     15  C   UNL     1      53.438   5.201   6.827  0.00  0.00    +0.000 A 
ATOM     16  C   UNL     1      54.243   4.513   7.705  0.00  0.00    +0.000 A 
ATOM     17  N   UNL     1      54.165   5.138   8.920  0.00  0.00    +0.000 N 
ATOM     18  H   UNL     1      54.651   4.858   9.765  0.00  0.00    +0.000 HD
ENDBRANCH  10  13
ENDBRANCH   8   9
ENDBRANCH   5   8
ENDBRANCH   1   2
BRANCH   1  19
ATOM     19  N   UNL     1      45.512   7.060  12.033  0.00  0.00    +0.000 N 
ATOM     20  C   UNL     1      45.505   5.872  12.715  0.00  0.00    +0.000 C 
ATOM     21  O   UNL     1      46.042   5.724  13.807  0.00  0.00    +0.000 OA
ATOM     22  H   UNL     1      44.978   7.133  11.179  0.00  0.00    +0.000 HD
BRANCH  20  23
ATOM     23  C   UNL     1      44.840   4.758  12.021  0.00  0.00    +0.000 A 
ATOM     24  C   UNL     1      43.966   3.925  12.703  0.00  0.00    +0.000 A 
ATOM     25  S   UNL     1      43.367   2.641  11.749  0.00  0.00    +0.000 S 
ATOM     26  C   UNL     1      44.223   3.181  10.381  0.00  0.00    +0.000 A 
ATOM     27  N   UNL     1      44.165   2.506   9.200  0.00  0.00    +0.000 NA
ATOM     28  C   UNL     1      44.848   3.042   8.244  0.00  0.00    +0.000 A 
ATOM     29  N   UNL     1      45.570   4.199   8.354  0.00  0.00    +0.000 N 
ATOM     30  C   UNL     1      45.643   4.920   9.519  0.00  0.00    +0.000 A 
ATOM     31  O   UNL     1      46.281   5.966   9.573  0.00  0.00    +0.000 OA
ATOM     32  C   UNL     1      44.934   4.337  10.641  0.00  0.00    +0.000 A 
ATOM     33  H   UNL     1      46.073   4.578   7.565  0.00  0.00    +0.000 HD
ENDBRANCH  20  23
ENDBRANCH   1  19
BRANCH   1  34
ATOM     34  C   UNL     1      45.177   9.539  12.080  0.00  0.00    +0.000 C 
BRANCH  34  35
ATOM     35  N   UNL     1      43.909   9.176  11.431  0.00  0.00    +0.000 NA
ATOM     36  H   UNL     1      43.816   9.710  10.569  0.00  0.00    +0.000 HD
ATOM     37  H   UNL     1      43.131   9.454  12.029  0.00  0.00    +0.000 HD
ENDBRANCH  34  35
ENDBRANCH   1  34
TORSDOF 8
ENDMDL
MODEL 8
REMARK VINA RESULT:    -6.417      3.623      5.312
REMARK INTER + INTRA:         -10.237
REMARK INTER:                  -9.079
REMARK INTRA:                  -1.158
REMARK UNBOUND:                -1.007
REMARK  Name = 
REMARK  8 active torsions:
REMARK  status: ('A' for Active; 'I' for Inactive)
REMARK    1  A    between atoms: N_1  and  C_2
REMARK    2  A    between atoms: C_2  and  C_3
REMARK    3  A    between atoms: C_3  and  N_4
REMARK    4  A    between atoms: C_3  and  C_17
REMARK    5  A    between atoms: C_5  and  C_7
REMARK    6  A    between atoms: C_20  and  C_21
REMARK    7  A    between atoms: C_21  and  N_22
REMARK    8  A    between atoms: C_23  and  C_25
REMARK                            x       y       z     vdW  Elec       q    Type
REMARK                         _______ _______ _______ _____ _____    ______ ____
ROOT
ATOM      1  C   UNL     1      48.149   7.011  14.617  0.00  0.00    +0.000 C 
ENDROOT
BRANCH   1   2
ATOM      2  C   UNL     1      47.221   6.098  13.806  0.00  0.00    +0.000 A 
ATOM      3  C   UNL     1      46.360   6.636  12.841  0.00  0.00    +0.000 A 
ATOM      4  C   UNL     1      45.518   5.808  12.085  0.00  0.00    +0.000 A 
ATOM      5  C   UNL     1      45.513   4.419  12.273  0.00  0.00    +0.000 A 
ATOM      6  C   UNL     1      46.393   3.874  13.215  0.00  0.00    +0.000 A 
ATOM      7  C   UNL     1      47.226   4.702  13.976  0.00  0.00    +0.000 A 
BRANCH   5   8
ATOM      8  C   UNL     1      44.575   3.532  11.494  0.00  0.00    +0.000 C 
BRANCH   8   9
ATOM      9  N   UNL     1      45.242   2.798  10.445  0.00  0.00    +0.000 N 
ATOM     10  C   UNL     1      45.233   3.271   9.152  0.00  0.00    +0.000 C 
ATOM     11  O   UNL     1      44.651   4.305   8.835  0.00  0.00    +0.000 OA
ATOM     12  H   UNL     1      45.809   2.002  10.686  0.00  0.00    +0.000 HD
BRANCH  10  13
ATOM     13  C   UNL     1      45.954   2.471   8.181  0.00  0.00    +0.000 A 
ATOM     14  C   UNL     1      46.615   2.795   7.005  0.00  0.00    +0.000 A 
ATOM     15  C   UNL     1      47.169   1.608   6.465  0.00  0.00    +0.000 A 
ATOM     16  C   UNL     1      46.836   0.579   7.314  0.00  0.00    +0.000 A 
ATOM     17  N   UNL     1      46.100   1.106   8.341  0.00  0.00    +0.000 N 
ATOM     18  H   UNL     1      45.713   0.589   9.122  0.00  0.00    +0.000 HD
ENDBRANCH  10  13
ENDBRANCH   8   9
ENDBRANCH   5   8
ENDBRANCH   1   2
BRANCH   1  19
ATOM     19  N   UNL     1      49.151   7.558  13.712  0.00  0.00    +0.000 N 
ATOM     20  C   UNL     1      49.276   8.883  13.390  0.00  0.00    +0.000 C 
ATOM     21  O   UNL     1      48.474   9.738  13.748  0.00  0.00    +0.000 OA
ATOM     22  H   UNL     1      49.894   6.923  13.456  0.00  0.00    +0.000 HD
BRANCH  20  23
ATOM     23  C   UNL     1      50.430   9.211  12.537  0.00  0.00    +0.000 A 
ATOM     24  C   UNL     1      50.253   9.904  11.349  0.00  0.00    +0.000 A 
ATOM     25  S   UNL     1      51.697  10.110  10.460  0.00  0.00    +0.000 S 
ATOM     26  C   UNL     1      52.614   9.318  11.655  0.00  0.00    +0.000 A 
ATOM     27  N   UNL     1      53.954   9.131  11.508  0.00  0.00    +0.000 NA
ATOM     28  C   UNL     1      54.523   8.534  12.502  0.00  0.00    +0.000 A 
ATOM     29  N   UNL     1      53.878   8.120  13.636  0.00  0.00    +0.000 N 
ATOM     30  C   UNL     1      52.533   8.302  13.834  0.00  0.00    +0.000 A 
ATOM     31  O   UNL     1      51.995   7.940  14.874  0.00  0.00    +0.000 OA
ATOM     32  C   UNL     1      51.835   8.925  12.726  0.00  0.00    +0.000 A 
ATOM     33  H   UNL     1      54.381   7.670  14.388  0.00  0.00    +0.000 HD
ENDBRANCH  20  23
ENDBRANCH   1  19
BRANCH   1  34
ATOM     34  C   UNL     1      48.796   6.276  15.832  0.00  0.00    +0.000 C 
BRANCH  34  35
ATOM     35  N   UNL     1      47.907   6.132  16.992  0.00  0.00    +0.000 NA
ATOM     36  H   UNL     1      48.324   5.471  17.647  0.00  0.00    +0.000 HD
ATOM     37  H   UNL     1      47.021   5.723  16.692  0.00  0.00    +0.000 HD
ENDBRANCH  34  35
ENDBRANCH   1  34
TORSDOF 8
ENDMDL
MODEL 9
REMARK VINA RESULT:    -6.396      4.041      6.167
REMARK INTER + INTRA:         -10.207
REMARK INTER:                  -8.946
REMARK INTRA:                  -1.260
REMARK UNBOUND:                -1.007
REMARK  Name = 
REMARK  8 active torsions:
REMARK  status: ('A' for Active; 'I' for Inactive)
REMARK    1  A    between atoms: N_1  and  C_2
REMARK    2  A    between atoms: C_2  and  C_3
REMARK    3  A    between atoms: C_3  and  N_4
REMARK    4  A    between atoms: C_3  and  C_17
REMARK    5  A    between atoms: C_5  and  C_7
REMARK    6  A    between atoms: C_20  and  C_21
REMARK    7  A    between atoms: C_21  and  N_22
REMARK    8  A    between atoms: C_23  and  C_25
REMARK                            x       y       z     vdW  Elec       q    Type
REMARK                         _______ _______ _______ _____ _____    ______ ____
ROOT
ATOM      1  C   UNL     1      47.745   8.817  13.957  0.00  0.00    +0.000 C 
ENDROOT
BRANCH   1   2
ATOM      2  C   UNL     1      46.942   7.627  13.416  0.00  0.00    +0.000 A 
ATOM      3  C   UNL     1      45.729   7.834  12.746  0.00  0.00    +0.000 A 
ATOM      4  C   UNL     1      44.995   6.754  12.236  0.00  0.00    +0.000 A 
ATOM      5  C   UNL     1      45.452   5.437  12.382  0.00  0.00    +0.000 A 
ATOM      6  C   UNL     1      46.677   5.227  13.024  0.00  0.00    +0.000 A 
ATOM      7  C   UNL     1      47.405   6.305  13.542  0.00  0.00    +0.000 A 
BRANCH   5   8
ATOM      8  C   UNL     1      44.641   4.271  11.875  0.00  0.00    +0.000 C 
BRANCH   8   9
ATOM      9  N   UNL     1      45.297   3.556  10.806  0.00  0.00    +0.000 N 
ATOM     10  C   UNL     1      44.899   3.739   9.501  0.00  0.00    +0.000 C 
ATOM     11  O   UNL     1      43.973   4.485   9.195  0.00  0.00    +0.000 OA
ATOM     12  H   UNL     1      46.120   3.013  11.011  0.00  0.00    +0.000 HD
BRANCH  10  13
ATOM     13  C   UNL     1      45.641   2.991   8.504  0.00  0.00    +0.000 A 
ATOM     14  C   UNL     1      46.048   1.667   8.436  0.00  0.00    +0.000 A 
ATOM     15  C   UNL     1      46.727   1.473   7.207  0.00  0.00    +0.000 A 
ATOM     16  C   UNL     1      46.728   2.680   6.547  0.00  0.00    +0.000 A 
ATOM     17  N   UNL     1      46.078   3.589   7.337  0.00  0.00    +0.000 N 
ATOM     18  H   UNL     1      45.921   4.565   7.114  0.00  0.00    +0.000 HD
ENDBRANCH  10  13
ENDBRANCH   8   9
ENDBRANCH   5   8
ENDBRANCH   1   2
BRANCH   1  19
ATOM     19  N   UNL     1      48.860   9.060  13.051  0.00  0.00    +0.000 N 
ATOM     20  C   UNL     1      48.832   9.925  11.990  0.00  0.00    +0.000 C 
ATOM     21  O   UNL     1      47.815  10.503  11.623  0.00  0.00    +0.000 OA
ATOM     22  H   UNL     1      49.749   8.686  13.350  0.00  0.00    +0.000 HD
BRANCH  20  23
ATOM     23  C   UNL     1      50.111  10.084  11.281  0.00  0.00    +0.000 A 
ATOM     24  C   UNL     1      50.580  11.347  10.948  0.00  0.00    +0.000 A 
ATOM     25  S   UNL     1      52.034  11.318  10.052  0.00  0.00    +0.000 S 
ATOM     26  C   UNL     1      52.108   9.618  10.116  0.00  0.00    +0.000 A 
ATOM     27  N   UNL     1      53.118   8.933   9.514  0.00  0.00    +0.000 NA
ATOM     28  C   UNL     1      53.056   7.651   9.662  0.00  0.00    +0.000 A 
ATOM     29  N   UNL     1      52.087   6.993  10.371  0.00  0.00    +0.000 N 
ATOM     30  C   UNL     1      51.062   7.644  11.007  0.00  0.00    +0.000 A 
ATOM     31  O   UNL     1      50.225   7.023  11.652  0.00  0.00    +0.000 OA
ATOM     32  C   UNL     1      51.054   9.083  10.832  0.00  0.00    +0.000 A 
ATOM     33  H   UNL     1      52.100   5.987  10.464  0.00  0.00    +0.000 HD
ENDBRANCH  20  23
ENDBRANCH   1  19
BRANCH   1  34
ATOM     34  C   UNL     1      48.223   8.595  15.426  0.00  0.00    +0.000 C 
BRANCH  34  35
ATOM     35  N   UNL     1      47.499   9.397  16.422  0.00  0.00    +0.000 NA
ATOM     36  H   UNL     1      47.302   8.814  17.234  0.00  0.00    +0.000 HD
ATOM     37  H   UNL     1      46.595   9.677  16.040  0.00  0.00    +0.000 HD
ENDBRANCH  34  35
ENDBRANCH   1  34
TORSDOF 8
ENDMDL
