MODEL 1
REMARK VINA RESULT:    -8.610      0.000      0.000
REMARK INTER + INTRA:         -11.858
REMARK INTER:                 -11.126
REMARK INTRA:                  -0.731
REMARK UNBOUND:                -0.731
REMARK  Name = 
REMARK  5 active torsions:
REMARK  status: ('A' for Active; 'I' for Inactive)
REMARK    1  A    between atoms: C_2  and  C_18
REMARK    2  A    between atoms: N_3  and  C_4
REMARK    3  A    between atoms: C_4  and  C_5
REMARK    4  A    between atoms: C_8  and  C_9
REMARK    5  A    between atoms: C_9  and  C_10
REMARK                            x       y       z     vdW  Elec       q    Type
REMARK                         _______ _______ _______ _____ _____    ______ ____
ROOT
ATOM      1  O   UNL     1      46.887   3.391  13.997  0.00  0.00    +0.000 OA
ATOM      2  C   UNL     1      46.685   4.594  14.146  0.00  0.00    +0.000 C 
ATOM      3  N   UNL     1      45.472   5.170  13.872  0.00  0.00    +0.000 N 
ATOM      4  H   UNL     1      45.400   6.181  13.834  0.00  0.00    +0.000 HD
ENDROOT
BRANCH   2   5
ATOM      5  C   UNL     1      47.720   5.487  14.682  0.00  0.00    +0.000 A 
ATOM      6  C   UNL     1      48.293   6.448  13.861  0.00  0.00    +0.000 A 
ATOM      7  S   UNL     1      49.502   7.371  14.633  0.00  0.00    +0.000 S 
ATOM      8  C   UNL     1      49.264   6.554  16.106  0.00  0.00    +0.000 A 
ATOM      9  N   UNL     1      49.979   6.888  17.215  0.00  0.00    +0.000 NA
ATOM     10  C   UNL     1      49.662   6.222  18.276  0.00  0.00    +0.000 A 
ATOM     11  N   UNL     1      48.699   5.248  18.326  0.00  0.00    +0.000 N 
ATOM     12  C   UNL     1      48.011   4.823  17.215  0.00  0.00    +0.000 A 
ATOM     13  O   UNL     1      47.257   3.855  17.267  0.00  0.00    +0.000 OA
ATOM     14  C   UNL     1      48.294   5.573  16.005  0.00  0.00    +0.000 A 
ATOM     15  H   UNL     1      48.519   4.746  19.182  0.00  0.00    +0.000 HD
ENDBRANCH   2   5
BRANCH   3  16
ATOM     16  C   UNL     1      44.364   4.430  13.320  0.00  0.00    +0.000 C 
BRANCH  16  17
ATOM     17  C   UNL     1      44.478   4.288  11.832  0.00  0.00    +0.000 A 
ATOM     18  C   UNL     1      45.267   5.149  11.066  0.00  0.00    +0.000 A 
ATOM     19  C   UNL     1      45.341   4.975   9.684  0.00  0.00    +0.000 A 
ATOM     20  C   UNL     1      44.619   3.938   9.098  0.00  0.00    +0.000 A 
ATOM     21  N   UNL     1      43.861   3.078   9.825  0.00  0.00    +0.000 NA
ATOM     22  C   UNL     1      43.816   3.265  11.165  0.00  0.00    +0.000 A 
BRANCH  20  23
ATOM     23  C   UNL     1      44.707   3.687   7.608  0.00  0.00    +0.000 C 
BRANCH  23  24
ATOM     24  C   UNL     1      45.916   2.875   7.211  0.00  0.00    +0.000 A 
ATOM     25  C   UNL     1      46.702   3.263   6.119  0.00  0.00    +0.000 A 
ATOM     26  C   UNL     1      47.784   2.476   5.761  0.00  0.00    +0.000 A 
ATOM     27  N   UNL     1      48.142   1.350   6.416  0.00  0.00    +0.000 NA
ATOM     28  C   UNL     1      47.384   1.004   7.479  0.00  0.00    +0.000 A 
ATOM     29  C   UNL     1      46.279   1.723   7.911  0.00  0.00    +0.000 A 
ENDBRANCH  23  24
ENDBRANCH  20  23
ENDBRANCH  16  17
ENDBRANCH   3  16
TORSDOF 5
ENDMDL
MODEL 2
REMARK VINA RESULT:    -8.505      1.656      2.410
REMARK INTER + INTRA:         -11.722
REMARK INTER:                 -11.181
REMARK INTRA:                  -0.541
REMARK UNBOUND:                -0.731
REMARK  Name = 
REMARK  5 active torsions:
REMARK  status: ('A' for Active; 'I' for Inactive)
REMARK    1  A    between atoms: C_2  and  C_18
REMARK    2  A    between atoms: N_3  and  C_4
REMARK    3  A    between atoms: C_4  and  C_5
REMARK    4  A    between atoms: C_8  and  C_9
REMARK    5  A    between atoms: C_9  and  C_10
REMARK                            x       y       z     vdW  Elec       q    Type
REMARK                         _______ _______ _______ _____ _____    ______ ____
ROOT
ATOM      1  O   UNL     1      48.695   6.885  12.733  0.00  0.00    +0.000 OA
ATOM      2  C   UNL     1      47.963   6.750  13.710  0.00  0.00    +0.000 C 
ATOM      3  N   UNL     1      46.608   6.941  13.638  0.00  0.00    +0.000 N 
ATOM      4  H   UNL     1      46.069   6.997  14.497  0.00  0.00    +0.000 HD
ENDROOT
BRANCH   2   5
ATOM      5  C   UNL     1      48.489   6.319  15.011  0.00  0.00    +0.000 A 
ATOM      6  C   UNL     1      49.505   7.043  15.618  0.00  0.00    +0.000 A 
ATOM      7  S   UNL     1      50.022   6.382  17.103  0.00  0.00    +0.000 S 
ATOM      8  C   UNL     1      48.869   5.133  17.012  0.00  0.00    +0.000 A 
ATOM      9  N   UNL     1      48.756   4.211  18.006  0.00  0.00    +0.000 NA
ATOM     10  C   UNL     1      47.808   3.351  17.832  0.00  0.00    +0.000 A 
ATOM     11  N   UNL     1      46.968   3.325  16.749  0.00  0.00    +0.000 N 
ATOM     12  C   UNL     1      47.098   4.185  15.685  0.00  0.00    +0.000 A 
ATOM     13  O   UNL     1      46.421   4.046  14.670  0.00  0.00    +0.000 OA
ATOM     14  C   UNL     1      48.117   5.204  15.852  0.00  0.00    +0.000 A 
ATOM     15  H   UNL     1      46.264   2.609  16.661  0.00  0.00    +0.000 HD
ENDBRANCH   2   5
BRANCH   3  16
ATOM     16  C   UNL     1      45.945   7.385  12.438  0.00  0.00    +0.000 C 
BRANCH  16  17
ATOM     17  C   UNL     1      45.567   6.235  11.555  0.00  0.00    +0.000 A 
ATOM     18  C   UNL     1      44.754   5.193  12.006  0.00  0.00    +0.000 A 
ATOM     19  C   UNL     1      44.431   4.143  11.145  0.00  0.00    +0.000 A 
ATOM     20  C   UNL     1      44.932   4.162   9.846  0.00  0.00    +0.000 A 
ATOM     21  N   UNL     1      45.709   5.173   9.381  0.00  0.00    +0.000 NA
ATOM     22  C   UNL     1      45.998   6.182  10.235  0.00  0.00    +0.000 A 
BRANCH  20  23
ATOM     23  C   UNL     1      44.570   3.067   8.866  0.00  0.00    +0.000 C 
BRANCH  23  24
ATOM     24  C   UNL     1      45.759   2.526   8.109  0.00  0.00    +0.000 A 
ATOM     25  C   UNL     1      46.111   1.176   8.214  0.00  0.00    +0.000 A 
ATOM     26  C   UNL     1      47.229   0.722   7.533  0.00  0.00    +0.000 A 
ATOM     27  N   UNL     1      48.003   1.508   6.754  0.00  0.00    +0.000 NA
ATOM     28  C   UNL     1      47.636   2.802   6.650  0.00  0.00    +0.000 A 
ATOM     29  C   UNL     1      46.538   3.352   7.296  0.00  0.00    +0.000 A 
ENDBRANCH  23  24
ENDBRANCH  20  23
ENDBRANCH  16  17
ENDBRANCH   3  16
TORSDOF 5
ENDMDL
MODEL 3
REMARK VINA RESULT:    -8.412      1.892      2.525
REMARK INTER + INTRA:         -11.602
REMARK INTER:                 -10.794
REMARK INTRA:                  -0.808
REMARK UNBOUND:                -0.731
REMARK  Name = 
REMARK  5 active torsions:
REMARK  status: ('A' for Active; 'I' for Inactive)
REMARK    1  A    between atoms: C_2  and  C_18
REMARK    2  A    between atoms: N_3  and  C_4
REMARK    3  A    between atoms: C_4  and  C_5
REMARK    4  A    between atoms: C_8  and  C_9
REMARK    5  A    between atoms: C_9  and  C_10
REMARK                            x       y       z     vdW  Elec       q    Type
REMARK                         _______ _______ _______ _____ _____    ______ ____
ROOT
ATOM      1  O   UNL     1      48.728   6.192  13.872  0.00  0.00    +0.000 OA
ATOM      2  C   UNL     1      47.735   5.786  14.469  0.00  0.00    +0.000 C 
ATOM      3  N   UNL     1      46.464   5.984  13.993  0.00  0.00    +0.000 N 
ATOM      4  H   UNL     1      45.673   5.795  14.599  0.00  0.00    +0.000 HD
ENDROOT
BRANCH   2   5
ATOM      5  C   UNL     1      47.847   5.007  15.709  0.00  0.00    +0.000 A 
ATOM      6  C   UNL     1      47.500   3.664  15.713  0.00  0.00    +0.000 A 
ATOM      7  S   UNL     1      47.653   2.923  17.242  0.00  0.00    +0.000 S 
ATOM      8  C   UNL     1      48.239   4.360  17.940  0.00  0.00    +0.000 A 
ATOM      9  N   UNL     1      48.598   4.404  19.252  0.00  0.00    +0.000 NA
ATOM     10  C   UNL     1      49.073   5.542  19.638  0.00  0.00    +0.000 A 
ATOM     11  N   UNL     1      49.213   6.642  18.833  0.00  0.00    +0.000 N 
ATOM     12  C   UNL     1      48.789   6.667  17.526  0.00  0.00    +0.000 A 
ATOM     13  O   UNL     1      48.800   7.708  16.874  0.00  0.00    +0.000 OA
ATOM     14  C   UNL     1      48.293   5.398  17.027  0.00  0.00    +0.000 A 
ATOM     15  H   UNL     1      49.566   7.511  19.204  0.00  0.00    +0.000 HD
ENDBRANCH   2   5
BRANCH   3  16
ATOM     16  C   UNL     1      46.188   6.746  12.801  0.00  0.00    +0.000 C 
BRANCH  16  17
ATOM     17  C   UNL     1      45.780   5.862  11.661  0.00  0.00    +0.000 A 
ATOM     18  C   UNL     1      45.071   4.676  11.863  0.00  0.00    +0.000 A 
ATOM     19  C   UNL     1      44.715   3.887  10.768  0.00  0.00    +0.000 A 
ATOM     20  C   UNL     1      45.078   4.307   9.491  0.00  0.00    +0.000 A 
ATOM     21  N   UNL     1      45.750   5.465   9.270  0.00  0.00    +0.000 NA
ATOM     22  C   UNL     1      46.075   6.215  10.349  0.00  0.00    +0.000 A 
BRANCH  20  23
ATOM     23  C   UNL     1      44.672   3.505   8.274  0.00  0.00    +0.000 C 
BRANCH  23  24
ATOM     24  C   UNL     1      45.822   2.757   7.642  0.00  0.00    +0.000 A 
ATOM     25  C   UNL     1      46.190   1.493   8.116  0.00  0.00    +0.000 A 
ATOM     26  C   UNL     1      47.272   0.850   7.537  0.00  0.00    +0.000 A 
ATOM     27  N   UNL     1      47.996   1.369   6.521  0.00  0.00    +0.000 NA
ATOM     28  C   UNL     1      47.613   2.579   6.064  0.00  0.00    +0.000 A 
ATOM     29  C   UNL     1      46.548   3.303   6.581  0.00  0.00    +0.000 A 
ENDBRANCH  23  24
ENDBRANCH  20  23
ENDBRANCH  16  17
ENDBRANCH   3  16
TORSDOF 5
ENDMDL
MODEL 4
REMARK VINA RESULT:    -8.109      1.748      2.244
REMARK INTER + INTRA:         -11.210
REMARK INTER:                 -10.266
REMARK INTRA:                  -0.944
REMARK UNBOUND:                -0.731
REMARK  Name = 
REMARK  5 active torsions:
REMARK  status: ('A' for Active; 'I' for Inactive)
REMARK    1  A    between atoms: C_2  and  C_18
REMARK    2  A    between atoms: N_3  and  C_4
REMARK    3  A    between atoms: C_4  and  C_5
REMARK    4  A    between atoms: C_8  and  C_9
REMARK    5  A    between atoms: C_9  and  C_10
REMARK                            x       y       z     vdW  Elec       q    Type
REMARK                         _______ _______ _______ _____ _____    ______ ____
ROOT
ATOM      1  O   UNL     1      46.529   8.401  13.223  0.00  0.00    +0.000 OA
ATOM      2  C   UNL     1      47.317   7.493  13.473  0.00  0.00    +0.000 C 
ATOM      3  N   UNL     1      46.935   6.176  13.480  0.00  0.00    +0.000 N 
ATOM      4  H   UNL     1      47.565   5.480  13.865  0.00  0.00    +0.000 HD
ENDROOT
BRANCH   2   5
ATOM      5  C   UNL     1      48.739   7.756  13.725  0.00  0.00    +0.000 A 
ATOM      6  C   UNL     1      49.445   8.597  12.876  0.00  0.00    +0.000 A 
ATOM      7  S   UNL     1      51.091   8.761  13.292  0.00  0.00    +0.000 S 
ATOM      8  C   UNL     1      50.906   7.754  14.651  0.00  0.00    +0.000 A 
ATOM      9  N   UNL     1      51.954   7.498  15.480  0.00  0.00    +0.000 NA
ATOM     10  C   UNL     1      51.661   6.760  16.499  0.00  0.00    +0.000 A 
ATOM     11  N   UNL     1      50.416   6.249  16.760  0.00  0.00    +0.000 N 
ATOM     12  C   UNL     1      49.350   6.416  15.910  0.00  0.00    +0.000 A 
ATOM     13  O   UNL     1      48.287   5.831  16.101  0.00  0.00    +0.000 OA
ATOM     14  C   UNL     1      49.612   7.279  14.773  0.00  0.00    +0.000 A 
ATOM     15  H   UNL     1      50.260   5.657  17.562  0.00  0.00    +0.000 HD
ENDBRANCH   2   5
BRANCH   3  16
ATOM     16  C   UNL     1      45.571   5.759  13.272  0.00  0.00    +0.000 C 
BRANCH  16  17
ATOM     17  C   UNL     1      45.354   5.250  11.879  0.00  0.00    +0.000 A 
ATOM     18  C   UNL     1      45.940   5.863  10.769  0.00  0.00    +0.000 A 
ATOM     19  C   UNL     1      45.707   5.352   9.491  0.00  0.00    +0.000 A 
ATOM     20  C   UNL     1      44.889   4.233   9.355  0.00  0.00    +0.000 A 
ATOM     21  N   UNL     1      44.325   3.610  10.420  0.00  0.00    +0.000 NA
ATOM     22  C   UNL     1      44.576   4.122  11.648  0.00  0.00    +0.000 A 
BRANCH  20  23
ATOM     23  C   UNL     1      44.647   3.620   7.993  0.00  0.00    +0.000 C 
BRANCH  23  24
ATOM     24  C   UNL     1      45.825   2.826   7.479  0.00  0.00    +0.000 A 
ATOM     25  C   UNL     1      46.151   1.592   8.052  0.00  0.00    +0.000 A 
ATOM     26  C   UNL     1      47.258   0.907   7.580  0.00  0.00    +0.000 A 
ATOM     27  N   UNL     1      48.046   1.355   6.578  0.00  0.00    +0.000 NA
ATOM     28  C   UNL     1      47.703   2.537   6.024  0.00  0.00    +0.000 A 
ATOM     29  C   UNL     1      46.618   3.299   6.431  0.00  0.00    +0.000 A 
ENDBRANCH  23  24
ENDBRANCH  20  23
ENDBRANCH  16  17
ENDBRANCH   3  16
TORSDOF 5
ENDMDL
MODEL 5
REMARK VINA RESULT:    -7.758      2.676      3.645
REMARK INTER + INTRA:         -10.757
REMARK INTER:                  -9.813
REMARK INTRA:                  -0.943
REMARK UNBOUND:                -0.731
REMARK  Name = 
REMARK  5 active torsions:
REMARK  status: ('A' for Active; 'I' for Inactive)
REMARK    1  A    between atoms: C_2  and  C_18
REMARK    2  A    between atoms: N_3  and  C_4
REMARK    3  A    between atoms: C_4  and  C_5
REMARK    4  A    between atoms: C_8  and  C_9
REMARK    5  A    between atoms: C_9  and  C_10
REMARK                            x       y       z     vdW  Elec       q    Type
REMARK                         _______ _______ _______ _____ _____    ______ ____
ROOT
ATOM      1  O   UNL     1      46.420   8.450  13.622  0.00  0.00    +0.000 OA
ATOM      2  C   UNL     1      47.282   7.586  13.760  0.00  0.00    +0.000 C 
ATOM      3  N   UNL     1      46.994   6.249  13.674  0.00  0.00    +0.000 N 
ATOM      4  H   UNL     1      47.690   5.572  13.971  0.00  0.00    +0.000 HD
ENDROOT
BRANCH   2   5
ATOM      5  C   UNL     1      48.693   7.933  13.971  0.00  0.00    +0.000 A 
ATOM      6  C   UNL     1      49.134   8.282  15.239  0.00  0.00    +0.000 A 
ATOM      7  S   UNL     1      50.789   8.692  15.298  0.00  0.00    +0.000 S 
ATOM      8  C   UNL     1      50.985   8.367  13.639  0.00  0.00    +0.000 A 
ATOM      9  N   UNL     1      52.200   8.495  13.040  0.00  0.00    +0.000 NA
ATOM     10  C   UNL     1      52.216   8.168  11.790  0.00  0.00    +0.000 A 
ATOM     11  N   UNL     1      51.126   7.734  11.083  0.00  0.00    +0.000 N 
ATOM     12  C   UNL     1      49.865   7.667  11.626  0.00  0.00    +0.000 A 
ATOM     13  O   UNL     1      48.887   7.408  10.930  0.00  0.00    +0.000 OA
ATOM     14  C   UNL     1      49.799   7.976  13.042  0.00  0.00    +0.000 A 
ATOM     15  H   UNL     1      51.201   7.519  10.101  0.00  0.00    +0.000 HD
ENDBRANCH   2   5
BRANCH   3  16
ATOM     16  C   UNL     1      45.655   5.749  13.491  0.00  0.00    +0.000 C 
BRANCH  16  17
ATOM     17  C   UNL     1      45.434   5.254  12.094  0.00  0.00    +0.000 A 
ATOM     18  C   UNL     1      45.833   5.992  10.977  0.00  0.00    +0.000 A 
ATOM     19  C   UNL     1      45.604   5.488   9.696  0.00  0.00    +0.000 A 
ATOM     20  C   UNL     1      44.979   4.251   9.562  0.00  0.00    +0.000 A 
ATOM     21  N   UNL     1      44.600   3.509  10.633  0.00  0.00    +0.000 NA
ATOM     22  C   UNL     1      44.842   4.018  11.864  0.00  0.00    +0.000 A 
BRANCH  20  23
ATOM     23  C   UNL     1      44.753   3.649   8.193  0.00  0.00    +0.000 C 
BRANCH  23  24
ATOM     24  C   UNL     1      45.931   2.848   7.692  0.00  0.00    +0.000 A 
ATOM     25  C   UNL     1      46.057   1.494   8.019  0.00  0.00    +0.000 A 
ATOM     26  C   UNL     1      47.169   0.799   7.572  0.00  0.00    +0.000 A 
ATOM     27  N   UNL     1      48.146   1.350   6.819  0.00  0.00    +0.000 NA
ATOM     28  C   UNL     1      47.996   2.652   6.498  0.00  0.00    +0.000 A 
ATOM     29  C   UNL     1      46.923   3.433   6.901  0.00  0.00    +0.000 A 
ENDBRANCH  23  24
ENDBRANCH  20  23
ENDBRANCH  16  17
ENDBRANCH   3  16
TORSDOF 5
ENDMDL
MODEL 6
REMARK VINA RESULT:    -7.200      2.900      3.453
REMARK INTER + INTRA:         -10.035
REMARK INTER:                  -9.274
REMARK INTRA:                  -0.761
REMARK UNBOUND:                -0.731
REMARK  Name = 
REMARK  5 active torsions:
REMARK  status: ('A' for Active; 'I' for Inactive)
REMARK    1  A    between atoms: C_2  and  C_18
REMARK    2  A    between atoms: N_3  and  C_4
REMARK    3  A    between atoms: C_4  and  C_5
REMARK    4  A    between atoms: C_8  and  C_9
REMARK    5  A    between atoms: C_9  and  C_10
REMARK                            x       y       z     vdW  Elec       q    Type
REMARK                         _______ _______ _______ _____ _____    ______ ____
ROOT
ATOM      1  O   UNL     1      45.713   8.936  13.278  0.00  0.00    +0.000 OA
ATOM      2  C   UNL     1      46.748   8.281  13.190  0.00  0.00    +0.000 C 
ATOM      3  N   UNL     1      46.741   6.912  13.107  0.00  0.00    +0.000 N 
ATOM      4  H   UNL     1      47.612   6.405  13.217  0.00  0.00    +0.000 HD
ENDROOT
BRANCH   2   5
ATOM      5  C   UNL     1      48.064   8.927  13.110  0.00  0.00    +0.000 A 
ATOM      6  C   UNL     1      48.690   9.065  11.880  0.00  0.00    +0.000 A 
ATOM      7  S   UNL     1      50.225   9.802  11.974  0.00  0.00    +0.000 S 
ATOM      8  C   UNL     1      50.084  10.010  13.657  0.00  0.00    +0.000 A 
ATOM      9  N   UNL     1      51.068  10.620  14.372  0.00  0.00    +0.000 NA
ATOM     10  C   UNL     1      50.808  10.757  15.630  0.00  0.00    +0.000 A 
ATOM     11  N   UNL     1      49.657  10.331  16.239  0.00  0.00    +0.000 N 
ATOM     12  C   UNL     1      48.674   9.639  15.573  0.00  0.00    +0.000 A 
ATOM     13  O   UNL     1      47.722   9.150  16.175  0.00  0.00    +0.000 OA
ATOM     14  C   UNL     1      48.893   9.501  14.145  0.00  0.00    +0.000 A 
ATOM     15  H   UNL     1      49.527  10.445  17.233  0.00  0.00    +0.000 HD
ENDBRANCH   2   5
BRANCH   3  16
ATOM     16  C   UNL     1      45.532   6.132  13.191  0.00  0.00    +0.000 C 
BRANCH  16  17
ATOM     17  C   UNL     1      45.247   5.411  11.909  0.00  0.00    +0.000 A 
ATOM     18  C   UNL     1      44.297   4.389  11.831  0.00  0.00    +0.000 A 
ATOM     19  C   UNL     1      44.067   3.748  10.613  0.00  0.00    +0.000 A 
ATOM     20  C   UNL     1      44.798   4.146   9.496  0.00  0.00    +0.000 A 
ATOM     21  N   UNL     1      45.712   5.147   9.545  0.00  0.00    +0.000 NA
ATOM     22  C   UNL     1      45.907   5.759  10.736  0.00  0.00    +0.000 A 
BRANCH  20  23
ATOM     23  C   UNL     1      44.548   3.507   8.147  0.00  0.00    +0.000 C 
BRANCH  23  24
ATOM     24  C   UNL     1      45.757   2.790   7.595  0.00  0.00    +0.000 A 
ATOM     25  C   UNL     1      46.094   1.513   8.054  0.00  0.00    +0.000 A 
ATOM     26  C   UNL     1      47.230   0.899   7.551  0.00  0.00    +0.000 A 
ATOM     27  N   UNL     1      48.035   1.458   6.622  0.00  0.00    +0.000 NA
ATOM     28  C   UNL     1      47.681   2.682   6.176  0.00  0.00    +0.000 A 
ATOM     29  C   UNL     1      46.568   3.379   6.622  0.00  0.00    +0.000 A 
ENDBRANCH  23  24
ENDBRANCH  20  23
ENDBRANCH  16  17
ENDBRANCH   3  16
TORSDOF 5
ENDMDL
MODEL 7
REMARK VINA RESULT:    -7.089      3.194      8.426
REMARK INTER + INTRA:          -9.892
REMARK INTER:                  -9.073
REMARK INTRA:                  -0.819
REMARK UNBOUND:                -0.731
REMARK  Name = 
REMARK  5 active torsions:
REMARK  status: ('A' for Active; 'I' for Inactive)
REMARK    1  A    between atoms: C_2  and  C_18
REMARK    2  A    between atoms: N_3  and  C_4
REMARK    3  A    between atoms: C_4  and  C_5
REMARK    4  A    between atoms: C_8  and  C_9
REMARK    5  A    between atoms: C_9  and  C_10
REMARK                            x       y       z     vdW  Elec       q    Type
REMARK                         _______ _______ _______ _____ _____    ______ ____
ROOT
ATOM      1  O   UNL     1      45.889   7.934  12.007  0.00  0.00    +0.000 OA
ATOM      2  C   UNL     1      46.466   6.881  11.749  0.00  0.00    +0.000 C 
ATOM      3  N   UNL     1      47.741   6.622  12.180  0.00  0.00    +0.000 N 
ATOM      4  H   UNL     1      48.242   5.827  11.797  0.00  0.00    +0.000 HD
ENDROOT
BRANCH   2   5
ATOM      5  C   UNL     1      45.803   5.802  11.005  0.00  0.00    +0.000 A 
ATOM      6  C   UNL     1      45.986   5.698   9.633  0.00  0.00    +0.000 A 
ATOM      7  S   UNL     1      45.114   4.416   8.923  0.00  0.00    +0.000 S 
ATOM      8  C   UNL     1      44.502   3.923  10.433  0.00  0.00    +0.000 A 
ATOM      9  N   UNL     1      43.690   2.836  10.537  0.00  0.00    +0.000 NA
ATOM     10  C   UNL     1      43.340   2.545  11.746  0.00  0.00    +0.000 A 
ATOM     11  N   UNL     1      43.722   3.247  12.859  0.00  0.00    +0.000 N 
ATOM     12  C   UNL     1      44.474   4.396  12.793  0.00  0.00    +0.000 A 
ATOM     13  O   UNL     1      44.682   5.077  13.793  0.00  0.00    +0.000 OA
ATOM     14  C   UNL     1      44.936   4.740  11.461  0.00  0.00    +0.000 A 
ATOM     15  H   UNL     1      43.392   2.982  13.775  0.00  0.00    +0.000 HD
ENDBRANCH   2   5
BRANCH   3  16
ATOM     16  C   UNL     1      48.531   7.587  12.903  0.00  0.00    +0.000 C 
BRANCH  16  17
ATOM     17  C   UNL     1      49.025   7.035  14.206  0.00  0.00    +0.000 A 
ATOM     18  C   UNL     1      50.249   7.424  14.756  0.00  0.00    +0.000 A 
ATOM     19  C   UNL     1      50.666   6.881  15.972  0.00  0.00    +0.000 A 
ATOM     20  C   UNL     1      49.843   5.957  16.612  0.00  0.00    +0.000 A 
ATOM     21  N   UNL     1      48.642   5.579  16.105  0.00  0.00    +0.000 NA
ATOM     22  C   UNL     1      48.259   6.129  14.929  0.00  0.00    +0.000 A 
BRANCH  20  23
ATOM     23  C   UNL     1      50.236   5.378  17.954  0.00  0.00    +0.000 C 
BRANCH  23  24
ATOM     24  C   UNL     1      50.910   4.031  17.847  0.00  0.00    +0.000 A 
ATOM     25  C   UNL     1      52.262   3.888  18.177  0.00  0.00    +0.000 A 
ATOM     26  C   UNL     1      52.857   2.645  18.034  0.00  0.00    +0.000 A 
ATOM     27  N   UNL     1      52.202   1.545  17.603  0.00  0.00    +0.000 NA
ATOM     28  C   UNL     1      50.894   1.699  17.310  0.00  0.00    +0.000 A 
ATOM     29  C   UNL     1      50.211   2.902  17.416  0.00  0.00    +0.000 A 
ENDBRANCH  23  24
ENDBRANCH  20  23
ENDBRANCH  16  17
ENDBRANCH   3  16
TORSDOF 5
ENDMDL
MODEL 8
REMARK VINA RESULT:    -6.971      4.006      8.788
REMARK INTER + INTRA:          -9.739
REMARK INTER:                  -8.800
REMARK INTRA:                  -0.940
REMARK UNBOUND:                -0.731
REMARK  Name = 
REMARK  5 active torsions:
REMARK  status: ('A' for Active; 'I' for Inactive)
REMARK    1  A    between atoms: C_2  and  C_18
REMARK    2  A    between atoms: N_3  and  C_4
REMARK    3  A    between atoms: C_4  and  C_5
REMARK    4  A    between atoms: C_8  and  C_9
REMARK    5  A    between atoms: C_9  and  C_10
REMARK                            x       y       z     vdW  Elec       q    Type
REMARK                         _______ _______ _______ _____ _____    ______ ____
ROOT
ATOM      1  O   UNL     1      47.502   3.049  14.183  0.00  0.00    +0.000 OA
ATOM      2  C   UNL     1      47.024   4.108  14.581  0.00  0.00    +0.000 C 
ATOM      3  N   UNL     1      46.859   4.378  15.916  0.00  0.00    +0.000 N 
ATOM      4  H   UNL     1      46.301   5.178  16.193  0.00  0.00    +0.000 HD
ENDROOT
BRANCH   2   5
ATOM      5  C   UNL     1      46.650   5.181  13.652  0.00  0.00    +0.000 A 
ATOM      6  C   UNL     1      47.571   6.168  13.333  0.00  0.00    +0.000 A 
ATOM      7  S   UNL     1      46.959   7.356  12.273  0.00  0.00    +0.000 S 
ATOM      8  C   UNL     1      45.458   6.564  12.163  0.00  0.00    +0.000 A 
ATOM      9  N   UNL     1      44.464   7.054  11.372  0.00  0.00    +0.000 NA
ATOM     10  C   UNL     1      43.397   6.327  11.343  0.00  0.00    +0.000 A 
ATOM     11  N   UNL     1      43.230   5.158  12.040  0.00  0.00    +0.000 N 
ATOM     12  C   UNL     1      44.174   4.669  12.911  0.00  0.00    +0.000 A 
ATOM     13  O   UNL     1      43.938   3.697  13.623  0.00  0.00    +0.000 OA
ATOM     14  C   UNL     1      45.414   5.423  12.944  0.00  0.00    +0.000 A 
ATOM     15  H   UNL     1      42.359   4.651  11.994  0.00  0.00    +0.000 HD
ENDBRANCH   2   5
BRANCH   3  16
ATOM     16  C   UNL     1      47.160   3.420  16.949  0.00  0.00    +0.000 C 
BRANCH  16  17
ATOM     17  C   UNL     1      48.581   3.533  17.414  0.00  0.00    +0.000 A 
ATOM     18  C   UNL     1      49.566   2.632  17.005  0.00  0.00    +0.000 A 
ATOM     19  C   UNL     1      50.875   2.780  17.466  0.00  0.00    +0.000 A 
ATOM     20  C   UNL     1      51.168   3.833  18.330  0.00  0.00    +0.000 A 
ATOM     21  N   UNL     1      50.230   4.731  18.725  0.00  0.00    +0.000 NA
ATOM     22  C   UNL     1      48.972   4.568  18.255  0.00  0.00    +0.000 A 
BRANCH  20  23
ATOM     23  C   UNL     1      52.583   4.055  18.818  0.00  0.00    +0.000 C 
BRANCH  23  24
ATOM     24  C   UNL     1      53.510   4.566  17.741  0.00  0.00    +0.000 A 
ATOM     25  C   UNL     1      54.691   3.880  17.440  0.00  0.00    +0.000 A 
ATOM     26  C   UNL     1      55.536   4.395  16.471  0.00  0.00    +0.000 A 
ATOM     27  N   UNL     1      55.282   5.527  15.780  0.00  0.00    +0.000 NA
ATOM     28  C   UNL     1      54.128   6.164  16.070  0.00  0.00    +0.000 A 
ATOM     29  C   UNL     1      53.221   5.730  17.026  0.00  0.00    +0.000 A 
ENDBRANCH  23  24
ENDBRANCH  20  23
ENDBRANCH  16  17
ENDBRANCH   3  16
TORSDOF 5
ENDMDL
MODEL 9
REMARK VINA RESULT:    -6.738      3.022      9.028
REMARK INTER + INTRA:          -9.439
REMARK INTER:                  -8.408
REMARK INTRA:                  -1.031
REMARK UNBOUND:                -0.731
REMARK  Name = 
REMARK  5 active torsions:
REMARK  status: ('A' for Active; 'I' for Inactive)
REMARK    1  A    between atoms: C_2  and  C_18
REMARK    2  A    between atoms: N_3  and  C_4
REMARK    3  A    between atoms: C_4  and  C_5
REMARK    4  A    between atoms: C_8  and  C_9
REMARK    5  A    between atoms: C_9  and  C_10
REMARK                            x       y       z     vdW  Elec       q    Type
REMARK                         _______ _______ _______ _____ _____    ______ ____
ROOT
ATOM      1  O   UNL     1      44.569   7.485  11.784  0.00  0.00    +0.000 OA
ATOM      2  C   UNL     1      45.299   6.520  11.572  0.00  0.00    +0.000 C 
ATOM      3  N   UNL     1      46.666   6.612  11.635  0.00  0.00    +0.000 N 
ATOM      4  H   UNL     1      47.231   5.848  11.280  0.00  0.00    +0.000 HD
ENDROOT
BRANCH   2   5
ATOM      5  C   UNL     1      44.752   5.187  11.291  0.00  0.00    +0.000 A 
ATOM      6  C   UNL     1      43.960   4.555  12.239  0.00  0.00    +0.000 A 
ATOM      7  S   UNL     1      43.441   3.000  11.767  0.00  0.00    +0.000 S 
ATOM      8  C   UNL     1      44.215   3.139  10.258  0.00  0.00    +0.000 A 
ATOM      9  N   UNL     1      44.137   2.140   9.337  0.00  0.00    +0.000 NA
ATOM     10  C   UNL     1      44.728   2.399   8.217  0.00  0.00    +0.000 A 
ATOM     11  N   UNL     1      45.395   3.563   7.938  0.00  0.00    +0.000 N 
ATOM     12  C   UNL     1      45.568   4.563   8.865  0.00  0.00    +0.000 A 
ATOM     13  O   UNL     1      46.288   5.529   8.630  0.00  0.00    +0.000 OA
ATOM     14  C   UNL     1      44.881   4.344  10.125  0.00  0.00    +0.000 A 
ATOM     15  H   UNL     1      45.858   3.691   7.051  0.00  0.00    +0.000 HD
ENDBRANCH   2   5
BRANCH   3  16
ATOM     16  C   UNL     1      47.354   7.854  11.879  0.00  0.00    +0.000 C 
BRANCH  16  17
ATOM     17  C   UNL     1      48.008   7.871  13.228  0.00  0.00    +0.000 A 
ATOM     18  C   UNL     1      47.779   8.897  14.148  0.00  0.00    +0.000 A 
ATOM     19  C   UNL     1      48.412   8.867  15.391  0.00  0.00    +0.000 A 
ATOM     20  C   UNL     1      49.263   7.804  15.686  0.00  0.00    +0.000 A 
ATOM     21  N   UNL     1      49.485   6.788  14.815  0.00  0.00    +0.000 NA
ATOM     22  C   UNL     1      48.851   6.838  13.621  0.00  0.00    +0.000 A 
BRANCH  20  23
ATOM     23  C   UNL     1      49.934   7.710  17.039  0.00  0.00    +0.000 C 
BRANCH  23  24
ATOM     24  C   UNL     1      49.577   6.453  17.795  0.00  0.00    +0.000 A 
ATOM     25  C   UNL     1      50.534   5.452  17.997  0.00  0.00    +0.000 A 
ATOM     26  C   UNL     1      50.162   4.296  18.664  0.00  0.00    +0.000 A 
ATOM     27  N   UNL     1      48.921   4.077  19.150  0.00  0.00    +0.000 NA
ATOM     28  C   UNL     1      48.018   5.062  18.963  0.00  0.00    +0.000 A 
ATOM     29  C   UNL     1      48.292   6.252  18.304  0.00  0.00    +0.000 A 
ENDBRANCH  23  24
ENDBRANCH  20  23
ENDBRANCH  16  17
ENDBRANCH   3  16
TORSDOF 5
ENDMDL
