MODEL 1
REMARK VINA RESULT:    -7.924      0.000      0.000
REMARK INTER + INTRA:         -13.240
REMARK INTER:                 -12.325
REMARK INTRA:                  -0.914
REMARK UNBOUND:                -0.914
REMARK  Name = 
REMARK  10 active torsions:
REMARK  status: ('A' for Active; 'I' for Inactive)
REMARK    1  A    between atoms: N_1  and  C_2
REMARK    2  A    between atoms: C_2  and  C_3
REMARK    3  A    between atoms: C_3  and  N_4
REMARK    4  A    between atoms: C_3  and  C_20
REMARK    5  A    between atoms: N_4  and  C_5
REMARK    6  A    between atoms: C_5  and  C_6
REMARK    7  A    between atoms: C_9  and  C_10
REMARK    8  A    between atoms: C_10  and  N_11
REMARK    9  A    between atoms: N_11  and  C_12
REMARK   10  A    between atoms: C_12  and  C_13
REMARK                            x       y       z     vdW  Elec       q    Type
REMARK                         _______ _______ _______ _____ _____    ______ ____
ROOT
ATOM      1  N   UNL     1      48.275   6.142  16.231  0.00  0.00    +0.000 NA
ATOM      2  H   UNL     1      48.905   6.712  16.794  0.00  0.00    +0.000 HD
ENDROOT
BRANCH   1   3
ATOM      3  C   UNL     1      48.357   4.770  16.746  0.00  0.00    +0.000 C 
BRANCH   3   4
ATOM      4  C   UNL     1      49.718   4.622  17.417  0.00  0.00    +0.000 A 
ATOM      5  C   UNL     1      50.355   5.617  18.151  0.00  0.00    +0.000 A 
ATOM      6  S   UNL     1      51.850   5.118  18.801  0.00  0.00    +0.000 S 
ATOM      7  C   UNL     1      51.689   3.564  18.135  0.00  0.00    +0.000 A 
ATOM      8  N   UNL     1      52.642   2.612  18.329  0.00  0.00    +0.000 NA
ATOM      9  C   UNL     1      52.368   1.477  17.783  0.00  0.00    +0.000 A 
ATOM     10  N   UNL     1      51.240   1.203  17.045  0.00  0.00    +0.000 N 
ATOM     11  C   UNL     1      50.239   2.127  16.835  0.00  0.00    +0.000 A 
ATOM     12  O   UNL     1      49.224   1.848  16.209  0.00  0.00    +0.000 OA
ATOM     13  C   UNL     1      50.505   3.425  17.427  0.00  0.00    +0.000 A 
ATOM     14  H   UNL     1      51.092   0.288  16.645  0.00  0.00    +0.000 HD
ENDBRANCH   3   4
BRANCH   3  15
ATOM     15  C   UNL     1      47.203   4.388  17.725  0.00  0.00    +0.000 C 
BRANCH  15  16
ATOM     16  N   UNL     1      46.671   3.031  17.540  0.00  0.00    +0.000 NA
ATOM     17  H   UNL     1      45.892   3.047  16.887  0.00  0.00    +0.000 HD
ATOM     18  H   UNL     1      46.327   2.686  18.436  0.00  0.00    +0.000 HD
ENDBRANCH  15  16
ENDBRANCH   3  15
ENDBRANCH   1   3
BRANCH   1  19
ATOM     19  C   UNL     1      48.663   6.263  14.833  0.00  0.00    +0.000 C 
BRANCH  19  20
ATOM     20  C   UNL     1      47.486   5.950  13.948  0.00  0.00    +0.000 A 
ATOM     21  C   UNL     1      47.057   4.625  13.799  0.00  0.00    +0.000 A 
ATOM     22  C   UNL     1      45.961   4.323  12.998  0.00  0.00    +0.000 A 
ATOM     23  C   UNL     1      45.257   5.349  12.354  0.00  0.00    +0.000 A 
ATOM     24  C   UNL     1      45.695   6.673  12.491  0.00  0.00    +0.000 A 
ATOM     25  C   UNL     1      46.805   6.972  13.276  0.00  0.00    +0.000 A 
BRANCH  23  26
ATOM     26  C   UNL     1      44.037   5.039  11.526  0.00  0.00    +0.000 C 
BRANCH  26  27
ATOM     27  N   UNL     1      44.244   5.454  10.143  0.00  0.00    +0.000 NA
ATOM     28  H   UNL     1      44.482   6.446  10.129  0.00  0.00    +0.000 HD
BRANCH  27  29
ATOM     29  C   UNL     1      45.327   4.693   9.515  0.00  0.00    +0.000 C 
BRANCH  29  30
ATOM     30  C   UNL     1      44.760   3.888   8.319  0.00  0.00    +0.000 C 
ATOM     31  C   UNL     1      45.831   3.492   7.322  0.00  0.00    +0.000 C 
ATOM     32  C   UNL     1      46.457   2.269   7.963  0.00  0.00    +0.000 C 
ATOM     33  C   UNL     1      45.320   1.633   8.756  0.00  0.00    +0.000 C 
ATOM     34  N   UNL     1      44.207   2.586   8.732  0.00  0.00    +0.000 NA
ATOM     35  H   UNL     1      43.797   2.690   9.665  0.00  0.00    +0.000 HD
ENDBRANCH  29  30
ENDBRANCH  27  29
ENDBRANCH  26  27
ENDBRANCH  23  26
ENDBRANCH  19  20
ENDBRANCH   1  19
TORSDOF 10
ENDMDL
MODEL 2
REMARK VINA RESULT:    -7.583      1.491      1.937
REMARK INTER + INTRA:         -12.709
REMARK INTER:                 -11.424
REMARK INTRA:                  -1.285
REMARK UNBOUND:                -0.914
REMARK  Name = 
REMARK  10 active torsions:
REMARK  status: ('A' for Active; 'I' for Inactive)
REMARK    1  A    between atoms: N_1  and  C_2
REMARK    2  A    between atoms: C_2  and  C_3
REMARK    3  A    between atoms: C_3  and  N_4
REMARK    4  A    between atoms: C_3  and  C_20
REMARK    5  A    between atoms: N_4  and  C_5
REMARK    6  A    between atoms: C_5  and  C_6
REMARK    7  A    between atoms: C_9  and  C_10
REMARK    8  A    between atoms: C_10  and  N_11
REMARK    9  A    between atoms: N_11  and  C_12
REMARK   10  A    between atoms: C_12  and  C_13
REMARK                            x       y       z     vdW  Elec       q    Type
REMARK                         _______ _______ _______ _____ _____    ______ ____
ROOT
ATOM      1  N   UNL     1      48.702   6.332  16.689  0.00  0.00    +0.000 NA
ATOM      2  H   UNL     1      49.242   6.784  17.425  0.00  0.00    +0.000 HD
ENDROOT
BRANCH   1   3
ATOM      3  C   UNL     1      48.690   4.894  16.985  0.00  0.00    +0.000 C 
BRANCH   3   4
ATOM      4  C   UNL     1      50.038   4.551  17.610  0.00  0.00    +0.000 A 
ATOM      5  C   UNL     1      50.786   5.412  18.407  0.00  0.00    +0.000 A 
ATOM      6  S   UNL     1      52.230   4.709  18.980  0.00  0.00    +0.000 S 
ATOM      7  C   UNL     1      51.897   3.240  18.196  0.00  0.00    +0.000 A 
ATOM      8  N   UNL     1      52.748   2.181  18.291  0.00  0.00    +0.000 NA
ATOM      9  C   UNL     1      52.348   1.130  17.662  0.00  0.00    +0.000 A 
ATOM     10  N   UNL     1      51.187   1.035  16.930  0.00  0.00    +0.000 N 
ATOM     11  C   UNL     1      50.285   2.072  16.818  0.00  0.00    +0.000 A 
ATOM     12  O   UNL     1      49.238   1.952  16.196  0.00  0.00    +0.000 OA
ATOM     13  C   UNL     1      50.695   3.283  17.506  0.00  0.00    +0.000 A 
ATOM     14  H   UNL     1      50.938   0.177  16.462  0.00  0.00    +0.000 HD
ENDBRANCH   3   4
BRANCH   3  15
ATOM     15  C   UNL     1      47.513   4.444  17.905  0.00  0.00    +0.000 C 
BRANCH  15  16
ATOM     16  N   UNL     1      46.753   3.291  17.402  0.00  0.00    +0.000 NA
ATOM     17  H   UNL     1      47.057   3.055  16.462  0.00  0.00    +0.000 HD
ATOM     18  H   UNL     1      45.764   3.539  17.363  0.00  0.00    +0.000 HD
ENDBRANCH  15  16
ENDBRANCH   3  15
ENDBRANCH   1   3
BRANCH   1  19
ATOM     19  C   UNL     1      49.305   6.657  15.404  0.00  0.00    +0.000 C 
BRANCH  19  20
ATOM     20  C   UNL     1      48.228   6.971  14.401  0.00  0.00    +0.000 A 
ATOM     21  C   UNL     1      47.732   5.959  13.569  0.00  0.00    +0.000 A 
ATOM     22  C   UNL     1      46.725   6.231  12.649  0.00  0.00    +0.000 A 
ATOM     23  C   UNL     1      46.177   7.517  12.567  0.00  0.00    +0.000 A 
ATOM     24  C   UNL     1      46.683   8.533  13.388  0.00  0.00    +0.000 A 
ATOM     25  C   UNL     1      47.705   8.265  14.294  0.00  0.00    +0.000 A 
BRANCH  23  26
ATOM     26  C   UNL     1      45.050   7.811  11.611  0.00  0.00    +0.000 C 
BRANCH  26  27
ATOM     27  N   UNL     1      44.763   6.640  10.790  0.00  0.00    +0.000 NA
ATOM     28  H   UNL     1      45.563   6.008  10.827  0.00  0.00    +0.000 HD
BRANCH  27  29
ATOM     29  C   UNL     1      43.572   5.933  11.268  0.00  0.00    +0.000 C 
BRANCH  29  30
ATOM     30  C   UNL     1      43.502   4.539  10.596  0.00  0.00    +0.000 C 
ATOM     31  C   UNL     1      44.861   3.875  10.490  0.00  0.00    +0.000 C 
ATOM     32  C   UNL     1      45.067   3.296  11.875  0.00  0.00    +0.000 C 
ATOM     33  C   UNL     1      43.658   2.980  12.367  0.00  0.00    +0.000 C 
ATOM     34  N   UNL     1      42.732   3.569  11.396  0.00  0.00    +0.000 NA
ATOM     35  H   UNL     1      41.978   4.072  11.873  0.00  0.00    +0.000 HD
ENDBRANCH  29  30
ENDBRANCH  27  29
ENDBRANCH  26  27
ENDBRANCH  23  26
ENDBRANCH  19  20
ENDBRANCH   1  19
TORSDOF 10
ENDMDL
MODEL 3
REMARK VINA RESULT:    -7.033      2.370      3.639
REMARK INTER + INTRA:         -11.854
REMARK INTER:                 -10.876
REMARK INTRA:                  -0.978
REMARK UNBOUND:                -0.914
REMARK  Name = 
REMARK  10 active torsions:
REMARK  status: ('A' for Active; 'I' for Inactive)
REMARK    1  A    between atoms: N_1  and  C_2
REMARK    2  A    between atoms: C_2  and  C_3
REMARK    3  A    between atoms: C_3  and  N_4
REMARK    4  A    between atoms: C_3  and  C_20
REMARK    5  A    between atoms: N_4  and  C_5
REMARK    6  A    between atoms: C_5  and  C_6
REMARK    7  A    between atoms: C_9  and  C_10
REMARK    8  A    between atoms: C_10  and  N_11
REMARK    9  A    between atoms: N_11  and  C_12
REMARK   10  A    between atoms: C_12  and  C_13
REMARK                            x       y       z     vdW  Elec       q    Type
REMARK                         _______ _______ _______ _____ _____    ______ ____
ROOT
ATOM      1  N   UNL     1      47.105   4.730  15.480  0.00  0.00    +0.000 NA
ATOM      2  H   UNL     1      46.480   5.338  16.008  0.00  0.00    +0.000 HD
ENDROOT
BRANCH   1   3
ATOM      3  C   UNL     1      48.250   4.429  16.348  0.00  0.00    +0.000 C 
BRANCH   3   4
ATOM      4  C   UNL     1      48.214   5.426  17.502  0.00  0.00    +0.000 A 
ATOM      5  C   UNL     1      47.383   5.326  18.613  0.00  0.00    +0.000 A 
ATOM      6  S   UNL     1      47.616   6.585  19.739  0.00  0.00    +0.000 S 
ATOM      7  C   UNL     1      48.835   7.290  18.789  0.00  0.00    +0.000 A 
ATOM      8  N   UNL     1      49.480   8.418  19.194  0.00  0.00    +0.000 NA
ATOM      9  C   UNL     1      50.394   8.820  18.379  0.00  0.00    +0.000 A 
ATOM     10  N   UNL     1      50.719   8.214  17.188  0.00  0.00    +0.000 N 
ATOM     11  C   UNL     1      50.108   7.060  16.743  0.00  0.00    +0.000 A 
ATOM     12  O   UNL     1      50.442   6.514  15.700  0.00  0.00    +0.000 OA
ATOM     13  C   UNL     1      49.064   6.572  17.626  0.00  0.00    +0.000 A 
ATOM     14  H   UNL     1      51.448   8.586  16.599  0.00  0.00    +0.000 HD
ENDBRANCH   3   4
BRANCH   3  15
ATOM     15  C   UNL     1      48.279   2.960  16.875  0.00  0.00    +0.000 C 
BRANCH  15  16
ATOM     16  N   UNL     1      48.858   1.988  15.938  0.00  0.00    +0.000 NA
ATOM     17  H   UNL     1      48.402   1.086  16.045  0.00  0.00    +0.000 HD
ATOM     18  H   UNL     1      49.848   1.871  16.151  0.00  0.00    +0.000 HD
ENDBRANCH  15  16
ENDBRANCH   3  15
ENDBRANCH   1   3
BRANCH   1  19
ATOM     19  C   UNL     1      47.474   5.403  14.243  0.00  0.00    +0.000 C 
BRANCH  19  20
ATOM     20  C   UNL     1      46.527   5.004  13.143  0.00  0.00    +0.000 A 
ATOM     21  C   UNL     1      46.253   5.897  12.099  0.00  0.00    +0.000 A 
ATOM     22  C   UNL     1      45.394   5.535  11.067  0.00  0.00    +0.000 A 
ATOM     23  C   UNL     1      44.814   4.260  11.050  0.00  0.00    +0.000 A 
ATOM     24  C   UNL     1      45.075   3.372  12.102  0.00  0.00    +0.000 A 
ATOM     25  C   UNL     1      45.920   3.743  13.145  0.00  0.00    +0.000 A 
BRANCH  23  26
ATOM     26  C   UNL     1      43.922   3.838   9.911  0.00  0.00    +0.000 C 
BRANCH  26  27
ATOM     27  N   UNL     1      44.620   2.898   9.042  0.00  0.00    +0.000 NA
ATOM     28  H   UNL     1      44.018   2.089   8.883  0.00  0.00    +0.000 HD
BRANCH  27  29
ATOM     29  C   UNL     1      44.951   3.508   7.753  0.00  0.00    +0.000 C 
BRANCH  29  30
ATOM     30  C   UNL     1      46.492   3.570   7.597  0.00  0.00    +0.000 C 
ATOM     31  C   UNL     1      47.137   2.199   7.641  0.00  0.00    +0.000 C 
ATOM     32  C   UNL     1      46.927   1.679   6.232  0.00  0.00    +0.000 C 
ATOM     33  C   UNL     1      46.925   2.933   5.362  0.00  0.00    +0.000 C 
ATOM     34  N   UNL     1      46.902   4.078   6.277  0.00  0.00    +0.000 NA
ATOM     35  H   UNL     1      46.215   4.773   5.970  0.00  0.00    +0.000 HD
ENDBRANCH  29  30
ENDBRANCH  27  29
ENDBRANCH  26  27
ENDBRANCH  23  26
ENDBRANCH  19  20
ENDBRANCH   1  19
TORSDOF 10
ENDMDL
MODEL 4
REMARK VINA RESULT:    -6.870      2.827      4.005
REMARK INTER + INTRA:         -11.599
REMARK INTER:                 -10.524
REMARK INTRA:                  -1.075
REMARK UNBOUND:                -0.914
REMARK  Name = 
REMARK  10 active torsions:
REMARK  status: ('A' for Active; 'I' for Inactive)
REMARK    1  A    between atoms: N_1  and  C_2
REMARK    2  A    between atoms: C_2  and  C_3
REMARK    3  A    between atoms: C_3  and  N_4
REMARK    4  A    between atoms: C_3  and  C_20
REMARK    5  A    between atoms: N_4  and  C_5
REMARK    6  A    between atoms: C_5  and  C_6
REMARK    7  A    between atoms: C_9  and  C_10
REMARK    8  A    between atoms: C_10  and  N_11
REMARK    9  A    between atoms: N_11  and  C_12
REMARK   10  A    between atoms: C_12  and  C_13
REMARK                            x       y       z     vdW  Elec       q    Type
REMARK                         _______ _______ _______ _____ _____    ______ ____
ROOT
ATOM      1  N   UNL     1      48.332   6.076  14.545  0.00  0.00    +0.000 NA
ATOM      2  H   UNL     1      47.673   5.393  14.915  0.00  0.00    +0.000 HD
ENDROOT
BRANCH   1   3
ATOM      3  C   UNL     1      48.924   6.771  15.695  0.00  0.00    +0.000 C 
BRANCH   3   4
ATOM      4  C   UNL     1      48.670   5.905  16.924  0.00  0.00    +0.000 A 
ATOM      5  C   UNL     1      48.819   4.523  16.967  0.00  0.00    +0.000 A 
ATOM      6  S   UNL     1      48.492   3.861  18.504  0.00  0.00    +0.000 S 
ATOM      7  C   UNL     1      48.154   5.391  19.157  0.00  0.00    +0.000 A 
ATOM      8  N   UNL     1      47.810   5.539  20.466  0.00  0.00    +0.000 NA
ATOM      9  C   UNL     1      47.607   6.761  20.820  0.00  0.00    +0.000 A 
ATOM     10  N   UNL     1      47.697   7.854  19.990  0.00  0.00    +0.000 N 
ATOM     11  C   UNL     1      48.058   7.759  18.663  0.00  0.00    +0.000 A 
ATOM     12  O   UNL     1      48.172   8.750  17.952  0.00  0.00    +0.000 OA
ATOM     13  C   UNL     1      48.292   6.398  18.214  0.00  0.00    +0.000 A 
ATOM     14  H   UNL     1      47.523   8.785  20.337  0.00  0.00    +0.000 HD
ENDBRANCH   3   4
BRANCH   3  15
ATOM     15  C   UNL     1      50.444   7.086  15.533  0.00  0.00    +0.000 C 
BRANCH  15  16
ATOM     16  N   UNL     1      51.032   7.839  16.649  0.00  0.00    +0.000 NA
ATOM     17  H   UNL     1      51.820   8.391  16.321  0.00  0.00    +0.000 HD
ATOM     18  H   UNL     1      51.375   7.181  17.348  0.00  0.00    +0.000 HD
ENDBRANCH  15  16
ENDBRANCH   3  15
ENDBRANCH   1   3
BRANCH   1  19
ATOM     19  C   UNL     1      47.621   6.961  13.633  0.00  0.00    +0.000 C 
BRANCH  19  20
ATOM     20  C   UNL     1      46.702   6.155  12.753  0.00  0.00    +0.000 A 
ATOM     21  C   UNL     1      46.457   6.567  11.437  0.00  0.00    +0.000 A 
ATOM     22  C   UNL     1      45.625   5.823  10.608  0.00  0.00    +0.000 A 
ATOM     23  C   UNL     1      45.045   4.637  11.076  0.00  0.00    +0.000 A 
ATOM     24  C   UNL     1      45.278   4.233  12.397  0.00  0.00    +0.000 A 
ATOM     25  C   UNL     1      46.095   4.989  13.233  0.00  0.00    +0.000 A 
BRANCH  23  26
ATOM     26  C   UNL     1      44.183   3.796  10.170  0.00  0.00    +0.000 C 
BRANCH  26  27
ATOM     27  N   UNL     1      44.254   4.290   8.799  0.00  0.00    +0.000 NA
ATOM     28  H   UNL     1      44.873   5.100   8.774  0.00  0.00    +0.000 HD
BRANCH  27  29
ATOM     29  C   UNL     1      44.769   3.265   7.889  0.00  0.00    +0.000 C 
BRANCH  29  30
ATOM     30  C   UNL     1      46.315   3.361   7.833  0.00  0.00    +0.000 C 
ATOM     31  C   UNL     1      46.975   2.012   7.628  0.00  0.00    +0.000 C 
ATOM     32  C   UNL     1      46.847   1.794   6.133  0.00  0.00    +0.000 C 
ATOM     33  C   UNL     1      46.873   3.200   5.541  0.00  0.00    +0.000 C 
ATOM     34  N   UNL     1      46.787   4.132   6.669  0.00  0.00    +0.000 NA
ATOM     35  H   UNL     1      46.107   4.873   6.476  0.00  0.00    +0.000 HD
ENDBRANCH  29  30
ENDBRANCH  27  29
ENDBRANCH  26  27
ENDBRANCH  23  26
ENDBRANCH  19  20
ENDBRANCH   1  19
TORSDOF 10
ENDMDL
MODEL 5
REMARK VINA RESULT:    -6.734      3.516      8.292
REMARK INTER + INTRA:         -11.388
REMARK INTER:                  -9.867
REMARK INTRA:                  -1.521
REMARK UNBOUND:                -0.914
REMARK  Name = 
REMARK  10 active torsions:
REMARK  status: ('A' for Active; 'I' for Inactive)
REMARK    1  A    between atoms: N_1  and  C_2
REMARK    2  A    between atoms: C_2  and  C_3
REMARK    3  A    between atoms: C_3  and  N_4
REMARK    4  A    between atoms: C_3  and  C_20
REMARK    5  A    between atoms: N_4  and  C_5
REMARK    6  A    between atoms: C_5  and  C_6
REMARK    7  A    between atoms: C_9  and  C_10
REMARK    8  A    between atoms: C_10  and  N_11
REMARK    9  A    between atoms: N_11  and  C_12
REMARK   10  A    between atoms: C_12  and  C_13
REMARK                            x       y       z     vdW  Elec       q    Type
REMARK                         _______ _______ _______ _____ _____    ______ ____
ROOT
ATOM      1  N   UNL     1      47.152   7.033  11.783  0.00  0.00    +0.000 NA
ATOM      2  H   UNL     1      47.705   6.621  11.033  0.00  0.00    +0.000 HD
ENDROOT
BRANCH   1   3
ATOM      3  C   UNL     1      45.785   7.195  11.273  0.00  0.00    +0.000 C 
BRANCH   3   4
ATOM      4  C   UNL     1      45.034   5.904  11.579  0.00  0.00    +0.000 A 
ATOM      5  C   UNL     1      44.327   5.654  12.750  0.00  0.00    +0.000 A 
ATOM      6  S   UNL     1      43.569   4.127  12.763  0.00  0.00    +0.000 S 
ATOM      7  C   UNL     1      44.149   3.759  11.210  0.00  0.00    +0.000 A 
ATOM      8  N   UNL     1      43.847   2.577  10.606  0.00  0.00    +0.000 NA
ATOM      9  C   UNL     1      44.339   2.453   9.422  0.00  0.00    +0.000 A 
ATOM     10  N   UNL     1      45.119   3.389   8.784  0.00  0.00    +0.000 N 
ATOM     11  C   UNL     1      45.438   4.607   9.345  0.00  0.00    +0.000 A 
ATOM     12  O   UNL     1      46.100   5.442   8.742  0.00  0.00    +0.000 OA
ATOM     13  C   UNL     1      44.911   4.792  10.685  0.00  0.00    +0.000 A 
ATOM     14  H   UNL     1      45.472   3.223   7.853  0.00  0.00    +0.000 HD
ENDBRANCH   3   4
BRANCH   3  15
ATOM     15  C   UNL     1      45.034   8.434  11.852  0.00  0.00    +0.000 C 
BRANCH  15  16
ATOM     16  N   UNL     1      43.891   8.885  11.047  0.00  0.00    +0.000 NA
ATOM     17  H   UNL     1      44.207   9.505  10.307  0.00  0.00    +0.000 HD
ATOM     18  H   UNL     1      43.249   9.405  11.645  0.00  0.00    +0.000 HD
ENDBRANCH  15  16
ENDBRANCH   3  15
ENDBRANCH   1   3
BRANCH   1  19
ATOM     19  C   UNL     1      47.776   8.286  12.186  0.00  0.00    +0.000 C 
BRANCH  19  20
ATOM     20  C   UNL     1      48.378   8.138  13.557  0.00  0.00    +0.000 A 
ATOM     21  C   UNL     1      47.786   8.778  14.653  0.00  0.00    +0.000 A 
ATOM     22  C   UNL     1      48.322   8.636  15.928  0.00  0.00    +0.000 A 
ATOM     23  C   UNL     1      49.447   7.826  16.132  0.00  0.00    +0.000 A 
ATOM     24  C   UNL     1      50.048   7.197  15.034  0.00  0.00    +0.000 A 
ATOM     25  C   UNL     1      49.523   7.356  13.754  0.00  0.00    +0.000 A 
BRANCH  23  26
ATOM     26  C   UNL     1      50.005   7.623  17.516  0.00  0.00    +0.000 C 
BRANCH  26  27
ATOM     27  N   UNL     1      49.028   6.951  18.365  0.00  0.00    +0.000 NA
ATOM     28  H   UNL     1      48.110   7.368  18.203  0.00  0.00    +0.000 HD
BRANCH  27  29
ATOM     29  C   UNL     1      48.960   5.518  18.069  0.00  0.00    +0.000 C 
BRANCH  29  30
ATOM     30  C   UNL     1      47.566   5.183  17.481  0.00  0.00    +0.000 C 
ATOM     31  C   UNL     1      47.647   4.612  16.079  0.00  0.00    +0.000 C 
ATOM     32  C   UNL     1      47.992   3.156  16.323  0.00  0.00    +0.000 C 
ATOM     33  C   UNL     1      47.352   2.836  17.670  0.00  0.00    +0.000 C 
ATOM     34  N   UNL     1      46.887   4.109  18.227  0.00  0.00    +0.000 NA
ATOM     35  H   UNL     1      47.145   4.189  19.215  0.00  0.00    +0.000 HD
ENDBRANCH  29  30
ENDBRANCH  27  29
ENDBRANCH  26  27
ENDBRANCH  23  26
ENDBRANCH  19  20
ENDBRANCH   1  19
TORSDOF 10
ENDMDL
MODEL 6
REMARK VINA RESULT:    -6.686      2.099      2.817
REMARK INTER + INTRA:         -11.313
REMARK INTER:                 -10.468
REMARK INTRA:                  -0.845
REMARK UNBOUND:                -0.914
REMARK  Name = 
REMARK  10 active torsions:
REMARK  status: ('A' for Active; 'I' for Inactive)
REMARK    1  A    between atoms: N_1  and  C_2
REMARK    2  A    between atoms: C_2  and  C_3
REMARK    3  A    between atoms: C_3  and  N_4
REMARK    4  A    between atoms: C_3  and  C_20
REMARK    5  A    between atoms: N_4  and  C_5
REMARK    6  A    between atoms: C_5  and  C_6
REMARK    7  A    between atoms: C_9  and  C_10
REMARK    8  A    between atoms: C_10  and  N_11
REMARK    9  A    between atoms: N_11  and  C_12
REMARK   10  A    between atoms: C_12  and  C_13
REMARK                            x       y       z     vdW  Elec       q    Type
REMARK                         _______ _______ _______ _____ _____    ______ ____
ROOT
ATOM      1  N   UNL     1      48.364   6.322  14.238  0.00  0.00    +0.000 NA
ATOM      2  H   UNL     1      49.233   5.875  13.952  0.00  0.00    +0.000 HD
ENDROOT
BRANCH   1   3
ATOM      3  C   UNL     1      48.669   7.148  15.413  0.00  0.00    +0.000 C 
BRANCH   3   4
ATOM      4  C   UNL     1      50.125   6.885  15.783  0.00  0.00    +0.000 A 
ATOM      5  C   UNL     1      51.216   7.550  15.234  0.00  0.00    +0.000 A 
ATOM      6  S   UNL     1      52.707   7.046  15.890  0.00  0.00    +0.000 S 
ATOM      7  C   UNL     1      51.945   5.938  16.927  0.00  0.00    +0.000 A 
ATOM      8  N   UNL     1      52.664   5.169  17.790  0.00  0.00    +0.000 NA
ATOM      9  C   UNL     1      51.945   4.396  18.527  0.00  0.00    +0.000 A 
ATOM     10  N   UNL     1      50.574   4.300  18.478  0.00  0.00    +0.000 N 
ATOM     11  C   UNL     1      49.799   5.069  17.635  0.00  0.00    +0.000 A 
ATOM     12  O   UNL     1      48.577   4.998  17.638  0.00  0.00    +0.000 OA
ATOM     13  C   UNL     1      50.566   5.954  16.778  0.00  0.00    +0.000 A 
ATOM     14  H   UNL     1      50.075   3.669  19.087  0.00  0.00    +0.000 HD
ENDBRANCH   3   4
BRANCH   3  15
ATOM     15  C   UNL     1      48.407   8.672  15.205  0.00  0.00    +0.000 C 
BRANCH  15  16
ATOM     16  N   UNL     1      47.117   8.989  14.580  0.00  0.00    +0.000 NA
ATOM     17  H   UNL     1      46.387   8.396  14.965  0.00  0.00    +0.000 HD
ATOM     18  H   UNL     1      47.180   8.805  13.578  0.00  0.00    +0.000 HD
ENDBRANCH  15  16
ENDBRANCH   3  15
ENDBRANCH   1   3
BRANCH   1  19
ATOM     19  C   UNL     1      47.372   5.288  14.495  0.00  0.00    +0.000 C 
BRANCH  19  20
ATOM     20  C   UNL     1      46.588   5.010  13.239  0.00  0.00    +0.000 A 
ATOM     21  C   UNL     1      46.026   3.744  13.033  0.00  0.00    +0.000 A 
ATOM     22  C   UNL     1      45.286   3.479  11.886  0.00  0.00    +0.000 A 
ATOM     23  C   UNL     1      45.073   4.487  10.938  0.00  0.00    +0.000 A 
ATOM     24  C   UNL     1      45.647   5.750  11.137  0.00  0.00    +0.000 A 
ATOM     25  C   UNL     1      46.405   6.008  12.275  0.00  0.00    +0.000 A 
BRANCH  23  26
ATOM     26  C   UNL     1      44.229   4.227   9.717  0.00  0.00    +0.000 C 
BRANCH  26  27
ATOM     27  N   UNL     1      44.876   4.769   8.528  0.00  0.00    +0.000 NA
ATOM     28  H   UNL     1      45.127   5.742   8.705  0.00  0.00    +0.000 HD
BRANCH  27  29
ATOM     29  C   UNL     1      46.087   4.016   8.190  0.00  0.00    +0.000 C 
BRANCH  29  30
ATOM     30  C   UNL     1      45.728   2.900   7.177  0.00  0.00    +0.000 C 
ATOM     31  C   UNL     1      46.568   2.964   5.917  0.00  0.00    +0.000 C 
ATOM     32  C   UNL     1      47.860   2.292   6.334  0.00  0.00    +0.000 C 
ATOM     33  C   UNL     1      47.437   1.280   7.394  0.00  0.00    +0.000 C 
ATOM     34  N   UNL     1      46.029   1.554   7.696  0.00  0.00    +0.000 NA
ATOM     35  H   UNL     1      45.869   1.555   8.708  0.00  0.00    +0.000 HD
ENDBRANCH  29  30
ENDBRANCH  27  29
ENDBRANCH  26  27
ENDBRANCH  23  26
ENDBRANCH  19  20
ENDBRANCH   1  19
TORSDOF 10
ENDMDL
MODEL 7
REMARK VINA RESULT:    -6.621      2.709      3.627
REMARK INTER + INTRA:         -11.212
REMARK INTER:                  -9.387
REMARK INTRA:                  -1.825
REMARK UNBOUND:                -0.914
REMARK  Name = 
REMARK  10 active torsions:
REMARK  status: ('A' for Active; 'I' for Inactive)
REMARK    1  A    between atoms: N_1  and  C_2
REMARK    2  A    between atoms: C_2  and  C_3
REMARK    3  A    between atoms: C_3  and  N_4
REMARK    4  A    between atoms: C_3  and  C_20
REMARK    5  A    between atoms: N_4  and  C_5
REMARK    6  A    between atoms: C_5  and  C_6
REMARK    7  A    between atoms: C_9  and  C_10
REMARK    8  A    between atoms: C_10  and  N_11
REMARK    9  A    between atoms: N_11  and  C_12
REMARK   10  A    between atoms: C_12  and  C_13
REMARK                            x       y       z     vdW  Elec       q    Type
REMARK                         _______ _______ _______ _____ _____    ______ ____
ROOT
ATOM      1  N   UNL     1      50.129   7.024  14.738  0.00  0.00    +0.000 NA
ATOM      2  H   UNL     1      49.754   6.116  14.468  0.00  0.00    +0.000 HD
ENDROOT
BRANCH   1   3
ATOM      3  C   UNL     1      49.411   7.446  15.947  0.00  0.00    +0.000 C 
BRANCH   3   4
ATOM      4  C   UNL     1      49.526   6.310  16.958  0.00  0.00    +0.000 A 
ATOM      5  C   UNL     1      50.384   6.304  18.052  0.00  0.00    +0.000 A 
ATOM      6  S   UNL     1      50.241   4.900  19.009  0.00  0.00    +0.000 S 
ATOM      7  C   UNL     1      49.028   4.266  18.003  0.00  0.00    +0.000 A 
ATOM      8  N   UNL     1      48.446   3.065  18.270  0.00  0.00    +0.000 NA
ATOM      9  C   UNL     1      47.527   2.730  17.432  0.00  0.00    +0.000 A 
ATOM     10  N   UNL     1      47.140   3.469  16.339  0.00  0.00    +0.000 N 
ATOM     11  C   UNL     1      47.685   4.699  16.036  0.00  0.00    +0.000 A 
ATOM     12  O   UNL     1      47.296   5.359  15.081  0.00  0.00    +0.000 OA
ATOM     13  C   UNL     1      48.732   5.118  16.950  0.00  0.00    +0.000 A 
ATOM     14  H   UNL     1      46.411   3.143  15.723  0.00  0.00    +0.000 HD
ENDBRANCH   3   4
BRANCH   3  15
ATOM     15  C   UNL     1      49.921   8.791  16.552  0.00  0.00    +0.000 C 
BRANCH  15  16
ATOM     16  N   UNL     1      48.867   9.646  17.112  0.00  0.00    +0.000 NA
ATOM     17  H   UNL     1      48.939   9.671  18.126  0.00  0.00    +0.000 HD
ATOM     18  H   UNL     1      47.957   9.253  16.868  0.00  0.00    +0.000 HD
ENDBRANCH  15  16
ENDBRANCH   3  15
ENDBRANCH   1   3
BRANCH   1  19
ATOM     19  C   UNL     1      49.973   7.942  13.618  0.00  0.00    +0.000 C 
BRANCH  19  20
ATOM     20  C   UNL     1      48.585   7.821  13.049  0.00  0.00    +0.000 A 
ATOM     21  C   UNL     1      48.302   6.830  12.101  0.00  0.00    +0.000 A 
ATOM     22  C   UNL     1      47.019   6.697  11.581  0.00  0.00    +0.000 A 
ATOM     23  C   UNL     1      45.990   7.538  12.022  0.00  0.00    +0.000 A 
ATOM     24  C   UNL     1      46.276   8.539  12.960  0.00  0.00    +0.000 A 
ATOM     25  C   UNL     1      47.565   8.686  13.465  0.00  0.00    +0.000 A 
BRANCH  23  26
ATOM     26  C   UNL     1      44.585   7.369  11.504  0.00  0.00    +0.000 C 
BRANCH  26  27
ATOM     27  N   UNL     1      43.777   6.625  12.462  0.00  0.00    +0.000 NA
ATOM     28  H   UNL     1      43.062   7.247  12.842  0.00  0.00    +0.000 HD
BRANCH  27  29
ATOM     29  C   UNL     1      43.124   5.476  11.831  0.00  0.00    +0.000 C 
BRANCH  29  30
ATOM     30  C   UNL     1      43.335   4.220  12.713  0.00  0.00    +0.000 C 
ATOM     31  C   UNL     1      43.419   2.944  11.900  0.00  0.00    +0.000 C 
ATOM     32  C   UNL     1      44.852   2.947  11.407  0.00  0.00    +0.000 C 
ATOM     33  C   UNL     1      45.626   3.678  12.500  0.00  0.00    +0.000 C 
ATOM     34  N   UNL     1      44.630   4.239  13.416  0.00  0.00    +0.000 NA
ATOM     35  H   UNL     1      44.857   5.211  13.648  0.00  0.00    +0.000 HD
ENDBRANCH  29  30
ENDBRANCH  27  29
ENDBRANCH  26  27
ENDBRANCH  23  26
ENDBRANCH  19  20
ENDBRANCH   1  19
TORSDOF 10
ENDMDL
MODEL 8
REMARK VINA RESULT:    -6.618      3.053      8.944
REMARK INTER + INTRA:         -11.207
REMARK INTER:                  -9.980
REMARK INTRA:                  -1.227
REMARK UNBOUND:                -0.914
REMARK  Name = 
REMARK  10 active torsions:
REMARK  status: ('A' for Active; 'I' for Inactive)
REMARK    1  A    between atoms: N_1  and  C_2
REMARK    2  A    between atoms: C_2  and  C_3
REMARK    3  A    between atoms: C_3  and  N_4
REMARK    4  A    between atoms: C_3  and  C_20
REMARK    5  A    between atoms: N_4  and  C_5
REMARK    6  A    between atoms: C_5  and  C_6
REMARK    7  A    between atoms: C_9  and  C_10
REMARK    8  A    between atoms: C_10  and  N_11
REMARK    9  A    between atoms: N_11  and  C_12
REMARK   10  A    between atoms: C_12  and  C_13
REMARK                            x       y       z     vdW  Elec       q    Type
REMARK                         _______ _______ _______ _____ _____    ______ ____
ROOT
ATOM      1  N   UNL     1      46.819   6.410  11.386  0.00  0.00    +0.000 NA
ATOM      2  H   UNL     1      47.395   6.649  10.581  0.00  0.00    +0.000 HD
ENDROOT
BRANCH   1   3
ATOM      3  C   UNL     1      45.418   6.550  10.971  0.00  0.00    +0.000 C 
BRANCH   3   4
ATOM      4  C   UNL     1      44.790   5.161  11.030  0.00  0.00    +0.000 A 
ATOM      5  C   UNL     1      43.968   4.704  12.054  0.00  0.00    +0.000 A 
ATOM      6  S   UNL     1      43.400   3.116  11.800  0.00  0.00    +0.000 S 
ATOM      7  C   UNL     1      44.220   2.996  10.318  0.00  0.00    +0.000 A 
ATOM      8  N   UNL     1      44.142   1.870   9.558  0.00  0.00    +0.000 NA
ATOM      9  C   UNL     1      44.798   1.938   8.450  0.00  0.00    +0.000 A 
ATOM     10  N   UNL     1      45.541   3.017   8.032  0.00  0.00    +0.000 N 
ATOM     11  C   UNL     1      45.637   4.187   8.756  0.00  0.00    +0.000 A 
ATOM     12  O   UNL     1      46.269   5.151   8.345  0.00  0.00    +0.000 OA
ATOM     13  C   UNL     1      44.918   4.157  10.017  0.00  0.00    +0.000 A 
ATOM     14  H   UNL     1      46.031   3.000   7.150  0.00  0.00    +0.000 HD
ENDBRANCH   3   4
BRANCH   3  15
ATOM     15  C   UNL     1      44.602   7.573  11.821  0.00  0.00    +0.000 C 
BRANCH  15  16
ATOM     16  N   UNL     1      43.786   8.507  11.033  0.00  0.00    +0.000 NA
ATOM     17  H   UNL     1      44.160   8.589  10.092  0.00  0.00    +0.000 HD
ATOM     18  H   UNL     1      43.821   9.427  11.471  0.00  0.00    +0.000 HD
ENDBRANCH  15  16
ENDBRANCH   3  15
ENDBRANCH   1   3
BRANCH   1  19
ATOM     19  C   UNL     1      47.186   7.279  12.495  0.00  0.00    +0.000 C 
BRANCH  19  20
ATOM     20  C   UNL     1      47.475   6.449  13.718  0.00  0.00    +0.000 A 
ATOM     21  C   UNL     1      48.352   6.933  14.698  0.00  0.00    +0.000 A 
ATOM     22  C   UNL     1      48.614   6.185  15.841  0.00  0.00    +0.000 A 
ATOM     23  C   UNL     1      47.981   4.950  16.034  0.00  0.00    +0.000 A 
ATOM     24  C   UNL     1      47.116   4.460  15.047  0.00  0.00    +0.000 A 
ATOM     25  C   UNL     1      46.870   5.200  13.894  0.00  0.00    +0.000 A 
BRANCH  23  26
ATOM     26  C   UNL     1      48.218   4.155  17.292  0.00  0.00    +0.000 C 
BRANCH  26  27
ATOM     27  N   UNL     1      48.774   5.010  18.335  0.00  0.00    +0.000 NA
ATOM     28  H   UNL     1      48.074   5.133  19.067  0.00  0.00    +0.000 HD
BRANCH  27  29
ATOM     29  C   UNL     1      49.980   4.420  18.921  0.00  0.00    +0.000 C 
BRANCH  29  30
ATOM     30  C   UNL     1      50.914   3.931  17.785  0.00  0.00    +0.000 C 
ATOM     31  C   UNL     1      51.951   4.967  17.399  0.00  0.00    +0.000 C 
ATOM     32  C   UNL     1      53.015   4.798  18.466  0.00  0.00    +0.000 C 
ATOM     33  C   UNL     1      52.935   3.324  18.850  0.00  0.00    +0.000 C 
ATOM     34  N   UNL     1      51.742   2.783  18.195  0.00  0.00    +0.000 NA
ATOM     35  H   UNL     1      51.198   2.210  18.847  0.00  0.00    +0.000 HD
ENDBRANCH  29  30
ENDBRANCH  27  29
ENDBRANCH  26  27
ENDBRANCH  23  26
ENDBRANCH  19  20
ENDBRANCH   1  19
TORSDOF 10
ENDMDL
MODEL 9
REMARK VINA RESULT:    -6.446      2.733      3.907
REMARK INTER + INTRA:         -10.940
REMARK INTER:                  -9.631
REMARK INTRA:                  -1.308
REMARK UNBOUND:                -0.914
REMARK  Name = 
REMARK  10 active torsions:
REMARK  status: ('A' for Active; 'I' for Inactive)
REMARK    1  A    between atoms: N_1  and  C_2
REMARK    2  A    between atoms: C_2  and  C_3
REMARK    3  A    between atoms: C_3  and  N_4
REMARK    4  A    between atoms: C_3  and  C_20
REMARK    5  A    between atoms: N_4  and  C_5
REMARK    6  A    between atoms: C_5  and  C_6
REMARK    7  A    between atoms: C_9  and  C_10
REMARK    8  A    between atoms: C_10  and  N_11
REMARK    9  A    between atoms: N_11  and  C_12
REMARK   10  A    between atoms: C_12  and  C_13
REMARK                            x       y       z     vdW  Elec       q    Type
REMARK                         _______ _______ _______ _____ _____    ______ ____
ROOT
ATOM      1  N   UNL     1      50.118   6.968  14.315  0.00  0.00    +0.000 NA
ATOM      2  H   UNL     1      49.702   6.070  14.558  0.00  0.00    +0.000 HD
ENDROOT
BRANCH   1   3
ATOM      3  C   UNL     1      50.676   7.534  15.549  0.00  0.00    +0.000 C 
BRANCH   3   4
ATOM      4  C   UNL     1      50.332   6.572  16.681  0.00  0.00    +0.000 A 
ATOM      5  C   UNL     1      51.049   5.421  16.992  0.00  0.00    +0.000 A 
ATOM      6  S   UNL     1      50.423   4.585  18.340  0.00  0.00    +0.000 S 
ATOM      7  C   UNL     1      49.190   5.733  18.555  0.00  0.00    +0.000 A 
ATOM      8  N   UNL     1      48.288   5.617  19.567  0.00  0.00    +0.000 NA
ATOM      9  C   UNL     1      47.428   6.577  19.615  0.00  0.00    +0.000 A 
ATOM     10  N   UNL     1      47.369   7.635  18.740  0.00  0.00    +0.000 N 
ATOM     11  C   UNL     1      48.270   7.807  17.709  0.00  0.00    +0.000 A 
ATOM     12  O   UNL     1      48.224   8.779  16.967  0.00  0.00    +0.000 OA
ATOM     13  C   UNL     1      49.256   6.746  17.610  0.00  0.00    +0.000 A 
ATOM     14  H   UNL     1      46.666   8.352  18.838  0.00  0.00    +0.000 HD
ENDBRANCH   3   4
BRANCH   3  15
ATOM     15  C   UNL     1      52.212   7.803  15.487  0.00  0.00    +0.000 C 
BRANCH  15  16
ATOM     16  N   UNL     1      52.796   7.698  14.143  0.00  0.00    +0.000 NA
ATOM     17  H   UNL     1      53.808   7.629  14.206  0.00  0.00    +0.000 HD
ATOM     18  H   UNL     1      52.568   8.542  13.616  0.00  0.00    +0.000 HD
ENDBRANCH  15  16
ENDBRANCH   3  15
ENDBRANCH   1   3
BRANCH   1  19
ATOM     19  C   UNL     1      49.096   7.803  13.702  0.00  0.00    +0.000 C 
BRANCH  19  20
ATOM     20  C   UNL     1      47.842   6.998  13.483  0.00  0.00    +0.000 A 
ATOM     21  C   UNL     1      47.686   5.762  14.123  0.00  0.00    +0.000 A 
ATOM     22  C   UNL     1      46.526   5.016  13.943  0.00  0.00    +0.000 A 
ATOM     23  C   UNL     1      45.491   5.509  13.140  0.00  0.00    +0.000 A 
ATOM     24  C   UNL     1      45.653   6.738  12.488  0.00  0.00    +0.000 A 
ATOM     25  C   UNL     1      46.822   7.475  12.651  0.00  0.00    +0.000 A 
BRANCH  23  26
ATOM     26  C   UNL     1      44.209   4.733  12.980  0.00  0.00    +0.000 C 
BRANCH  26  27
ATOM     27  N   UNL     1      44.495   3.337  12.671  0.00  0.00    +0.000 NA
ATOM     28  H   UNL     1      43.613   2.832  12.582  0.00  0.00    +0.000 HD
BRANCH  27  29
ATOM     29  C   UNL     1      45.246   3.211  11.419  0.00  0.00    +0.000 C 
BRANCH  29  30
ATOM     30  C   UNL     1      44.255   2.983  10.250  0.00  0.00    +0.000 C 
ATOM     31  C   UNL     1      44.256   4.127   9.255  0.00  0.00    +0.000 C 
ATOM     32  C   UNL     1      45.471   3.833   8.399  0.00  0.00    +0.000 C 
ATOM     33  C   UNL     1      45.589   2.312   8.417  0.00  0.00    +0.000 C 
ATOM     34  N   UNL     1      44.630   1.829   9.414  0.00  0.00    +0.000 NA
ATOM     35  H   UNL     1      45.059   1.120  10.016  0.00  0.00    +0.000 HD
ENDBRANCH  29  30
ENDBRANCH  27  29
ENDBRANCH  26  27
ENDBRANCH  23  26
ENDBRANCH  19  20
ENDBRANCH   1  19
TORSDOF 10
ENDMDL
