MODEL 1
REMARK VINA RESULT:    -7.062      0.000      0.000
REMARK INTER + INTRA:         -10.816
REMARK INTER:                  -9.952
REMARK INTRA:                  -0.864
REMARK UNBOUND:                -0.864
REMARK  Name = 
REMARK  9 active torsions:
REMARK  status: ('A' for Active; 'I' for Inactive)
REMARK    1  A    between atoms: C_1  and  C_2
REMARK    2  A    between atoms: C_2  and  C_3
REMARK    3  A    between atoms: C_2  and  C_4
REMARK    4  A    between atoms: C_2  and  C_15
REMARK    5  A    between atoms: C_5  and  C_6
REMARK    6  A    between atoms: C_9  and  C_10
REMARK    7  A    between atoms: C_19  and  O_20
REMARK    8  A    between atoms: O_20  and  C_21
REMARK    9  A    between atoms: C_21  and  C_22
REMARK                            x       y       z     vdW  Elec       q    Type
REMARK                         _______ _______ _______ _____ _____    ______ ____
ROOT
ATOM      1  C   UNL     1      43.290   5.781  11.864  0.00  0.00    +0.000 C 
ATOM      2  C   UNL     1      44.765   5.480  11.501  0.00  0.00    +0.000 C 
ATOM      3  C   UNL     1      45.365   6.833  11.032  0.00  0.00    +0.000 C 
ENDROOT
BRANCH   2   4
ATOM      4  C   UNL     1      44.879   4.394  10.409  0.00  0.00    +0.000 A 
ATOM      5  C   UNL     1      44.238   3.149  10.530  0.00  0.00    +0.000 A 
ATOM      6  C   UNL     1      44.310   2.192   9.515  0.00  0.00    +0.000 A 
ATOM      7  C   UNL     1      45.005   2.462   8.338  0.00  0.00    +0.000 A 
ATOM      8  C   UNL     1      45.631   3.693   8.172  0.00  0.00    +0.000 A 
ATOM      9  C   UNL     1      45.577   4.636   9.206  0.00  0.00    +0.000 A 
BRANCH   8  10
ATOM     10  O   UNL     1      46.311   4.103   7.057  0.00  0.00    +0.000 OA
BRANCH  10  11
ATOM     11  C   UNL     1      46.717   3.082   6.145  0.00  0.00    +0.000 C 
BRANCH  11  12
ATOM     12  C   UNL     1      48.088   2.573   6.546  0.00  0.00    +0.000 C 
ATOM     13  F   UNL     1      47.946   1.434   7.275  0.00  0.00    +0.000 F 
ENDBRANCH  11  12
ENDBRANCH  10  11
ENDBRANCH   8  10
ENDBRANCH   2   4
BRANCH   2  14
ATOM     14  C   UNL     1      45.494   5.095  12.793  0.00  0.00    +0.000 C 
ATOM     15  C   UNL     1      46.690   5.530  13.230  0.00  0.00    +0.000 C 
BRANCH  15  16
ATOM     16  C   UNL     1      47.316   5.105  14.490  0.00  0.00    +0.000 A 
ATOM     17  C   UNL     1      48.048   5.972  15.310  0.00  0.00    +0.000 A 
ATOM     18  C   UNL     1      48.603   5.507  16.501  0.00  0.00    +0.000 A 
ATOM     19  C   UNL     1      48.392   4.183  16.850  0.00  0.00    +0.000 A 
ATOM     20  N   UNL     1      47.669   3.305  16.100  0.00  0.00    +0.000 NA
ATOM     21  C   UNL     1      47.153   3.795  14.944  0.00  0.00    +0.000 A 
BRANCH  19  22
ATOM     22  C   UNL     1      48.972   3.656  18.127  0.00  0.00    +0.000 C 
ATOM     23  N   UNL     1      49.958   2.718  17.979  0.00  0.00    +0.000 N 
ATOM     24  O   UNL     1      48.596   4.032  19.230  0.00  0.00    +0.000 OA
ATOM     25  H   UNL     1      50.240   2.432  17.049  0.00  0.00    +0.000 HD
ATOM     26  H   UNL     1      50.389   2.316  18.798  0.00  0.00    +0.000 HD
ENDBRANCH  19  22
ENDBRANCH  15  16
ENDBRANCH   2  14
TORSDOF 7
ENDMDL
MODEL 2
REMARK VINA RESULT:    -6.496      3.970      4.778
REMARK INTER + INTRA:         -10.019
REMARK INTER:                  -9.075
REMARK INTRA:                  -0.944
REMARK UNBOUND:                -0.864
REMARK  Name = 
REMARK  9 active torsions:
REMARK  status: ('A' for Active; 'I' for Inactive)
REMARK    1  A    between atoms: C_1  and  C_2
REMARK    2  A    between atoms: C_2  and  C_3
REMARK    3  A    between atoms: C_2  and  C_4
REMARK    4  A    between atoms: C_2  and  C_15
REMARK    5  A    between atoms: C_5  and  C_6
REMARK    6  A    between atoms: C_9  and  C_10
REMARK    7  A    between atoms: C_19  and  O_20
REMARK    8  A    between atoms: O_20  and  C_21
REMARK    9  A    between atoms: C_21  and  C_22
REMARK                            x       y       z     vdW  Elec       q    Type
REMARK                         _______ _______ _______ _____ _____    ______ ____
ROOT
ATOM      1  C   UNL     1      44.460   4.945  12.897  0.00  0.00    +0.000 C 
ATOM      2  C   UNL     1      44.494   5.500  11.452  0.00  0.00    +0.000 C 
ATOM      3  C   UNL     1      43.129   6.213  11.246  0.00  0.00    +0.000 C 
ENDROOT
BRANCH   2   4
ATOM      4  C   UNL     1      44.718   4.382  10.411  0.00  0.00    +0.000 A 
ATOM      5  C   UNL     1      44.162   3.100  10.568  0.00  0.00    +0.000 A 
ATOM      6  C   UNL     1      44.334   2.110   9.596  0.00  0.00    +0.000 A 
ATOM      7  C   UNL     1      45.044   2.381   8.429  0.00  0.00    +0.000 A 
ATOM      8  C   UNL     1      45.587   3.646   8.228  0.00  0.00    +0.000 A 
ATOM      9  C   UNL     1      45.435   4.624   9.219  0.00  0.00    +0.000 A 
BRANCH   8  10
ATOM     10  O   UNL     1      46.271   4.058   7.116  0.00  0.00    +0.000 OA
BRANCH  10  11
ATOM     11  C   UNL     1      46.660   3.041   6.193  0.00  0.00    +0.000 C 
BRANCH  11  12
ATOM     12  C   UNL     1      48.060   2.568   6.535  0.00  0.00    +0.000 C 
ATOM     13  F   UNL     1      47.978   1.438   7.288  0.00  0.00    +0.000 F 
ENDBRANCH  11  12
ENDBRANCH  10  11
ENDBRANCH   8  10
ENDBRANCH   2   4
BRANCH   2  14
ATOM     14  C   UNL     1      45.575   6.585  11.394  0.00  0.00    +0.000 C 
ATOM     15  C   UNL     1      46.723   6.648  12.094  0.00  0.00    +0.000 C 
BRANCH  15  16
ATOM     16  C   UNL     1      47.707   7.733  11.972  0.00  0.00    +0.000 A 
ATOM     17  C   UNL     1      47.356   9.089  11.991  0.00  0.00    +0.000 A 
ATOM     18  C   UNL     1      48.342  10.068  11.887  0.00  0.00    +0.000 A 
ATOM     19  C   UNL     1      49.663   9.662  11.786  0.00  0.00    +0.000 A 
ATOM     20  N   UNL     1      50.059   8.358  11.787  0.00  0.00    +0.000 NA
ATOM     21  C   UNL     1      49.068   7.436  11.882  0.00  0.00    +0.000 A 
BRANCH  19  22
ATOM     22  C   UNL     1      50.744  10.692  11.678  0.00  0.00    +0.000 C 
ATOM     23  N   UNL     1      51.347  10.782  10.453  0.00  0.00    +0.000 N 
ATOM     24  O   UNL     1      51.074  11.408  12.615  0.00  0.00    +0.000 OA
ATOM     25  H   UNL     1      51.048  10.170   9.703  0.00  0.00    +0.000 HD
ATOM     26  H   UNL     1      52.089  11.451  10.311  0.00  0.00    +0.000 HD
ENDBRANCH  19  22
ENDBRANCH  15  16
ENDBRANCH   2  14
TORSDOF 7
ENDMDL
MODEL 3
REMARK VINA RESULT:    -6.426      1.455      2.139
REMARK INTER + INTRA:          -9.920
REMARK INTER:                  -9.175
REMARK INTRA:                  -0.745
REMARK UNBOUND:                -0.864
REMARK  Name = 
REMARK  9 active torsions:
REMARK  status: ('A' for Active; 'I' for Inactive)
REMARK    1  A    between atoms: C_1  and  C_2
REMARK    2  A    between atoms: C_2  and  C_3
REMARK    3  A    between atoms: C_2  and  C_4
REMARK    4  A    between atoms: C_2  and  C_15
REMARK    5  A    between atoms: C_5  and  C_6
REMARK    6  A    between atoms: C_9  and  C_10
REMARK    7  A    between atoms: C_19  and  O_20
REMARK    8  A    between atoms: O_20  and  C_21
REMARK    9  A    between atoms: C_21  and  C_22
REMARK                            x       y       z     vdW  Elec       q    Type
REMARK                         _______ _______ _______ _____ _____    ______ ____
ROOT
ATOM      1  C   UNL     1      45.475   8.473  12.363  0.00  0.00    +0.000 C 
ATOM      2  C   UNL     1      46.321   7.197  12.136  0.00  0.00    +0.000 C 
ATOM      3  C   UNL     1      47.604   7.671  11.401  0.00  0.00    +0.000 C 
ENDROOT
BRANCH   2   4
ATOM      4  C   UNL     1      45.553   6.136  11.319  0.00  0.00    +0.000 A 
ATOM      5  C   UNL     1      44.327   5.606  11.756  0.00  0.00    +0.000 A 
ATOM      6  C   UNL     1      43.618   4.680  10.986  0.00  0.00    +0.000 A 
ATOM      7  C   UNL     1      44.102   4.276   9.744  0.00  0.00    +0.000 A 
ATOM      8  C   UNL     1      45.300   4.798   9.267  0.00  0.00    +0.000 A 
ATOM      9  C   UNL     1      46.018   5.704  10.057  0.00  0.00    +0.000 A 
BRANCH   8  10
ATOM     10  O   UNL     1      45.869   4.520   8.053  0.00  0.00    +0.000 OA
BRANCH  10  11
ATOM     11  C   UNL     1      45.800   3.164   7.612  0.00  0.00    +0.000 C 
BRANCH  11  12
ATOM     12  C   UNL     1      46.926   2.902   6.630  0.00  0.00    +0.000 C 
ATOM     13  F   UNL     1      46.405   2.756   5.382  0.00  0.00    +0.000 F 
ENDBRANCH  11  12
ENDBRANCH  10  11
ENDBRANCH   8  10
ENDBRANCH   2   4
BRANCH   2  14
ATOM     14  C   UNL     1      46.761   6.678  13.509  0.00  0.00    +0.000 C 
ATOM     15  C   UNL     1      47.135   5.428  13.841  0.00  0.00    +0.000 C 
BRANCH  15  16
ATOM     16  C   UNL     1      47.544   5.018  15.191  0.00  0.00    +0.000 A 
ATOM     17  C   UNL     1      47.233   3.767  15.737  0.00  0.00    +0.000 A 
ATOM     18  C   UNL     1      47.666   3.436  17.020  0.00  0.00    +0.000 A 
ATOM     19  C   UNL     1      48.421   4.364  17.718  0.00  0.00    +0.000 A 
ATOM     20  N   UNL     1      48.770   5.585  17.224  0.00  0.00    +0.000 NA
ATOM     21  C   UNL     1      48.323   5.872  15.975  0.00  0.00    +0.000 A 
BRANCH  19  22
ATOM     22  C   UNL     1      48.904   4.034  19.096  0.00  0.00    +0.000 C 
ATOM     23  N   UNL     1      48.281   2.974  19.698  0.00  0.00    +0.000 N 
ATOM     24  O   UNL     1      49.793   4.663  19.655  0.00  0.00    +0.000 OA
ATOM     25  H   UNL     1      47.547   2.480  19.203  0.00  0.00    +0.000 HD
ATOM     26  H   UNL     1      48.552   2.700  20.630  0.00  0.00    +0.000 HD
ENDBRANCH  19  22
ENDBRANCH  15  16
ENDBRANCH   2  14
TORSDOF 7
ENDMDL
MODEL 4
REMARK VINA RESULT:    -5.913      3.500      8.301
REMARK INTER + INTRA:          -9.196
REMARK INTER:                  -8.318
REMARK INTRA:                  -0.878
REMARK UNBOUND:                -0.864
REMARK  Name = 
REMARK  9 active torsions:
REMARK  status: ('A' for Active; 'I' for Inactive)
REMARK    1  A    between atoms: C_1  and  C_2
REMARK    2  A    between atoms: C_2  and  C_3
REMARK    3  A    between atoms: C_2  and  C_4
REMARK    4  A    between atoms: C_2  and  C_15
REMARK    5  A    between atoms: C_5  and  C_6
REMARK    6  A    between atoms: C_9  and  C_10
REMARK    7  A    between atoms: C_19  and  O_20
REMARK    8  A    between atoms: O_20  and  C_21
REMARK    9  A    between atoms: C_21  and  C_22
REMARK                            x       y       z     vdW  Elec       q    Type
REMARK                         _______ _______ _______ _____ _____    ______ ____
ROOT
ATOM      1  C   UNL     1      50.314   8.289  13.511  0.00  0.00    +0.000 C 
ATOM      2  C   UNL     1      49.441   7.601  14.587  0.00  0.00    +0.000 C 
ATOM      3  C   UNL     1      48.563   8.727  15.197  0.00  0.00    +0.000 C 
ENDROOT
BRANCH   2   4
ATOM      4  C   UNL     1      50.299   6.899  15.662  0.00  0.00    +0.000 A 
ATOM      5  C   UNL     1      51.670   7.169  15.809  0.00  0.00    +0.000 A 
ATOM      6  C   UNL     1      52.427   6.562  16.815  0.00  0.00    +0.000 A 
ATOM      7  C   UNL     1      51.829   5.688  17.720  0.00  0.00    +0.000 A 
ATOM      8  C   UNL     1      50.468   5.416  17.620  0.00  0.00    +0.000 A 
ATOM      9  C   UNL     1      49.722   6.006  16.592  0.00  0.00    +0.000 A 
BRANCH   8  10
ATOM     10  O   UNL     1      49.747   4.611  18.461  0.00  0.00    +0.000 OA
BRANCH  10  11
ATOM     11  C   UNL     1      48.968   3.584  17.849  0.00  0.00    +0.000 C 
BRANCH  11  12
ATOM     12  C   UNL     1      49.891   2.484  17.358  0.00  0.00    +0.000 C 
ATOM     13  F   UNL     1      49.315   1.859  16.297  0.00  0.00    +0.000 F 
ENDBRANCH  11  12
ENDBRANCH  10  11
ENDBRANCH   8  10
ENDBRANCH   2   4
BRANCH   2  14
ATOM     14  C   UNL     1      48.490   6.636  13.870  0.00  0.00    +0.000 C 
ATOM     15  C   UNL     1      47.195   6.828  13.559  0.00  0.00    +0.000 C 
BRANCH  15  16
ATOM     16  C   UNL     1      46.355   5.841  12.866  0.00  0.00    +0.000 A 
ATOM     17  C   UNL     1      45.976   5.970  11.524  0.00  0.00    +0.000 A 
ATOM     18  C   UNL     1      45.190   4.989  10.922  0.00  0.00    +0.000 A 
ATOM     19  C   UNL     1      44.820   3.888  11.678  0.00  0.00    +0.000 A 
ATOM     20  N   UNL     1      45.181   3.705  12.979  0.00  0.00    +0.000 NA
ATOM     21  C   UNL     1      45.939   4.686  13.530  0.00  0.00    +0.000 A 
BRANCH  19  22
ATOM     22  C   UNL     1      43.980   2.816  11.057  0.00  0.00    +0.000 C 
ATOM     23  N   UNL     1      44.501   2.246   9.926  0.00  0.00    +0.000 N 
ATOM     24  O   UNL     1      42.901   2.467  11.518  0.00  0.00    +0.000 OA
ATOM     25  H   UNL     1      45.396   2.563   9.574  0.00  0.00    +0.000 HD
ATOM     26  H   UNL     1      43.985   1.520   9.452  0.00  0.00    +0.000 HD
ENDBRANCH  19  22
ENDBRANCH  15  16
ENDBRANCH   2  14
TORSDOF 7
ENDMDL
MODEL 5
REMARK VINA RESULT:    -5.867      3.615      8.282
REMARK INTER + INTRA:          -9.131
REMARK INTER:                  -7.985
REMARK INTRA:                  -1.146
REMARK UNBOUND:                -0.864
REMARK  Name = 
REMARK  9 active torsions:
REMARK  status: ('A' for Active; 'I' for Inactive)
REMARK    1  A    between atoms: C_1  and  C_2
REMARK    2  A    between atoms: C_2  and  C_3
REMARK    3  A    between atoms: C_2  and  C_4
REMARK    4  A    between atoms: C_2  and  C_15
REMARK    5  A    between atoms: C_5  and  C_6
REMARK    6  A    between atoms: C_9  and  C_10
REMARK    7  A    between atoms: C_19  and  O_20
REMARK    8  A    between atoms: O_20  and  C_21
REMARK    9  A    between atoms: C_21  and  C_22
REMARK                            x       y       z     vdW  Elec       q    Type
REMARK                         _______ _______ _______ _____ _____    ______ ____
ROOT
ATOM      1  C   UNL     1      50.425   8.014  13.475  0.00  0.00    +0.000 C 
ATOM      2  C   UNL     1      48.952   8.259  13.883  0.00  0.00    +0.000 C 
ATOM      3  C   UNL     1      48.547   9.598  13.208  0.00  0.00    +0.000 C 
ENDROOT
BRANCH   2   4
ATOM      4  C   UNL     1      48.781   8.317  15.416  0.00  0.00    +0.000 A 
ATOM      5  C   UNL     1      48.441   9.508  16.081  0.00  0.00    +0.000 A 
ATOM      6  C   UNL     1      48.245   9.539  17.464  0.00  0.00    +0.000 A 
ATOM      7  C   UNL     1      48.357   8.374  18.220  0.00  0.00    +0.000 A 
ATOM      8  C   UNL     1      48.669   7.172  17.593  0.00  0.00    +0.000 A 
ATOM      9  C   UNL     1      48.892   7.155  16.211  0.00  0.00    +0.000 A 
BRANCH   8  10
ATOM     10  O   UNL     1      48.772   5.952  18.206  0.00  0.00    +0.000 OA
BRANCH  10  11
ATOM     11  C   UNL     1      47.547   5.287  18.514  0.00  0.00    +0.000 C 
BRANCH  11  12
ATOM     12  C   UNL     1      47.417   4.052  17.641  0.00  0.00    +0.000 C 
ATOM     13  F   UNL     1      46.944   4.417  16.420  0.00  0.00    +0.000 F 
ENDBRANCH  11  12
ENDBRANCH  10  11
ENDBRANCH   8  10
ENDBRANCH   2   4
BRANCH   2  14
ATOM     14  C   UNL     1      48.100   7.160  13.237  0.00  0.00    +0.000 C 
ATOM     15  C   UNL     1      46.762   7.020  13.275  0.00  0.00    +0.000 C 
BRANCH  15  16
ATOM     16  C   UNL     1      46.026   5.929  12.622  0.00  0.00    +0.000 A 
ATOM     17  C   UNL     1      45.708   5.931  11.258  0.00  0.00    +0.000 A 
ATOM     18  C   UNL     1      45.020   4.856  10.698  0.00  0.00    +0.000 A 
ATOM     19  C   UNL     1      44.684   3.792  11.520  0.00  0.00    +0.000 A 
ATOM     20  N   UNL     1      44.990   3.731  12.846  0.00  0.00    +0.000 NA
ATOM     21  C   UNL     1      45.653   4.800  13.354  0.00  0.00    +0.000 A 
BRANCH  19  22
ATOM     22  C   UNL     1      43.950   2.621  10.945  0.00  0.00    +0.000 C 
ATOM     23  N   UNL     1      44.495   2.088   9.808  0.00  0.00    +0.000 N 
ATOM     24  O   UNL     1      42.931   2.165  11.448  0.00  0.00    +0.000 OA
ATOM     25  H   UNL     1      45.338   2.494   9.421  0.00  0.00    +0.000 HD
ATOM     26  H   UNL     1      44.048   1.300   9.364  0.00  0.00    +0.000 HD
ENDBRANCH  19  22
ENDBRANCH  15  16
ENDBRANCH   2  14
TORSDOF 7
ENDMDL
MODEL 6
REMARK VINA RESULT:    -5.497      5.006      7.190
REMARK INTER + INTRA:          -8.610
REMARK INTER:                  -7.625
REMARK INTRA:                  -0.985
REMARK UNBOUND:                -0.864
REMARK  Name = 
REMARK  9 active torsions:
REMARK  status: ('A' for Active; 'I' for Inactive)
REMARK    1  A    between atoms: C_1  and  C_2
REMARK    2  A    between atoms: C_2  and  C_3
REMARK    3  A    between atoms: C_2  and  C_4
REMARK    4  A    between atoms: C_2  and  C_15
REMARK    5  A    between atoms: C_5  and  C_6
REMARK    6  A    between atoms: C_9  and  C_10
REMARK    7  A    between atoms: C_19  and  O_20
REMARK    8  A    between atoms: O_20  and  C_21
REMARK    9  A    between atoms: C_21  and  C_22
REMARK                            x       y       z     vdW  Elec       q    Type
REMARK                         _______ _______ _______ _____ _____    ______ ____
ROOT
ATOM      1  C   UNL     1      49.589  10.265  11.333  0.00  0.00    +0.000 C 
ATOM      2  C   UNL     1      49.952   8.954  12.073  0.00  0.00    +0.000 C 
ATOM      3  C   UNL     1      49.898   9.300  13.587  0.00  0.00    +0.000 C 
ENDROOT
BRANCH   2   4
ATOM      4  C   UNL     1      51.341   8.424  11.658  0.00  0.00    +0.000 A 
ATOM      5  C   UNL     1      52.491   8.670  12.429  0.00  0.00    +0.000 A 
ATOM      6  C   UNL     1      53.735   8.146  12.067  0.00  0.00    +0.000 A 
ATOM      7  C   UNL     1      53.861   7.341  10.938  0.00  0.00    +0.000 A 
ATOM      8  C   UNL     1      52.741   7.056  10.164  0.00  0.00    +0.000 A 
ATOM      9  C   UNL     1      51.503   7.607  10.517  0.00  0.00    +0.000 A 
BRANCH   8  10
ATOM     10  O   UNL     1      52.714   6.251   9.056  0.00  0.00    +0.000 OA
BRANCH  10  11
ATOM     11  C   UNL     1      53.822   6.358   8.163  0.00  0.00    +0.000 C 
BRANCH  11  12
ATOM     12  C   UNL     1      53.349   6.959   6.853  0.00  0.00    +0.000 C 
ATOM     13  F   UNL     1      51.993   7.055   6.870  0.00  0.00    +0.000 F 
ENDBRANCH  11  12
ENDBRANCH  10  11
ENDBRANCH   8  10
ENDBRANCH   2   4
BRANCH   2  14
ATOM     14  C   UNL     1      48.832   7.943  11.808  0.00  0.00    +0.000 C 
ATOM     15  C   UNL     1      48.157   7.201  12.705  0.00  0.00    +0.000 C 
BRANCH  15  16
ATOM     16  C   UNL     1      47.091   6.251  12.358  0.00  0.00    +0.000 A 
ATOM     17  C   UNL     1      46.354   6.330  11.169  0.00  0.00    +0.000 A 
ATOM     18  C   UNL     1      45.366   5.386  10.895  0.00  0.00    +0.000 A 
ATOM     19  C   UNL     1      45.154   4.370  11.814  0.00  0.00    +0.000 A 
ATOM     20  N   UNL     1      45.858   4.236  12.972  0.00  0.00    +0.000 NA
ATOM     21  C   UNL     1      46.805   5.179  13.206  0.00  0.00    +0.000 A 
BRANCH  19  22
ATOM     22  C   UNL     1      44.103   3.339  11.543  0.00  0.00    +0.000 C 
ATOM     23  N   UNL     1      43.841   2.483  12.578  0.00  0.00    +0.000 N 
ATOM     24  O   UNL     1      43.514   3.259  10.473  0.00  0.00    +0.000 OA
ATOM     25  H   UNL     1      44.352   2.581  13.448  0.00  0.00    +0.000 HD
ATOM     26  H   UNL     1      43.148   1.759  12.463  0.00  0.00    +0.000 HD
ENDBRANCH  19  22
ENDBRANCH  15  16
ENDBRANCH   2  14
TORSDOF 7
ENDMDL
MODEL 7
REMARK VINA RESULT:    -5.318      4.229      8.214
REMARK INTER + INTRA:          -8.358
REMARK INTER:                  -7.548
REMARK INTRA:                  -0.810
REMARK UNBOUND:                -0.864
REMARK  Name = 
REMARK  9 active torsions:
REMARK  status: ('A' for Active; 'I' for Inactive)
REMARK    1  A    between atoms: C_1  and  C_2
REMARK    2  A    between atoms: C_2  and  C_3
REMARK    3  A    between atoms: C_2  and  C_4
REMARK    4  A    between atoms: C_2  and  C_15
REMARK    5  A    between atoms: C_5  and  C_6
REMARK    6  A    between atoms: C_9  and  C_10
REMARK    7  A    between atoms: C_19  and  O_20
REMARK    8  A    between atoms: O_20  and  C_21
REMARK    9  A    between atoms: C_21  and  C_22
REMARK                            x       y       z     vdW  Elec       q    Type
REMARK                         _______ _______ _______ _____ _____    ______ ____
ROOT
ATOM      1  C   UNL     1      49.981   9.172  11.407  0.00  0.00    +0.000 C 
ATOM      2  C   UNL     1      49.323   8.639  12.703  0.00  0.00    +0.000 C 
ATOM      3  C   UNL     1      48.385   9.776  13.194  0.00  0.00    +0.000 C 
ENDROOT
BRANCH   2   4
ATOM      4  C   UNL     1      50.373   8.263  13.770  0.00  0.00    +0.000 A 
ATOM      5  C   UNL     1      51.634   8.882  13.820  0.00  0.00    +0.000 A 
ATOM      6  C   UNL     1      52.560   8.566  14.818  0.00  0.00    +0.000 A 
ATOM      7  C   UNL     1      52.241   7.642  15.811  0.00  0.00    +0.000 A 
ATOM      8  C   UNL     1      50.993   7.028  15.807  0.00  0.00    +0.000 A 
ATOM      9  C   UNL     1      50.081   7.329  14.788  0.00  0.00    +0.000 A 
BRANCH   8  10
ATOM     10  O   UNL     1      50.536   6.135  16.739  0.00  0.00    +0.000 OA
BRANCH  10  11
ATOM     11  C   UNL     1      49.133   5.872  16.736  0.00  0.00    +0.000 C 
BRANCH  11  12
ATOM     12  C   UNL     1      48.776   5.058  17.966  0.00  0.00    +0.000 C 
ATOM     13  F   UNL     1      48.220   3.880  17.575  0.00  0.00    +0.000 F 
ENDBRANCH  11  12
ENDBRANCH  10  11
ENDBRANCH   8  10
ENDBRANCH   2   4
BRANCH   2  14
ATOM     14  C   UNL     1      48.424   7.458  12.318  0.00  0.00    +0.000 C 
ATOM     15  C   UNL     1      47.190   7.174  12.773  0.00  0.00    +0.000 C 
BRANCH  15  16
ATOM     16  C   UNL     1      46.398   6.013  12.345  0.00  0.00    +0.000 A 
ATOM     17  C   UNL     1      46.293   4.839  13.102  0.00  0.00    +0.000 A 
ATOM     18  C   UNL     1      45.511   3.780  12.645  0.00  0.00    +0.000 A 
ATOM     19  C   UNL     1      44.835   3.933  11.445  0.00  0.00    +0.000 A 
ATOM     20  N   UNL     1      44.885   5.061  10.684  0.00  0.00    +0.000 NA
ATOM     21  C   UNL     1      45.663   6.066  11.160  0.00  0.00    +0.000 A 
BRANCH  19  22
ATOM     22  C   UNL     1      43.983   2.813  10.932  0.00  0.00    +0.000 C 
ATOM     23  N   UNL     1      44.441   2.202   9.796  0.00  0.00    +0.000 N 
ATOM     24  O   UNL     1      42.948   2.462  11.482  0.00  0.00    +0.000 OA
ATOM     25  H   UNL     1      45.301   2.523   9.368  0.00  0.00    +0.000 HD
ATOM     26  H   UNL     1      43.913   1.444   9.391  0.00  0.00    +0.000 HD
ENDBRANCH  19  22
ENDBRANCH  15  16
ENDBRANCH   2  14
TORSDOF 7
ENDMDL
MODEL 8
REMARK VINA RESULT:    -5.265      3.753      5.671
REMARK INTER + INTRA:          -8.283
REMARK INTER:                  -7.446
REMARK INTRA:                  -0.837
REMARK UNBOUND:                -0.864
REMARK  Name = 
REMARK  9 active torsions:
REMARK  status: ('A' for Active; 'I' for Inactive)
REMARK    1  A    between atoms: C_1  and  C_2
REMARK    2  A    between atoms: C_2  and  C_3
REMARK    3  A    between atoms: C_2  and  C_4
REMARK    4  A    between atoms: C_2  and  C_15
REMARK    5  A    between atoms: C_5  and  C_6
REMARK    6  A    between atoms: C_9  and  C_10
REMARK    7  A    between atoms: C_19  and  O_20
REMARK    8  A    between atoms: O_20  and  C_21
REMARK    9  A    between atoms: C_21  and  C_22
REMARK                            x       y       z     vdW  Elec       q    Type
REMARK                         _______ _______ _______ _____ _____    ______ ____
ROOT
ATOM      1  C   UNL     1      45.742   5.788  10.587  0.00  0.00    +0.000 C 
ATOM      2  C   UNL     1      44.966   6.421  11.767  0.00  0.00    +0.000 C 
ATOM      3  C   UNL     1      43.538   5.816  11.702  0.00  0.00    +0.000 C 
ENDROOT
BRANCH   2   4
ATOM      4  C   UNL     1      44.939   7.962  11.677  0.00  0.00    +0.000 A 
ATOM      5  C   UNL     1      45.951   8.757  12.244  0.00  0.00    +0.000 A 
ATOM      6  C   UNL     1      45.940  10.148  12.117  0.00  0.00    +0.000 A 
ATOM      7  C   UNL     1      44.931  10.784  11.397  0.00  0.00    +0.000 A 
ATOM      8  C   UNL     1      43.927  10.028  10.800  0.00  0.00    +0.000 A 
ATOM      9  C   UNL     1      43.929   8.636  10.956  0.00  0.00    +0.000 A 
BRANCH   8  10
ATOM     10  O   UNL     1      42.901  10.517  10.036  0.00  0.00    +0.000 OA
BRANCH  10  11
ATOM     11  C   UNL     1      41.987  11.401  10.684  0.00  0.00    +0.000 C 
BRANCH  11  12
ATOM     12  C   UNL     1      40.593  10.806  10.626  0.00  0.00    +0.000 C 
ATOM     13  F   UNL     1      40.586   9.620  11.291  0.00  0.00    +0.000 F 
ENDBRANCH  11  12
ENDBRANCH  10  11
ENDBRANCH   8  10
ENDBRANCH   2   4
BRANCH   2  14
ATOM     14  C   UNL     1      45.603   5.918  13.068  0.00  0.00    +0.000 C 
ATOM     15  C   UNL     1      46.873   5.521  13.268  0.00  0.00    +0.000 C 
BRANCH  15  16
ATOM     16  C   UNL     1      47.400   5.051  14.557  0.00  0.00    +0.000 A 
ATOM     17  C   UNL     1      47.119   3.782  15.079  0.00  0.00    +0.000 A 
ATOM     18  C   UNL     1      47.664   3.393  16.302  0.00  0.00    +0.000 A 
ATOM     19  C   UNL     1      48.497   4.283  16.963  0.00  0.00    +0.000 A 
ATOM     20  N   UNL     1      48.819   5.518  16.486  0.00  0.00    +0.000 NA
ATOM     21  C   UNL     1      48.262   5.861  15.297  0.00  0.00    +0.000 A 
BRANCH  19  22
ATOM     22  C   UNL     1      49.101   3.890  18.275  0.00  0.00    +0.000 C 
ATOM     23  N   UNL     1      48.243   3.293  19.159  0.00  0.00    +0.000 N 
ATOM     24  O   UNL     1      50.278   4.086  18.548  0.00  0.00    +0.000 OA
ATOM     25  H   UNL     1      47.275   3.150  18.897  0.00  0.00    +0.000 HD
ATOM     26  H   UNL     1      48.582   3.008  20.066  0.00  0.00    +0.000 HD
ENDBRANCH  19  22
ENDBRANCH  15  16
ENDBRANCH   2  14
TORSDOF 7
ENDMDL
MODEL 9
REMARK VINA RESULT:    -4.937      5.385      7.384
REMARK INTER + INTRA:          -7.821
REMARK INTER:                  -7.047
REMARK INTRA:                  -0.773
REMARK UNBOUND:                -0.864
REMARK  Name = 
REMARK  9 active torsions:
REMARK  status: ('A' for Active; 'I' for Inactive)
REMARK    1  A    between atoms: C_1  and  C_2
REMARK    2  A    between atoms: C_2  and  C_3
REMARK    3  A    between atoms: C_2  and  C_4
REMARK    4  A    between atoms: C_2  and  C_15
REMARK    5  A    between atoms: C_5  and  C_6
REMARK    6  A    between atoms: C_9  and  C_10
REMARK    7  A    between atoms: C_19  and  O_20
REMARK    8  A    between atoms: O_20  and  C_21
REMARK    9  A    between atoms: C_21  and  C_22
REMARK                            x       y       z     vdW  Elec       q    Type
REMARK                         _______ _______ _______ _____ _____    ______ ____
ROOT
ATOM      1  C   UNL     1      49.430  10.161  13.327  0.00  0.00    +0.000 C 
ATOM      2  C   UNL     1      49.851   8.766  12.805  0.00  0.00    +0.000 C 
ATOM      3  C   UNL     1      50.558   8.068  14.000  0.00  0.00    +0.000 C 
ENDROOT
BRANCH   2   4
ATOM      4  C   UNL     1      50.777   8.868  11.574  0.00  0.00    +0.000 A 
ATOM      5  C   UNL     1      51.121  10.106  11.005  0.00  0.00    +0.000 A 
ATOM      6  C   UNL     1      51.997  10.189   9.919  0.00  0.00    +0.000 A 
ATOM      7  C   UNL     1      52.574   9.038   9.386  0.00  0.00    +0.000 A 
ATOM      8  C   UNL     1      52.275   7.797   9.940  0.00  0.00    +0.000 A 
ATOM      9  C   UNL     1      51.375   7.720  11.010  0.00  0.00    +0.000 A 
BRANCH   8  10
ATOM     10  O   UNL     1      52.798   6.595   9.543  0.00  0.00    +0.000 OA
BRANCH  10  11
ATOM     11  C   UNL     1      54.177   6.590   9.175  0.00  0.00    +0.000 C 
BRANCH  11  12
ATOM     12  C   UNL     1      54.670   5.156   9.113  0.00  0.00    +0.000 C 
ATOM     13  F   UNL     1      54.762   4.662  10.376  0.00  0.00    +0.000 F 
ENDBRANCH  11  12
ENDBRANCH  10  11
ENDBRANCH   8  10
ENDBRANCH   2   4
BRANCH   2  14
ATOM     14  C   UNL     1      48.574   7.970  12.518  0.00  0.00    +0.000 C 
ATOM     15  C   UNL     1      48.253   6.735  12.948  0.00  0.00    +0.000 C 
BRANCH  15  16
ATOM     16  C   UNL     1      46.998   6.045  12.621  0.00  0.00    +0.000 A 
ATOM     17  C   UNL     1      46.328   5.210  13.524  0.00  0.00    +0.000 A 
ATOM     18  C   UNL     1      45.132   4.597  13.154  0.00  0.00    +0.000 A 
ATOM     19  C   UNL     1      44.624   4.855  11.891  0.00  0.00    +0.000 A 
ATOM     20  N   UNL     1      45.224   5.678  10.985  0.00  0.00    +0.000 NA
ATOM     21  C   UNL     1      46.390   6.248  11.380  0.00  0.00    +0.000 A 
BRANCH  19  22
ATOM     22  C   UNL     1      43.338   4.215  11.469  0.00  0.00    +0.000 C 
ATOM     23  N   UNL     1      42.222   4.995  11.610  0.00  0.00    +0.000 N 
ATOM     24  O   UNL     1      43.279   3.075  11.028  0.00  0.00    +0.000 OA
ATOM     25  H   UNL     1      42.312   5.934  11.981  0.00  0.00    +0.000 HD
ATOM     26  H   UNL     1      41.320   4.625  11.351  0.00  0.00    +0.000 HD
ENDBRANCH  19  22
ENDBRANCH  15  16
ENDBRANCH   2  14
TORSDOF 7
ENDMDL
