MODEL 1
REMARK VINA RESULT:    -8.399      0.000      0.000
REMARK INTER + INTRA:         -11.062
REMARK INTER:                 -10.609
REMARK INTRA:                  -0.453
REMARK UNBOUND:                -0.453
REMARK  Name = 
REMARK  5 active torsions:
REMARK  status: ('A' for Active; 'I' for Inactive)
REMARK    1  A    between atoms: N_1  and  C_2
REMARK    2  A    between atoms: C_2  and  C_3
REMARK    3  A    between atoms: C_7  and  C_8
REMARK    4  A    between atoms: C_8  and  N_9
REMARK    5  A    between atoms: C_13  and  C_14
REMARK                            x       y       z     vdW  Elec       q    Type
REMARK                         _______ _______ _______ _____ _____    ______ ____
ROOT
ATOM      1  N   UNL     1      43.799   4.827   9.669  0.00  0.00    +0.000 N 
ATOM      2  C   UNL     1      44.707   3.958   9.088  0.00  0.00    +0.000 A 
ATOM      3  C   UNL     1      44.886   2.623   9.476  0.00  0.00    +0.000 A 
ATOM      4  N   UNL     1      45.736   1.752   8.869  0.00  0.00    +0.000 NA
ATOM      5  C   UNL     1      46.402   2.271   7.804  0.00  0.00    +0.000 A 
ATOM      6  C   UNL     1      46.231   3.585   7.394  0.00  0.00    +0.000 A 
ATOM      7  N   UNL     1      45.392   4.447   8.034  0.00  0.00    +0.000 NA
ATOM      8  H   UNL     1      43.974   5.766   9.319  0.00  0.00    +0.000 HD
ENDROOT
BRANCH   5   9
ATOM      9  C   UNL     1      47.332   1.374   7.068  0.00  0.00    +0.000 C 
ATOM     10  N   UNL     1      48.430   1.976   6.516  0.00  0.00    +0.000 N 
ATOM     11  O   UNL     1      47.135   0.173   6.960  0.00  0.00    +0.000 OA
ATOM     12  H   UNL     1      48.571   2.975   6.626  0.00  0.00    +0.000 HD
ATOM     13  H   UNL     1      49.106   1.419   6.009  0.00  0.00    +0.000 HD
ENDBRANCH   5   9
BRANCH   1  14
ATOM     14  C   UNL     1      43.526   4.734  11.090  0.00  0.00    +0.000 C 
BRANCH  14  19
ATOM     15  C   UNL     1      46.304   5.253  13.674  0.00  0.00    +0.000 A 
ATOM     16  C   UNL     1      46.824   6.485  13.258  0.00  0.00    +0.000 A 
ATOM     17  C   UNL     1      46.246   7.172  12.190  0.00  0.00    +0.000 A 
ATOM     18  C   UNL     1      45.153   6.625  11.514  0.00  0.00    +0.000 A 
ATOM     19  C   UNL     1      44.623   5.387  11.900  0.00  0.00    +0.000 A 
ATOM     20  C   UNL     1      45.201   4.715  12.990  0.00  0.00    +0.000 A 
BRANCH  15  21
ATOM     21  C   UNL     1      46.974   4.475  14.776  0.00  0.00    +0.000 C 
BRANCH  21  22
ATOM     22  N   UNL     1      47.414   3.171  14.294  0.00  0.00    +0.000 NA
ATOM     23  H   UNL     1      48.430   3.131  14.311  0.00  0.00    +0.000 HD
ATOM     24  H   UNL     1      47.136   3.071  13.318  0.00  0.00    +0.000 HD
ENDBRANCH  21  22
ENDBRANCH  15  21
ENDBRANCH  14  19
ENDBRANCH   1  14
TORSDOF 5
ENDMDL
MODEL 2
REMARK VINA RESULT:    -7.897      1.592      2.137
REMARK INTER + INTRA:         -10.427
REMARK INTER:                 -10.086
REMARK INTRA:                  -0.341
REMARK UNBOUND:                -0.453
REMARK  Name = 
REMARK  5 active torsions:
REMARK  status: ('A' for Active; 'I' for Inactive)
REMARK    1  A    between atoms: N_1  and  C_2
REMARK    2  A    between atoms: C_2  and  C_3
REMARK    3  A    between atoms: C_7  and  C_8
REMARK    4  A    between atoms: C_8  and  N_9
REMARK    5  A    between atoms: C_13  and  C_14
REMARK                            x       y       z     vdW  Elec       q    Type
REMARK                         _______ _______ _______ _____ _____    ______ ____
ROOT
ATOM      1  N   UNL     1      43.854   4.980   9.625  0.00  0.00    +0.000 N 
ATOM      2  C   UNL     1      44.685   3.994   9.120  0.00  0.00    +0.000 A 
ATOM      3  C   UNL     1      44.705   2.667   9.568  0.00  0.00    +0.000 A 
ATOM      4  N   UNL     1      45.479   1.685   9.034  0.00  0.00    +0.000 NA
ATOM      5  C   UNL     1      46.238   2.083   7.979  0.00  0.00    +0.000 A 
ATOM      6  C   UNL     1      46.226   3.387   7.510  0.00  0.00    +0.000 A 
ATOM      7  N   UNL     1      45.460   4.361   8.078  0.00  0.00    +0.000 NA
ATOM      8  H   UNL     1      44.142   5.879   9.246  0.00  0.00    +0.000 HD
ENDROOT
BRANCH   5   9
ATOM      9  C   UNL     1      47.094   1.060   7.321  0.00  0.00    +0.000 C 
ATOM     10  N   UNL     1      46.789  -0.244   7.603  0.00  0.00    +0.000 N 
ATOM     11  O   UNL     1      48.013   1.358   6.573  0.00  0.00    +0.000 OA
ATOM     12  H   UNL     1      46.017  -0.462   8.223  0.00  0.00    +0.000 HD
ATOM     13  H   UNL     1      47.329  -0.988   7.181  0.00  0.00    +0.000 HD
ENDBRANCH   5   9
BRANCH   1  14
ATOM     14  C   UNL     1      43.518   4.979  11.036  0.00  0.00    +0.000 C 
BRANCH  14  19
ATOM     15  C   UNL     1      46.407   6.817  12.749  0.00  0.00    +0.000 A 
ATOM     16  C   UNL     1      46.849   5.836  13.645  0.00  0.00    +0.000 A 
ATOM     17  C   UNL     1      46.260   4.571  13.657  0.00  0.00    +0.000 A 
ATOM     18  C   UNL     1      45.209   4.280  12.784  0.00  0.00    +0.000 A 
ATOM     19  C   UNL     1      44.737   5.249  11.888  0.00  0.00    +0.000 A 
ATOM     20  C   UNL     1      45.353   6.512  11.872  0.00  0.00    +0.000 A 
BRANCH  15  21
ATOM     21  C   UNL     1      46.990   8.205  12.790  0.00  0.00    +0.000 C 
BRANCH  21  22
ATOM     22  N   UNL     1      46.714   8.844  14.071  0.00  0.00    +0.000 NA
ATOM     23  H   UNL     1      46.836   8.165  14.818  0.00  0.00    +0.000 HD
ATOM     24  H   UNL     1      45.734   9.126  14.093  0.00  0.00    +0.000 HD
ENDBRANCH  21  22
ENDBRANCH  15  21
ENDBRANCH  14  19
ENDBRANCH   1  14
TORSDOF 5
ENDMDL
MODEL 3
REMARK VINA RESULT:    -7.744      2.967      6.303
REMARK INTER + INTRA:         -10.234
REMARK INTER:                  -9.900
REMARK INTRA:                  -0.335
REMARK UNBOUND:                -0.453
REMARK  Name = 
REMARK  5 active torsions:
REMARK  status: ('A' for Active; 'I' for Inactive)
REMARK    1  A    between atoms: N_1  and  C_2
REMARK    2  A    between atoms: C_2  and  C_3
REMARK    3  A    between atoms: C_7  and  C_8
REMARK    4  A    between atoms: C_8  and  N_9
REMARK    5  A    between atoms: C_13  and  C_14
REMARK                            x       y       z     vdW  Elec       q    Type
REMARK                         _______ _______ _______ _____ _____    ______ ____
ROOT
ATOM      1  N   UNL     1      44.434   2.708  11.549  0.00  0.00    +0.000 N 
ATOM      2  C   UNL     1      45.275   3.564  12.239  0.00  0.00    +0.000 A 
ATOM      3  C   UNL     1      45.182   4.962  12.212  0.00  0.00    +0.000 A 
ATOM      4  N   UNL     1      45.971   5.801  12.934  0.00  0.00    +0.000 NA
ATOM      5  C   UNL     1      46.869   5.172  13.737  0.00  0.00    +0.000 A 
ATOM      6  C   UNL     1      46.971   3.790  13.790  0.00  0.00    +0.000 A 
ATOM      7  N   UNL     1      46.186   2.969  13.038  0.00  0.00    +0.000 NA
ATOM      8  H   UNL     1      44.805   1.763  11.609  0.00  0.00    +0.000 HD
ENDROOT
BRANCH   5   9
ATOM      9  C   UNL     1      47.753   6.020  14.580  0.00  0.00    +0.000 C 
ATOM     10  N   UNL     1      47.617   7.372  14.415  0.00  0.00    +0.000 N 
ATOM     11  O   UNL     1      48.552   5.547  15.375  0.00  0.00    +0.000 OA
ATOM     12  H   UNL     1      46.942   7.737  13.752  0.00  0.00    +0.000 HD
ATOM     13  H   UNL     1      48.184   8.004  14.965  0.00  0.00    +0.000 HD
ENDBRANCH   5   9
BRANCH   1  14
ATOM     14  C   UNL     1      43.929   3.097  10.247  0.00  0.00    +0.000 C 
BRANCH  14  19
ATOM     15  C   UNL     1      46.563   1.989   7.699  0.00  0.00    +0.000 A 
ATOM     16  C   UNL     1      46.933   3.223   7.148  0.00  0.00    +0.000 A 
ATOM     17  C   UNL     1      46.380   4.408   7.634  0.00  0.00    +0.000 A 
ATOM     18  C   UNL     1      45.439   4.371   8.665  0.00  0.00    +0.000 A 
ATOM     19  C   UNL     1      45.041   3.149   9.224  0.00  0.00    +0.000 A 
ATOM     20  C   UNL     1      45.620   1.964   8.739  0.00  0.00    +0.000 A 
BRANCH  15  21
ATOM     21  C   UNL     1      47.101   0.705   7.123  0.00  0.00    +0.000 C 
BRANCH  21  22
ATOM     22  N   UNL     1      46.672  -0.438   7.921  0.00  0.00    +0.000 NA
ATOM     23  H   UNL     1      46.768  -0.214   8.908  0.00  0.00    +0.000 HD
ATOM     24  H   UNL     1      47.299  -1.221   7.737  0.00  0.00    +0.000 HD
ENDBRANCH  21  22
ENDBRANCH  15  21
ENDBRANCH  14  19
ENDBRANCH   1  14
TORSDOF 5
ENDMDL
MODEL 4
REMARK VINA RESULT:    -7.375      2.707      6.516
REMARK INTER + INTRA:          -9.768
REMARK INTER:                  -9.371
REMARK INTRA:                  -0.397
REMARK UNBOUND:                -0.453
REMARK  Name = 
REMARK  5 active torsions:
REMARK  status: ('A' for Active; 'I' for Inactive)
REMARK    1  A    between atoms: N_1  and  C_2
REMARK    2  A    between atoms: C_2  and  C_3
REMARK    3  A    between atoms: C_7  and  C_8
REMARK    4  A    between atoms: C_8  and  N_9
REMARK    5  A    between atoms: C_13  and  C_14
REMARK                            x       y       z     vdW  Elec       q    Type
REMARK                         _______ _______ _______ _____ _____    ______ ____
ROOT
ATOM      1  N   UNL     1      43.937   4.202  10.475  0.00  0.00    +0.000 N 
ATOM      2  C   UNL     1      44.925   4.580  11.370  0.00  0.00    +0.000 A 
ATOM      3  C   UNL     1      45.755   5.697  11.210  0.00  0.00    +0.000 A 
ATOM      4  N   UNL     1      46.686   6.101  12.115  0.00  0.00    +0.000 NA
ATOM      5  C   UNL     1      46.739   5.340  13.240  0.00  0.00    +0.000 A 
ATOM      6  C   UNL     1      45.919   4.238  13.426  0.00  0.00    +0.000 A 
ATOM      7  N   UNL     1      45.010   3.837  12.493  0.00  0.00    +0.000 NA
ATOM      8  H   UNL     1      43.590   3.283  10.738  0.00  0.00    +0.000 HD
ENDROOT
BRANCH   5   9
ATOM      9  C   UNL     1      47.714   5.732  14.292  0.00  0.00    +0.000 C 
ATOM     10  N   UNL     1      47.441   5.281  15.555  0.00  0.00    +0.000 N 
ATOM     11  O   UNL     1      48.699   6.413  14.051  0.00  0.00    +0.000 OA
ATOM     12  H   UNL     1      46.619   4.713  15.726  0.00  0.00    +0.000 HD
ATOM     13  H   UNL     1      48.070   5.507  16.315  0.00  0.00    +0.000 HD
ENDBRANCH   5   9
BRANCH   1  14
ATOM     14  C   UNL     1      44.142   4.408   9.055  0.00  0.00    +0.000 C 
BRANCH  14  19
ATOM     15  C   UNL     1      46.845   2.610   7.026  0.00  0.00    +0.000 A 
ATOM     16  C   UNL     1      46.733   1.309   7.532  0.00  0.00    +0.000 A 
ATOM     17  C   UNL     1      45.754   0.999   8.476  0.00  0.00    +0.000 A 
ATOM     18  C   UNL     1      44.888   1.993   8.939  0.00  0.00    +0.000 A 
ATOM     19  C   UNL     1      44.989   3.306   8.460  0.00  0.00    +0.000 A 
ATOM     20  C   UNL     1      45.966   3.600   7.494  0.00  0.00    +0.000 A 
BRANCH  15  21
ATOM     21  C   UNL     1      47.951   2.962   6.064  0.00  0.00    +0.000 C 
BRANCH  21  22
ATOM     22  N   UNL     1      48.580   1.756   5.539  0.00  0.00    +0.000 NA
ATOM     23  H   UNL     1      47.943   1.299   4.891  0.00  0.00    +0.000 HD
ATOM     24  H   UNL     1      48.731   1.103   6.307  0.00  0.00    +0.000 HD
ENDBRANCH  21  22
ENDBRANCH  15  21
ENDBRANCH  14  19
ENDBRANCH   1  14
TORSDOF 5
ENDMDL
MODEL 5
REMARK VINA RESULT:    -6.949      2.634      6.447
REMARK INTER + INTRA:          -9.230
REMARK INTER:                  -9.072
REMARK INTRA:                  -0.158
REMARK UNBOUND:                -0.453
REMARK  Name = 
REMARK  5 active torsions:
REMARK  status: ('A' for Active; 'I' for Inactive)
REMARK    1  A    between atoms: N_1  and  C_2
REMARK    2  A    between atoms: C_2  and  C_3
REMARK    3  A    between atoms: C_7  and  C_8
REMARK    4  A    between atoms: C_8  and  N_9
REMARK    5  A    between atoms: C_13  and  C_14
REMARK                            x       y       z     vdW  Elec       q    Type
REMARK                         _______ _______ _______ _____ _____    ______ ____
ROOT
ATOM      1  N   UNL     1      45.138   5.553  10.818  0.00  0.00    +0.000 N 
ATOM      2  C   UNL     1      45.649   5.133  12.034  0.00  0.00    +0.000 A 
ATOM      3  C   UNL     1      45.852   3.793  12.389  0.00  0.00    +0.000 A 
ATOM      4  N   UNL     1      46.407   3.381  13.560  0.00  0.00    +0.000 NA
ATOM      5  C   UNL     1      46.795   4.393  14.381  0.00  0.00    +0.000 A 
ATOM      6  C   UNL     1      46.616   5.726  14.045  0.00  0.00    +0.000 A 
ATOM      7  N   UNL     1      46.034   6.115  12.876  0.00  0.00    +0.000 NA
ATOM      8  H   UNL     1      44.945   6.550  10.870  0.00  0.00    +0.000 HD
ENDROOT
BRANCH   5   9
ATOM      9  C   UNL     1      47.436   4.027  15.672  0.00  0.00    +0.000 C 
ATOM     10  N   UNL     1      47.250   4.908  16.702  0.00  0.00    +0.000 N 
ATOM     11  O   UNL     1      48.090   3.004  15.811  0.00  0.00    +0.000 OA
ATOM     12  H   UNL     1      46.698   5.747  16.559  0.00  0.00    +0.000 HD
ATOM     13  H   UNL     1      47.654   4.713  17.609  0.00  0.00    +0.000 HD
ENDBRANCH   5   9
BRANCH   1  14
ATOM     14  C   UNL     1      44.124   4.756  10.154  0.00  0.00    +0.000 C 
BRANCH  14  19
ATOM     15  C   UNL     1      46.328   3.129   7.480  0.00  0.00    +0.000 A 
ATOM     16  C   UNL     1      46.108   1.772   7.747  0.00  0.00    +0.000 A 
ATOM     17  C   UNL     1      45.211   1.383   8.742  0.00  0.00    +0.000 A 
ATOM     18  C   UNL     1      44.537   2.349   9.493  0.00  0.00    +0.000 A 
ATOM     19  C   UNL     1      44.751   3.713   9.257  0.00  0.00    +0.000 A 
ATOM     20  C   UNL     1      45.642   4.092   8.238  0.00  0.00    +0.000 A 
BRANCH  15  21
ATOM     21  C   UNL     1      47.354   3.549   6.459  0.00  0.00    +0.000 C 
BRANCH  21  22
ATOM     22  N   UNL     1      48.430   2.568   6.376  0.00  0.00    +0.000 NA
ATOM     23  H   UNL     1      49.272   3.021   6.031  0.00  0.00    +0.000 HD
ATOM     24  H   UNL     1      48.177   1.861   5.686  0.00  0.00    +0.000 HD
ENDBRANCH  21  22
ENDBRANCH  15  21
ENDBRANCH  14  19
ENDBRANCH   1  14
TORSDOF 5
ENDMDL
MODEL 6
REMARK VINA RESULT:    -6.116      3.629      6.233
REMARK INTER + INTRA:          -8.177
REMARK INTER:                  -7.908
REMARK INTRA:                  -0.270
REMARK UNBOUND:                -0.453
REMARK  Name = 
REMARK  5 active torsions:
REMARK  status: ('A' for Active; 'I' for Inactive)
REMARK    1  A    between atoms: N_1  and  C_2
REMARK    2  A    between atoms: C_2  and  C_3
REMARK    3  A    between atoms: C_7  and  C_8
REMARK    4  A    between atoms: C_8  and  N_9
REMARK    5  A    between atoms: C_13  and  C_14
REMARK                            x       y       z     vdW  Elec       q    Type
REMARK                         _______ _______ _______ _____ _____    ______ ____
ROOT
ATOM      1  N   UNL     1      47.179   3.607  14.780  0.00  0.00    +0.000 N 
ATOM      2  C   UNL     1      46.244   4.054  13.863  0.00  0.00    +0.000 A 
ATOM      3  C   UNL     1      45.746   5.363  13.811  0.00  0.00    +0.000 A 
ATOM      4  N   UNL     1      44.871   5.818  12.876  0.00  0.00    +0.000 NA
ATOM      5  C   UNL     1      44.520   4.894  11.942  0.00  0.00    +0.000 A 
ATOM      6  C   UNL     1      45.009   3.598  11.966  0.00  0.00    +0.000 A 
ATOM      7  N   UNL     1      45.867   3.156  12.928  0.00  0.00    +0.000 NA
ATOM      8  H   UNL     1      47.253   2.595  14.707  0.00  0.00    +0.000 HD
ENDROOT
BRANCH   5   9
ATOM      9  C   UNL     1      43.585   5.322  10.867  0.00  0.00    +0.000 C 
ATOM     10  N   UNL     1      42.922   6.499  11.087  0.00  0.00    +0.000 N 
ATOM     11  O   UNL     1      43.416   4.669   9.849  0.00  0.00    +0.000 OA
ATOM     12  H   UNL     1      43.086   7.023  11.939  0.00  0.00    +0.000 HD
ATOM     13  H   UNL     1      42.277   6.848  10.390  0.00  0.00    +0.000 HD
ENDBRANCH   5   9
BRANCH   1  14
ATOM     14  C   UNL     1      47.167   4.134  16.131  0.00  0.00    +0.000 C 
BRANCH  14  19
ATOM     15  C   UNL     1      50.460   2.643  17.391  0.00  0.00    +0.000 A 
ATOM     16  C   UNL     1      51.157   3.805  17.747  0.00  0.00    +0.000 A 
ATOM     17  C   UNL     1      50.549   5.055  17.636  0.00  0.00    +0.000 A 
ATOM     18  C   UNL     1      49.243   5.159  17.152  0.00  0.00    +0.000 A 
ATOM     19  C   UNL     1      48.529   4.013  16.776  0.00  0.00    +0.000 A 
ATOM     20  C   UNL     1      49.145   2.758  16.911  0.00  0.00    +0.000 A 
BRANCH  15  21
ATOM     21  C   UNL     1      51.143   1.300  17.437  0.00  0.00    +0.000 C 
BRANCH  21  22
ATOM     22  N   UNL     1      52.373   1.374  18.217  0.00  0.00    +0.000 NA
ATOM     23  H   UNL     1      52.815   2.276  18.063  0.00  0.00    +0.000 HD
ATOM     24  H   UNL     1      53.023   0.669  17.871  0.00  0.00    +0.000 HD
ENDBRANCH  21  22
ENDBRANCH  15  21
ENDBRANCH  14  19
ENDBRANCH   1  14
TORSDOF 5
ENDMDL
MODEL 7
REMARK VINA RESULT:    -6.029      3.814      7.776
REMARK INTER + INTRA:          -8.068
REMARK INTER:                  -7.822
REMARK INTRA:                  -0.246
REMARK UNBOUND:                -0.453
REMARK  Name = 
REMARK  5 active torsions:
REMARK  status: ('A' for Active; 'I' for Inactive)
REMARK    1  A    between atoms: N_1  and  C_2
REMARK    2  A    between atoms: C_2  and  C_3
REMARK    3  A    between atoms: C_7  and  C_8
REMARK    4  A    between atoms: C_8  and  N_9
REMARK    5  A    between atoms: C_13  and  C_14
REMARK                            x       y       z     vdW  Elec       q    Type
REMARK                         _______ _______ _______ _____ _____    ______ ____
ROOT
ATOM      1  N   UNL     1      46.379   4.516  14.677  0.00  0.00    +0.000 N 
ATOM      2  C   UNL     1      47.450   4.406  15.548  0.00  0.00    +0.000 A 
ATOM      3  C   UNL     1      48.347   5.443  15.838  0.00  0.00    +0.000 A 
ATOM      4  N   UNL     1      49.364   5.353  16.736  0.00  0.00    +0.000 NA
ATOM      5  C   UNL     1      49.439   4.158  17.378  0.00  0.00    +0.000 A 
ATOM      6  C   UNL     1      48.556   3.122  17.117  0.00  0.00    +0.000 A 
ATOM      7  N   UNL     1      47.559   3.226  16.194  0.00  0.00    +0.000 NA
ATOM      8  H   UNL     1      45.985   3.591  14.522  0.00  0.00    +0.000 HD
ENDROOT
BRANCH   5   9
ATOM      9  C   UNL     1      50.510   3.988  18.396  0.00  0.00    +0.000 C 
ATOM     10  N   UNL     1      50.161   4.292  19.685  0.00  0.00    +0.000 N 
ATOM     11  O   UNL     1      51.632   3.601  18.109  0.00  0.00    +0.000 OA
ATOM     12  H   UNL     1      49.220   4.606  19.896  0.00  0.00    +0.000 HD
ATOM     13  H   UNL     1      50.842   4.190  20.426  0.00  0.00    +0.000 HD
ENDBRANCH   5   9
BRANCH   1  14
ATOM     14  C   UNL     1      46.500   5.347  13.495  0.00  0.00    +0.000 C 
BRANCH  14  19
ATOM     15  C   UNL     1      44.252   4.675  10.470  0.00  0.00    +0.000 A 
ATOM     16  C   UNL     1      42.984   4.789  11.053  0.00  0.00    +0.000 A 
ATOM     17  C   UNL     1      42.853   5.139  12.397  0.00  0.00    +0.000 A 
ATOM     18  C   UNL     1      43.990   5.360  13.178  0.00  0.00    +0.000 A 
ATOM     19  C   UNL     1      45.271   5.237  12.623  0.00  0.00    +0.000 A 
ATOM     20  C   UNL     1      45.389   4.905  11.263  0.00  0.00    +0.000 A 
BRANCH  15  21
ATOM     21  C   UNL     1      44.396   4.222   9.040  0.00  0.00    +0.000 C 
BRANCH  21  22
ATOM     22  N   UNL     1      45.531   4.879   8.403  0.00  0.00    +0.000 NA
ATOM     23  H   UNL     1      45.282   5.839   8.179  0.00  0.00    +0.000 HD
ATOM     24  H   UNL     1      45.724   4.415   7.516  0.00  0.00    +0.000 HD
ENDBRANCH  21  22
ENDBRANCH  15  21
ENDBRANCH  14  19
ENDBRANCH   1  14
TORSDOF 5
ENDMDL
MODEL 8
REMARK VINA RESULT:    -5.866      3.183      5.364
REMARK INTER + INTRA:          -7.862
REMARK INTER:                  -7.508
REMARK INTRA:                  -0.354
REMARK UNBOUND:                -0.453
REMARK  Name = 
REMARK  5 active torsions:
REMARK  status: ('A' for Active; 'I' for Inactive)
REMARK    1  A    between atoms: N_1  and  C_2
REMARK    2  A    between atoms: C_2  and  C_3
REMARK    3  A    between atoms: C_7  and  C_8
REMARK    4  A    between atoms: C_8  and  N_9
REMARK    5  A    between atoms: C_13  and  C_14
REMARK                            x       y       z     vdW  Elec       q    Type
REMARK                         _______ _______ _______ _____ _____    ______ ____
ROOT
ATOM      1  N   UNL     1      47.172   7.104  14.020  0.00  0.00    +0.000 N 
ATOM      2  C   UNL     1      46.395   6.349  13.158  0.00  0.00    +0.000 A 
ATOM      3  C   UNL     1      46.381   4.949  13.122  0.00  0.00    +0.000 A 
ATOM      4  N   UNL     1      45.576   4.206  12.316  0.00  0.00    +0.000 NA
ATOM      5  C   UNL     1      44.733   4.938  11.540  0.00  0.00    +0.000 A 
ATOM      6  C   UNL     1      44.720   6.324  11.567  0.00  0.00    +0.000 A 
ATOM      7  N   UNL     1      45.555   7.048  12.366  0.00  0.00    +0.000 NA
ATOM      8  H   UNL     1      47.118   8.080  13.741  0.00  0.00    +0.000 HD
ENDROOT
BRANCH   5   9
ATOM      9  C   UNL     1      43.800   4.199  10.648  0.00  0.00    +0.000 C 
ATOM     10  N   UNL     1      43.855   4.531   9.322  0.00  0.00    +0.000 N 
ATOM     11  O   UNL     1      43.031   3.347  11.067  0.00  0.00    +0.000 OA
ATOM     12  H   UNL     1      44.507   5.238   9.001  0.00  0.00    +0.000 HD
ATOM     13  H   UNL     1      43.251   4.058   8.661  0.00  0.00    +0.000 HD
ENDBRANCH   5   9
BRANCH   1  14
ATOM     14  C   UNL     1      48.493   6.634  14.389  0.00  0.00    +0.000 C 
BRANCH  14  19
ATOM     15  C   UNL     1      48.334   4.612  17.637  0.00  0.00    +0.000 A 
ATOM     16  C   UNL     1      48.895   5.522  18.542  0.00  0.00    +0.000 A 
ATOM     17  C   UNL     1      49.267   6.799  18.121  0.00  0.00    +0.000 A 
ATOM     18  C   UNL     1      49.099   7.174  16.786  0.00  0.00    +0.000 A 
ATOM     19  C   UNL     1      48.554   6.277  15.857  0.00  0.00    +0.000 A 
ATOM     20  C   UNL     1      48.165   5.001  16.297  0.00  0.00    +0.000 A 
BRANCH  15  21
ATOM     21  C   UNL     1      48.004   3.208  18.073  0.00  0.00    +0.000 C 
BRANCH  21  22
ATOM     22  N   UNL     1      46.641   2.857  17.692  0.00  0.00    +0.000 NA
ATOM     23  H   UNL     1      46.586   2.767  16.681  0.00  0.00    +0.000 HD
ATOM     24  H   UNL     1      46.020   3.624  17.950  0.00  0.00    +0.000 HD
ENDBRANCH  21  22
ENDBRANCH  15  21
ENDBRANCH  14  19
ENDBRANCH   1  14
TORSDOF 5
ENDMDL
MODEL 9
REMARK VINA RESULT:    -5.787      4.810      8.321
REMARK INTER + INTRA:          -7.762
REMARK INTER:                  -7.493
REMARK INTRA:                  -0.269
REMARK UNBOUND:                -0.453
REMARK  Name = 
REMARK  5 active torsions:
REMARK  status: ('A' for Active; 'I' for Inactive)
REMARK    1  A    between atoms: N_1  and  C_2
REMARK    2  A    between atoms: C_2  and  C_3
REMARK    3  A    between atoms: C_7  and  C_8
REMARK    4  A    between atoms: C_8  and  N_9
REMARK    5  A    between atoms: C_13  and  C_14
REMARK                            x       y       z     vdW  Elec       q    Type
REMARK                         _______ _______ _______ _____ _____    ______ ____
ROOT
ATOM      1  N   UNL     1      46.714   4.382  15.144  0.00  0.00    +0.000 N 
ATOM      2  C   UNL     1      47.413   4.393  16.339  0.00  0.00    +0.000 A 
ATOM      3  C   UNL     1      48.190   5.466  16.793  0.00  0.00    +0.000 A 
ATOM      4  N   UNL     1      48.830   5.501  17.992  0.00  0.00    +0.000 NA
ATOM      5  C   UNL     1      48.635   4.397  18.762  0.00  0.00    +0.000 A 
ATOM      6  C   UNL     1      47.860   3.329  18.339  0.00  0.00    +0.000 A 
ATOM      7  N   UNL     1      47.248   3.306  17.121  0.00  0.00    +0.000 NA
ATOM      8  H   UNL     1      46.364   3.442  14.976  0.00  0.00    +0.000 HD
ENDROOT
BRANCH   5   9
ATOM      9  C   UNL     1      49.280   4.368  20.102  0.00  0.00    +0.000 C 
ATOM     10  N   UNL     1      50.649   4.391  20.105  0.00  0.00    +0.000 N 
ATOM     11  O   UNL     1      48.636   4.328  21.139  0.00  0.00    +0.000 OA
ATOM     12  H   UNL     1      51.158   4.430  19.229  0.00  0.00    +0.000 HD
ATOM     13  H   UNL     1      51.148   4.381  20.985  0.00  0.00    +0.000 HD
ENDBRANCH   5   9
BRANCH   1  14
ATOM     14  C   UNL     1      47.266   5.056  13.985  0.00  0.00    +0.000 C 
BRANCH  14  19
ATOM     15  C   UNL     1      44.406   4.180  11.596  0.00  0.00    +0.000 A 
ATOM     16  C   UNL     1      44.175   5.424  10.994  0.00  0.00    +0.000 A 
ATOM     17  C   UNL     1      44.973   6.522  11.312  0.00  0.00    +0.000 A 
ATOM     18  C   UNL     1      46.000   6.394  12.250  0.00  0.00    +0.000 A 
ATOM     19  C   UNL     1      46.243   5.165  12.877  0.00  0.00    +0.000 A 
ATOM     20  C   UNL     1      45.445   4.061  12.533  0.00  0.00    +0.000 A 
BRANCH  15  21
ATOM     21  C   UNL     1      43.496   3.014  11.310  0.00  0.00    +0.000 C 
BRANCH  21  22
ATOM     22  N   UNL     1      43.496   2.074  12.425  0.00  0.00    +0.000 NA
ATOM     23  H   UNL     1      42.570   2.049  12.845  0.00  0.00    +0.000 HD
ATOM     24  H   UNL     1      44.132   2.419  13.145  0.00  0.00    +0.000 HD
ENDBRANCH  21  22
ENDBRANCH  15  21
ENDBRANCH  14  19
ENDBRANCH   1  14
TORSDOF 5
ENDMDL
