MODEL 1
REMARK VINA RESULT:    -8.358      0.000      0.000
REMARK INTER + INTRA:         -11.325
REMARK INTER:                 -10.801
REMARK INTRA:                  -0.524
REMARK UNBOUND:                -0.524
REMARK  Name = 
REMARK  5 active torsions:
REMARK  status: ('A' for Active; 'I' for Inactive)
REMARK    1  A    between atoms: C_2  and  C_4
REMARK    2  A    between atoms: C_7  and  N_8
REMARK    3  A    between atoms: N_8  and  C_9
REMARK    4  A    between atoms: C_9  and  C_10
REMARK    5  A    between atoms: C_13  and  C_14
REMARK                            x       y       z     vdW  Elec       q    Type
REMARK                         _______ _______ _______ _____ _____    ______ ____
ROOT
ATOM      1  N   UNL     1      43.774   4.613  10.153  0.00  0.00    +0.000 N 
ATOM      2  H   UNL     1      42.819   4.460   9.835  0.00  0.00    +0.000 HD
ENDROOT
BRANCH   1   6
ATOM      3  C   UNL     1      46.388   2.340   7.830  0.00  0.00    +0.000 A 
ATOM      4  C   UNL     1      46.408   3.715   7.654  0.00  0.00    +0.000 A 
ATOM      5  C   UNL     1      45.542   4.499   8.419  0.00  0.00    +0.000 A 
ATOM      6  C   UNL     1      44.713   3.912   9.374  0.00  0.00    +0.000 A 
ATOM      7  C   UNL     1      44.754   2.511   9.438  0.00  0.00    +0.000 A 
ATOM      8  N   UNL     1      45.563   1.705   8.706  0.00  0.00    +0.000 NA
BRANCH   3  10
ATOM      9  N   UNL     1      48.410   2.087   6.512  0.00  0.00    +0.000 N 
ATOM     10  C   UNL     1      47.295   1.469   7.012  0.00  0.00    +0.000 C 
ATOM     11  O   UNL     1      47.065   0.284   6.809  0.00  0.00    +0.000 OA
ATOM     12  H   UNL     1      49.071   1.554   5.967  0.00  0.00    +0.000 HD
ATOM     13  H   UNL     1      48.576   3.063   6.722  0.00  0.00    +0.000 HD
ENDBRANCH   3  10
ENDBRANCH   1   6
BRANCH   1  14
ATOM     14  C   UNL     1      43.906   4.920  11.590  0.00  0.00    +0.000 C 
ATOM     15  C   UNL     1      43.331   3.848  12.511  0.00  0.00    +0.000 C 
ATOM     16  C   UNL     1      42.705   5.202  12.474  0.00  0.00    +0.000 C 
BRANCH  14  17
ATOM     17  C   UNL     1      45.231   5.569  11.988  0.00  0.00    +0.000 A 
ATOM     18  C   UNL     1      46.123   4.927  12.865  0.00  0.00    +0.000 A 
ATOM     19  C   UNL     1      47.366   5.478  13.189  0.00  0.00    +0.000 A 
ATOM     20  C   UNL     1      47.766   6.698  12.638  0.00  0.00    +0.000 A 
ATOM     21  C   UNL     1      46.883   7.367  11.780  0.00  0.00    +0.000 A 
ATOM     22  C   UNL     1      45.635   6.812  11.470  0.00  0.00    +0.000 A 
BRANCH  20  23
ATOM     23  C   UNL     1      49.124   7.284  12.939  0.00  0.00    +0.000 C 
ATOM     24  F   UNL     1      49.667   6.833  14.104  0.00  0.00    +0.000 F 
ATOM     25  F   UNL     1      50.036   7.001  11.968  0.00  0.00    +0.000 F 
ATOM     26  F   UNL     1      49.096   8.641  13.041  0.00  0.00    +0.000 F 
ENDBRANCH  20  23
ENDBRANCH  14  17
ENDBRANCH   1  14
TORSDOF 5
ENDMDL
MODEL 2
REMARK VINA RESULT:    -8.271      4.521      7.057
REMARK INTER + INTRA:         -11.213
REMARK INTER:                 -10.506
REMARK INTRA:                  -0.707
REMARK UNBOUND:                -0.524
REMARK  Name = 
REMARK  5 active torsions:
REMARK  status: ('A' for Active; 'I' for Inactive)
REMARK    1  A    between atoms: C_2  and  C_4
REMARK    2  A    between atoms: C_7  and  N_8
REMARK    3  A    between atoms: N_8  and  C_9
REMARK    4  A    between atoms: C_9  and  C_10
REMARK    5  A    between atoms: C_13  and  C_14
REMARK                            x       y       z     vdW  Elec       q    Type
REMARK                         _______ _______ _______ _____ _____    ______ ____
ROOT
ATOM      1  N   UNL     1      44.600   6.213  10.982  0.00  0.00    +0.000 N 
ATOM      2  H   UNL     1      44.458   6.707  10.104  0.00  0.00    +0.000 HD
ENDROOT
BRANCH   1   6
ATOM      3  C   UNL     1      47.275   8.144  13.534  0.00  0.00    +0.000 A 
ATOM      4  C   UNL     1      47.686   6.950  12.963  0.00  0.00    +0.000 A 
ATOM      5  C   UNL     1      46.809   6.282  12.105  0.00  0.00    +0.000 A 
ATOM      6  C   UNL     1      45.568   6.835  11.792  0.00  0.00    +0.000 A 
ATOM      7  C   UNL     1      45.248   8.029  12.456  0.00  0.00    +0.000 A 
ATOM      8  N   UNL     1      46.056   8.705  13.311  0.00  0.00    +0.000 NA
BRANCH   3  10
ATOM      9  N   UNL     1      47.645   9.208  15.684  0.00  0.00    +0.000 N 
ATOM     10  C   UNL     1      48.188   8.877  14.472  0.00  0.00    +0.000 C 
ATOM     11  O   UNL     1      49.345   9.156  14.182  0.00  0.00    +0.000 OA
ATOM     12  H   UNL     1      48.211   9.688  16.368  0.00  0.00    +0.000 HD
ATOM     13  H   UNL     1      46.692   8.940  15.894  0.00  0.00    +0.000 HD
ENDBRANCH   3  10
ENDBRANCH   1   6
BRANCH   1  14
ATOM     14  C   UNL     1      44.326   4.765  10.930  0.00  0.00    +0.000 C 
ATOM     15  C   UNL     1      42.891   4.388  11.288  0.00  0.00    +0.000 C 
ATOM     16  C   UNL     1      44.011   3.952  12.172  0.00  0.00    +0.000 C 
BRANCH  14  17
ATOM     17  C   UNL     1      44.988   4.028   9.765  0.00  0.00    +0.000 A 
ATOM     18  C   UNL     1      45.651   4.728   8.743  0.00  0.00    +0.000 A 
ATOM     19  C   UNL     1      46.316   4.067   7.705  0.00  0.00    +0.000 A 
ATOM     20  C   UNL     1      46.343   2.671   7.657  0.00  0.00    +0.000 A 
ATOM     21  C   UNL     1      45.667   1.953   8.653  0.00  0.00    +0.000 A 
ATOM     22  C   UNL     1      44.996   2.625   9.682  0.00  0.00    +0.000 A 
BRANCH  20  23
ATOM     23  C   UNL     1      47.096   1.941   6.572  0.00  0.00    +0.000 C 
ATOM     24  F   UNL     1      46.842   0.604   6.536  0.00  0.00    +0.000 F 
ATOM     25  F   UNL     1      46.796   2.410   5.328  0.00  0.00    +0.000 F 
ATOM     26  F   UNL     1      48.445   2.062   6.700  0.00  0.00    +0.000 F 
ENDBRANCH  20  23
ENDBRANCH  14  17
ENDBRANCH   1  14
TORSDOF 5
ENDMDL
MODEL 3
REMARK VINA RESULT:    -8.241      4.514      6.831
REMARK INTER + INTRA:         -11.174
REMARK INTER:                 -10.532
REMARK INTRA:                  -0.642
REMARK UNBOUND:                -0.524
REMARK  Name = 
REMARK  5 active torsions:
REMARK  status: ('A' for Active; 'I' for Inactive)
REMARK    1  A    between atoms: C_2  and  C_4
REMARK    2  A    between atoms: C_7  and  N_8
REMARK    3  A    between atoms: N_8  and  C_9
REMARK    4  A    between atoms: C_9  and  C_10
REMARK    5  A    between atoms: C_13  and  C_14
REMARK                            x       y       z     vdW  Elec       q    Type
REMARK                         _______ _______ _______ _____ _____    ______ ____
ROOT
ATOM      1  N   UNL     1      45.649   5.384  11.867  0.00  0.00    +0.000 N 
ATOM      2  H   UNL     1      46.296   5.963  11.336  0.00  0.00    +0.000 HD
ENDROOT
BRANCH   1   6
ATOM      3  C   UNL     1      47.452   3.798  15.277  0.00  0.00    +0.000 A 
ATOM      4  C   UNL     1      47.248   5.170  15.241  0.00  0.00    +0.000 A 
ATOM      5  C   UNL     1      46.647   5.726  14.110  0.00  0.00    +0.000 A 
ATOM      6  C   UNL     1      46.215   4.911  13.064  0.00  0.00    +0.000 A 
ATOM      7  C   UNL     1      46.506   3.545  13.197  0.00  0.00    +0.000 A 
ATOM      8  N   UNL     1      47.102   2.959  14.266  0.00  0.00    +0.000 NA
BRANCH   3  10
ATOM      9  N   UNL     1      47.318   3.055  17.583  0.00  0.00    +0.000 N 
ATOM     10  C   UNL     1      48.108   3.172  16.472  0.00  0.00    +0.000 C 
ATOM     11  O   UNL     1      49.269   2.784  16.458  0.00  0.00    +0.000 OA
ATOM     12  H   UNL     1      47.693   2.627  18.417  0.00  0.00    +0.000 HD
ATOM     13  H   UNL     1      46.356   3.367  17.548  0.00  0.00    +0.000 HD
ENDBRANCH   3  10
ENDBRANCH   1   6
BRANCH   1  14
ATOM     14  C   UNL     1      44.643   4.675  11.053  0.00  0.00    +0.000 C 
ATOM     15  C   UNL     1      43.302   5.397  10.950  0.00  0.00    +0.000 C 
ATOM     16  C   UNL     1      43.381   4.084  11.654  0.00  0.00    +0.000 C 
BRANCH  14  17
ATOM     17  C   UNL     1      45.193   4.007   9.792  0.00  0.00    +0.000 A 
ATOM     18  C   UNL     1      45.804   4.761   8.775  0.00  0.00    +0.000 A 
ATOM     19  C   UNL     1      46.368   4.159   7.646  0.00  0.00    +0.000 A 
ATOM     20  C   UNL     1      46.343   2.770   7.497  0.00  0.00    +0.000 A 
ATOM     21  C   UNL     1      45.718   2.000   8.488  0.00  0.00    +0.000 A 
ATOM     22  C   UNL     1      45.146   2.614   9.610  0.00  0.00    +0.000 A 
BRANCH  20  23
ATOM     23  C   UNL     1      46.989   2.100   6.309  0.00  0.00    +0.000 C 
ATOM     24  F   UNL     1      48.325   2.343   6.205  0.00  0.00    +0.000 F 
ATOM     25  F   UNL     1      46.860   0.744   6.345  0.00  0.00    +0.000 F 
ATOM     26  F   UNL     1      46.444   2.496   5.127  0.00  0.00    +0.000 F 
ENDBRANCH  20  23
ENDBRANCH  14  17
ENDBRANCH   1  14
TORSDOF 5
ENDMDL
MODEL 4
REMARK VINA RESULT:    -7.806      4.472      6.850
REMARK INTER + INTRA:         -10.612
REMARK INTER:                  -9.909
REMARK INTRA:                  -0.703
REMARK UNBOUND:                -0.524
REMARK  Name = 
REMARK  5 active torsions:
REMARK  status: ('A' for Active; 'I' for Inactive)
REMARK    1  A    between atoms: C_2  and  C_4
REMARK    2  A    between atoms: C_7  and  N_8
REMARK    3  A    between atoms: N_8  and  C_9
REMARK    4  A    between atoms: C_9  and  C_10
REMARK    5  A    between atoms: C_13  and  C_14
REMARK                            x       y       z     vdW  Elec       q    Type
REMARK                         _______ _______ _______ _____ _____    ______ ____
ROOT
ATOM      1  N   UNL     1      44.846   5.886  11.621  0.00  0.00    +0.000 N 
ATOM      2  H   UNL     1      44.864   6.658  10.959  0.00  0.00    +0.000 HD
ENDROOT
BRANCH   1   6
ATOM      3  C   UNL     1      47.869   6.382  14.451  0.00  0.00    +0.000 A 
ATOM      4  C   UNL     1      47.220   5.157  14.418  0.00  0.00    +0.000 A 
ATOM      5  C   UNL     1      46.203   4.965  13.480  0.00  0.00    +0.000 A 
ATOM      6  C   UNL     1      45.886   5.969  12.565  0.00  0.00    +0.000 A 
ATOM      7  C   UNL     1      46.585   7.175  12.717  0.00  0.00    +0.000 A 
ATOM      8  N   UNL     1      47.567   7.417  13.621  0.00  0.00    +0.000 NA
BRANCH   3  10
ATOM      9  N   UNL     1      48.538   6.754  16.754  0.00  0.00    +0.000 N 
ATOM     10  C   UNL     1      48.956   6.624  15.457  0.00  0.00    +0.000 C 
ATOM     11  O   UNL     1      50.138   6.693  15.147  0.00  0.00    +0.000 OA
ATOM     12  H   UNL     1      49.220   6.902  17.483  0.00  0.00    +0.000 HD
ATOM     13  H   UNL     1      47.553   6.668  16.973  0.00  0.00    +0.000 HD
ENDBRANCH   3  10
ENDBRANCH   1   6
BRANCH   1  14
ATOM     14  C   UNL     1      44.253   4.639  11.102  0.00  0.00    +0.000 C 
ATOM     15  C   UNL     1      42.728   4.650  11.045  0.00  0.00    +0.000 C 
ATOM     16  C   UNL     1      43.425   3.710  11.970  0.00  0.00    +0.000 C 
BRANCH  14  17
ATOM     17  C   UNL     1      45.008   4.010   9.930  0.00  0.00    +0.000 A 
ATOM     18  C   UNL     1      45.057   2.616   9.759  0.00  0.00    +0.000 A 
ATOM     19  C   UNL     1      45.688   2.028   8.659  0.00  0.00    +0.000 A 
ATOM     20  C   UNL     1      46.294   2.822   7.682  0.00  0.00    +0.000 A 
ATOM     21  C   UNL     1      46.279   4.214   7.845  0.00  0.00    +0.000 A 
ATOM     22  C   UNL     1      45.653   4.793   8.956  0.00  0.00    +0.000 A 
BRANCH  20  23
ATOM     23  C   UNL     1      46.939   2.206   6.464  0.00  0.00    +0.000 C 
ATOM     24  F   UNL     1      46.841   0.849   6.422  0.00  0.00    +0.000 F 
ATOM     25  F   UNL     1      46.386   2.656   5.303  0.00  0.00    +0.000 F 
ATOM     26  F   UNL     1      48.267   2.488   6.378  0.00  0.00    +0.000 F 
ENDBRANCH  20  23
ENDBRANCH  14  17
ENDBRANCH   1  14
TORSDOF 5
ENDMDL
MODEL 5
REMARK VINA RESULT:    -6.703      2.210      3.164
REMARK INTER + INTRA:          -9.186
REMARK INTER:                  -8.297
REMARK INTRA:                  -0.889
REMARK UNBOUND:                -0.524
REMARK  Name = 
REMARK  5 active torsions:
REMARK  status: ('A' for Active; 'I' for Inactive)
REMARK    1  A    between atoms: C_2  and  C_4
REMARK    2  A    between atoms: C_7  and  N_8
REMARK    3  A    between atoms: N_8  and  C_9
REMARK    4  A    between atoms: C_9  and  C_10
REMARK    5  A    between atoms: C_13  and  C_14
REMARK                            x       y       z     vdW  Elec       q    Type
REMARK                         _______ _______ _______ _____ _____    ______ ____
ROOT
ATOM      1  N   UNL     1      44.343   5.371  10.314  0.00  0.00    +0.000 N 
ATOM      2  H   UNL     1      43.395   5.166  10.621  0.00  0.00    +0.000 HD
ENDROOT
BRANCH   1   6
ATOM      3  C   UNL     1      46.215   2.390   8.077  0.00  0.00    +0.000 A 
ATOM      4  C   UNL     1      45.347   1.986   9.080  0.00  0.00    +0.000 A 
ATOM      5  C   UNL     1      44.708   2.965   9.844  0.00  0.00    +0.000 A 
ATOM      6  C   UNL     1      44.901   4.317   9.567  0.00  0.00    +0.000 A 
ATOM      7  C   UNL     1      45.827   4.606   8.554  0.00  0.00    +0.000 A 
ATOM      8  N   UNL     1      46.487   3.694   7.796  0.00  0.00    +0.000 NA
BRANCH   3  10
ATOM      9  N   UNL     1      46.784   0.068   7.666  0.00  0.00    +0.000 N 
ATOM     10  C   UNL     1      46.929   1.363   7.248  0.00  0.00    +0.000 C 
ATOM     11  O   UNL     1      47.590   1.656   6.260  0.00  0.00    +0.000 OA
ATOM     12  H   UNL     1      47.226  -0.675   7.144  0.00  0.00    +0.000 HD
ATOM     13  H   UNL     1      46.211  -0.136   8.474  0.00  0.00    +0.000 HD
ENDBRANCH   3  10
ENDBRANCH   1   6
BRANCH   1  14
ATOM     14  C   UNL     1      45.090   6.295  11.189  0.00  0.00    +0.000 C 
ATOM     15  C   UNL     1      44.406   7.643  11.401  0.00  0.00    +0.000 C 
ATOM     16  C   UNL     1      45.707   7.582  10.673  0.00  0.00    +0.000 C 
BRANCH  14  17
ATOM     17  C   UNL     1      45.759   5.636  12.395  0.00  0.00    +0.000 A 
ATOM     18  C   UNL     1      47.023   6.054  12.846  0.00  0.00    +0.000 A 
ATOM     19  C   UNL     1      47.620   5.505  13.986  0.00  0.00    +0.000 A 
ATOM     20  C   UNL     1      46.966   4.513  14.720  0.00  0.00    +0.000 A 
ATOM     21  C   UNL     1      45.715   4.064  14.274  0.00  0.00    +0.000 A 
ATOM     22  C   UNL     1      45.130   4.612  13.126  0.00  0.00    +0.000 A 
BRANCH  20  23
ATOM     23  C   UNL     1      47.573   3.943  15.979  0.00  0.00    +0.000 C 
ATOM     24  F   UNL     1      48.145   2.720  15.803  0.00  0.00    +0.000 F 
ATOM     25  F   UNL     1      48.552   4.742  16.488  0.00  0.00    +0.000 F 
ATOM     26  F   UNL     1      46.660   3.790  16.976  0.00  0.00    +0.000 F 
ENDBRANCH  20  23
ENDBRANCH  14  17
ENDBRANCH   1  14
TORSDOF 5
ENDMDL
MODEL 6
REMARK VINA RESULT:    -6.255      4.976      7.232
REMARK INTER + INTRA:          -8.607
REMARK INTER:                  -8.242
REMARK INTRA:                  -0.365
REMARK UNBOUND:                -0.524
REMARK  Name = 
REMARK  5 active torsions:
REMARK  status: ('A' for Active; 'I' for Inactive)
REMARK    1  A    between atoms: C_2  and  C_4
REMARK    2  A    between atoms: C_7  and  N_8
REMARK    3  A    between atoms: N_8  and  C_9
REMARK    4  A    between atoms: C_9  and  C_10
REMARK    5  A    between atoms: C_13  and  C_14
REMARK                            x       y       z     vdW  Elec       q    Type
REMARK                         _______ _______ _______ _____ _____    ______ ____
ROOT
ATOM      1  N   UNL     1      47.390   6.552  12.916  0.00  0.00    +0.000 N 
ATOM      2  H   UNL     1      48.187   6.440  12.295  0.00  0.00    +0.000 HD
ENDROOT
BRANCH   1   6
ATOM      3  C   UNL     1      47.968   4.412  16.450  0.00  0.00    +0.000 A 
ATOM      4  C   UNL     1      48.536   5.674  16.367  0.00  0.00    +0.000 A 
ATOM      5  C   UNL     1      48.358   6.411  15.194  0.00  0.00    +0.000 A 
ATOM      6  C   UNL     1      47.582   5.906  14.152  0.00  0.00    +0.000 A 
ATOM      7  C   UNL     1      47.086   4.607  14.335  0.00  0.00    +0.000 A 
ATOM      8  N   UNL     1      47.246   3.844  15.446  0.00  0.00    +0.000 NA
BRANCH   3  10
ATOM      9  N   UNL     1      47.146   2.705  17.965  0.00  0.00    +0.000 N 
ATOM     10  C   UNL     1      48.153   3.589  17.690  0.00  0.00    +0.000 C 
ATOM     11  O   UNL     1      49.140   3.691  18.408  0.00  0.00    +0.000 OA
ATOM     12  H   UNL     1      47.216   2.109  18.777  0.00  0.00    +0.000 HD
ATOM     13  H   UNL     1      46.357   2.633  17.335  0.00  0.00    +0.000 HD
ENDBRANCH   3  10
ENDBRANCH   1   6
BRANCH   1  14
ATOM     14  C   UNL     1      46.095   6.733  12.234  0.00  0.00    +0.000 C 
ATOM     15  C   UNL     1      45.788   8.179  11.852  0.00  0.00    +0.000 C 
ATOM     16  C   UNL     1      44.941   7.489  12.868  0.00  0.00    +0.000 C 
BRANCH  14  17
ATOM     17  C   UNL     1      45.741   5.638  11.228  0.00  0.00    +0.000 A 
ATOM     18  C   UNL     1      46.048   5.775   9.863  0.00  0.00    +0.000 A 
ATOM     19  C   UNL     1      45.789   4.757   8.941  0.00  0.00    +0.000 A 
ATOM     20  C   UNL     1      45.211   3.555   9.357  0.00  0.00    +0.000 A 
ATOM     21  C   UNL     1      44.873   3.406  10.709  0.00  0.00    +0.000 A 
ATOM     22  C   UNL     1      45.127   4.436  11.623  0.00  0.00    +0.000 A 
BRANCH  20  23
ATOM     23  C   UNL     1      44.968   2.427   8.384  0.00  0.00    +0.000 C 
ATOM     24  F   UNL     1      46.088   1.715   8.082  0.00  0.00    +0.000 F 
ATOM     25  F   UNL     1      44.068   1.520   8.857  0.00  0.00    +0.000 F 
ATOM     26  F   UNL     1      44.469   2.862   7.195  0.00  0.00    +0.000 F 
ENDBRANCH  20  23
ENDBRANCH  14  17
ENDBRANCH   1  14
TORSDOF 5
ENDMDL
MODEL 7
REMARK VINA RESULT:    -6.195      3.296      4.751
REMARK INTER + INTRA:          -8.529
REMARK INTER:                  -8.171
REMARK INTRA:                  -0.359
REMARK UNBOUND:                -0.524
REMARK  Name = 
REMARK  5 active torsions:
REMARK  status: ('A' for Active; 'I' for Inactive)
REMARK    1  A    between atoms: C_2  and  C_4
REMARK    2  A    between atoms: C_7  and  N_8
REMARK    3  A    between atoms: N_8  and  C_9
REMARK    4  A    between atoms: C_9  and  C_10
REMARK    5  A    between atoms: C_13  and  C_14
REMARK                            x       y       z     vdW  Elec       q    Type
REMARK                         _______ _______ _______ _____ _____    ______ ____
ROOT
ATOM      1  N   UNL     1      45.908   6.301  13.131  0.00  0.00    +0.000 N 
ATOM      2  H   UNL     1      45.185   6.221  13.842  0.00  0.00    +0.000 HD
ENDROOT
BRANCH   1   6
ATOM      3  C   UNL     1      44.980   3.730   9.980  0.00  0.00    +0.000 A 
ATOM      4  C   UNL     1      45.344   5.029   9.659  0.00  0.00    +0.000 A 
ATOM      5  C   UNL     1      45.659   5.910  10.696  0.00  0.00    +0.000 A 
ATOM      6  C   UNL     1      45.656   5.475  12.020  0.00  0.00    +0.000 A 
ATOM      7  C   UNL     1      45.239   4.151  12.225  0.00  0.00    +0.000 A 
ATOM      8  N   UNL     1      44.906   3.263  11.256  0.00  0.00    +0.000 NA
BRANCH   3  10
ATOM      9  N   UNL     1      44.437   3.317   7.651  0.00  0.00    +0.000 N 
ATOM     10  C   UNL     1      44.622   2.764   8.890  0.00  0.00    +0.000 C 
ATOM     11  O   UNL     1      44.509   1.561   9.086  0.00  0.00    +0.000 OA
ATOM     12  H   UNL     1      44.210   2.721   6.870  0.00  0.00    +0.000 HD
ATOM     13  H   UNL     1      44.562   4.314   7.525  0.00  0.00    +0.000 HD
ENDBRANCH   3  10
ENDBRANCH   1   6
BRANCH   1  14
ATOM     14  C   UNL     1      47.241   6.669  13.643  0.00  0.00    +0.000 C 
ATOM     15  C   UNL     1      47.521   8.169  13.631  0.00  0.00    +0.000 C 
ATOM     16  C   UNL     1      48.318   7.264  12.753  0.00  0.00    +0.000 C 
BRANCH  14  17
ATOM     17  C   UNL     1      47.707   5.865  14.857  0.00  0.00    +0.000 A 
ATOM     18  C   UNL     1      47.146   4.613  15.161  0.00  0.00    +0.000 A 
ATOM     19  C   UNL     1      47.605   3.837  16.230  0.00  0.00    +0.000 A 
ATOM     20  C   UNL     1      48.652   4.291  17.037  0.00  0.00    +0.000 A 
ATOM     21  C   UNL     1      49.210   5.548  16.766  0.00  0.00    +0.000 A 
ATOM     22  C   UNL     1      48.736   6.322  15.700  0.00  0.00    +0.000 A 
BRANCH  20  23
ATOM     23  C   UNL     1      49.192   3.446  18.165  0.00  0.00    +0.000 C 
ATOM     24  F   UNL     1      48.223   2.838  18.903  0.00  0.00    +0.000 F 
ATOM     25  F   UNL     1      50.005   2.447  17.721  0.00  0.00    +0.000 F 
ATOM     26  F   UNL     1      49.936   4.168  19.047  0.00  0.00    +0.000 F 
ENDBRANCH  20  23
ENDBRANCH  14  17
ENDBRANCH   1  14
TORSDOF 5
ENDMDL
MODEL 8
REMARK VINA RESULT:    -5.947      3.506      5.370
REMARK INTER + INTRA:          -8.210
REMARK INTER:                  -7.734
REMARK INTRA:                  -0.475
REMARK UNBOUND:                -0.524
REMARK  Name = 
REMARK  5 active torsions:
REMARK  status: ('A' for Active; 'I' for Inactive)
REMARK    1  A    between atoms: C_2  and  C_4
REMARK    2  A    between atoms: C_7  and  N_8
REMARK    3  A    between atoms: N_8  and  C_9
REMARK    4  A    between atoms: C_9  and  C_10
REMARK    5  A    between atoms: C_13  and  C_14
REMARK                            x       y       z     vdW  Elec       q    Type
REMARK                         _______ _______ _______ _____ _____    ______ ____
ROOT
ATOM      1  N   UNL     1      46.678   7.190  13.532  0.00  0.00    +0.000 N 
ATOM      2  H   UNL     1      46.236   7.369  14.431  0.00  0.00    +0.000 HD
ENDROOT
BRANCH   1   6
ATOM      3  C   UNL     1      44.709   4.012  11.682  0.00  0.00    +0.000 A 
ATOM      4  C   UNL     1      45.013   5.117  10.901  0.00  0.00    +0.000 A 
ATOM      5  C   UNL     1      45.671   6.195  11.497  0.00  0.00    +0.000 A 
ATOM      6  C   UNL     1      46.059   6.136  12.835  0.00  0.00    +0.000 A 
ATOM      7  C   UNL     1      45.667   4.984  13.532  0.00  0.00    +0.000 A 
ATOM      8  N   UNL     1      45.012   3.919  13.005  0.00  0.00    +0.000 NA
BRANCH   3  10
ATOM      9  N   UNL     1      44.586   2.293   9.974  0.00  0.00    +0.000 N 
ATOM     10  C   UNL     1      43.989   2.845  11.075  0.00  0.00    +0.000 C 
ATOM     11  O   UNL     1      42.942   2.404  11.533  0.00  0.00    +0.000 OA
ATOM     12  H   UNL     1      44.162   1.494   9.526  0.00  0.00    +0.000 HD
ATOM     13  H   UNL     1      45.463   2.671   9.639  0.00  0.00    +0.000 HD
ENDBRANCH   3  10
ENDBRANCH   1   6
BRANCH   1  14
ATOM     14  C   UNL     1      48.109   7.541  13.465  0.00  0.00    +0.000 C 
ATOM     15  C   UNL     1      48.382   8.940  12.918  0.00  0.00    +0.000 C 
ATOM     16  C   UNL     1      48.834   7.746  12.147  0.00  0.00    +0.000 C 
BRANCH  14  17
ATOM     17  C   UNL     1      48.944   7.062  14.652  0.00  0.00    +0.000 A 
ATOM     18  C   UNL     1      48.397   6.220  15.636  0.00  0.00    +0.000 A 
ATOM     19  C   UNL     1      49.165   5.722  16.693  0.00  0.00    +0.000 A 
ATOM     20  C   UNL     1      50.519   6.050  16.801  0.00  0.00    +0.000 A 
ATOM     21  C   UNL     1      51.079   6.908  15.845  0.00  0.00    +0.000 A 
ATOM     22  C   UNL     1      50.299   7.410  14.796  0.00  0.00    +0.000 A 
BRANCH  20  23
ATOM     23  C   UNL     1      51.374   5.484  17.908  0.00  0.00    +0.000 C 
ATOM     24  F   UNL     1      52.126   4.415  17.525  0.00  0.00    +0.000 F 
ATOM     25  F   UNL     1      52.252   6.399  18.403  0.00  0.00    +0.000 F 
ATOM     26  F   UNL     1      50.637   5.060  18.971  0.00  0.00    +0.000 F 
ENDBRANCH  20  23
ENDBRANCH  14  17
ENDBRANCH   1  14
TORSDOF 5
ENDMDL
MODEL 9
REMARK VINA RESULT:    -5.831      3.564      5.421
REMARK INTER + INTRA:          -8.059
REMARK INTER:                  -7.264
REMARK INTRA:                  -0.796
REMARK UNBOUND:                -0.524
REMARK  Name = 
REMARK  5 active torsions:
REMARK  status: ('A' for Active; 'I' for Inactive)
REMARK    1  A    between atoms: C_2  and  C_4
REMARK    2  A    between atoms: C_7  and  N_8
REMARK    3  A    between atoms: N_8  and  C_9
REMARK    4  A    between atoms: C_9  and  C_10
REMARK    5  A    between atoms: C_13  and  C_14
REMARK                            x       y       z     vdW  Elec       q    Type
REMARK                         _______ _______ _______ _____ _____    ______ ____
ROOT
ATOM      1  N   UNL     1      46.480   7.714  12.589  0.00  0.00    +0.000 N 
ATOM      2  H   UNL     1      45.884   8.395  13.054  0.00  0.00    +0.000 HD
ENDROOT
BRANCH   1   6
ATOM      3  C   UNL     1      44.596   4.153  11.510  0.00  0.00    +0.000 A 
ATOM      4  C   UNL     1      44.811   4.378  12.862  0.00  0.00    +0.000 A 
ATOM      5  C   UNL     1      45.441   5.563  13.249  0.00  0.00    +0.000 A 
ATOM      6  C   UNL     1      45.797   6.519  12.299  0.00  0.00    +0.000 A 
ATOM      7  C   UNL     1      45.561   6.166  10.962  0.00  0.00    +0.000 A 
ATOM      8  N   UNL     1      44.971   5.022  10.533  0.00  0.00    +0.000 NA
BRANCH   3  10
ATOM      9  N   UNL     1      44.485   2.295   9.953  0.00  0.00    +0.000 N 
ATOM     10  C   UNL     1      43.936   2.883  11.061  0.00  0.00    +0.000 C 
ATOM     11  O   UNL     1      42.977   2.395  11.645  0.00  0.00    +0.000 OA
ATOM     12  H   UNL     1      44.098   1.429   9.607  0.00  0.00    +0.000 HD
ATOM     13  H   UNL     1      45.292   2.716   9.511  0.00  0.00    +0.000 HD
ENDBRANCH   3  10
ENDBRANCH   1   6
BRANCH   1  14
ATOM     14  C   UNL     1      47.916   7.829  12.907  0.00  0.00    +0.000 C 
ATOM     15  C   UNL     1      48.670   8.829  12.036  0.00  0.00    +0.000 C 
ATOM     16  C   UNL     1      49.000   7.377  11.945  0.00  0.00    +0.000 C 
BRANCH  14  17
ATOM     17  C   UNL     1      48.247   7.788  14.399  0.00  0.00    +0.000 A 
ATOM     18  C   UNL     1      48.124   8.934  15.204  0.00  0.00    +0.000 A 
ATOM     19  C   UNL     1      48.362   8.898  16.582  0.00  0.00    +0.000 A 
ATOM     20  C   UNL     1      48.731   7.704  17.206  0.00  0.00    +0.000 A 
ATOM     21  C   UNL     1      48.883   6.555  16.418  0.00  0.00    +0.000 A 
ATOM     22  C   UNL     1      48.653   6.603  15.038  0.00  0.00    +0.000 A 
BRANCH  20  23
ATOM     23  C   UNL     1      48.945   7.636  18.699  0.00  0.00    +0.000 C 
ATOM     24  F   UNL     1      49.656   8.686  19.196  0.00  0.00    +0.000 F 
ATOM     25  F   UNL     1      47.772   7.620  19.390  0.00  0.00    +0.000 F 
ATOM     26  F   UNL     1      49.617   6.516  19.079  0.00  0.00    +0.000 F 
ENDBRANCH  20  23
ENDBRANCH  14  17
ENDBRANCH   1  14
TORSDOF 5
ENDMDL
