MODEL 1
REMARK VINA RESULT:    -8.508      0.000      0.000
REMARK INTER + INTRA:         -12.841
REMARK INTER:                 -11.989
REMARK INTRA:                  -0.852
REMARK UNBOUND:                -0.852
REMARK  Name = 
REMARK  7 active torsions:
REMARK  status: ('A' for Active; 'I' for Inactive)
REMARK    1  A    between atoms: C_2  and  C_3
REMARK    2  A    between atoms: C_6  and  O_7
REMARK    3  A    between atoms: O_7  and  C_8
REMARK    4  A    between atoms: C_8  and  C_9
REMARK    5  A    between atoms: C_9  and  C_12
REMARK    6  A    between atoms: C_16  and  C_17
REMARK    7  A    between atoms: C_17  and  C_18
REMARK                            x       y       z     vdW  Elec       q    Type
REMARK                         _______ _______ _______ _____ _____    ______ ____
ROOT
ATOM      1  C   UNL     1      43.582   4.537  12.450  0.00  0.00    +0.000 C 
ATOM      2  F   UNL     1      42.612   5.275  13.073  0.00  0.00    +0.000 F 
ATOM      3  F   UNL     1      43.325   3.237  12.800  0.00  0.00    +0.000 F 
ENDROOT
BRANCH   1   4
ATOM      4  C   UNL     1      44.977   4.960  12.899  0.00  0.00    +0.000 A 
ATOM      5  C   UNL     1      45.492   6.158  12.412  0.00  0.00    +0.000 A 
ATOM      6  C   UNL     1      46.732   6.587  12.866  0.00  0.00    +0.000 A 
ATOM      7  C   UNL     1      47.432   5.812  13.789  0.00  0.00    +0.000 A 
ATOM      8  C   UNL     1      46.875   4.614  14.224  0.00  0.00    +0.000 A 
ATOM      9  N   UNL     1      45.667   4.184  13.785  0.00  0.00    +0.000 NA
BRANCH   8  10
ATOM     10  C   UNL     1      47.567   3.749  15.252  0.00  0.00    +0.000 C 
BRANCH  10  11
ATOM     11  C   UNL     1      47.056   4.027  16.660  0.00  0.00    +0.000 C 
ATOM     12  C   UNL     1      47.819   5.025  17.555  0.00  0.00    +0.000 C 
ATOM     13  N   UNL     1      47.832   4.036  18.645  0.00  0.00    +0.000 NA
ATOM     14  C   UNL     1      47.448   2.967  17.714  0.00  0.00    +0.000 C 
ATOM     15  H   UNL     1      47.142   4.217  19.375  0.00  0.00    +0.000 HD
ENDBRANCH  10  11
ENDBRANCH   8  10
ENDBRANCH   1   4
BRANCH   1  16
ATOM     16  C   UNL     1      43.408   4.676  10.933  0.00  0.00    +0.000 C 
BRANCH  16  17
ATOM     17  O   UNL     1      43.442   3.384  10.306  0.00  0.00    +0.000 OA
BRANCH  17  21
ATOM     18  C   UNL     1      46.469   2.445   7.607  0.00  0.00    +0.000 A 
ATOM     19  C   UNL     1      46.106   3.786   7.755  0.00  0.00    +0.000 A 
ATOM     20  C   UNL     1      45.095   4.148   8.652  0.00  0.00    +0.000 A 
ATOM     21  C   UNL     1      44.444   3.170   9.403  0.00  0.00    +0.000 A 
ATOM     22  C   UNL     1      44.811   1.828   9.255  0.00  0.00    +0.000 A 
ATOM     23  C   UNL     1      45.821   1.463   8.361  0.00  0.00    +0.000 A 
BRANCH  18  25
ATOM     24  N   UNL     1      48.337   1.787   5.937  0.00  0.00    +0.000 NA
ATOM     25  C   UNL     1      47.503   2.082   6.686  0.00  0.00    +0.000 C 
ENDBRANCH  18  25
ENDBRANCH  17  21
ENDBRANCH  16  17
ENDBRANCH   1  16
TORSDOF 7
ENDMDL
MODEL 2
REMARK VINA RESULT:    -7.977      2.098      3.830
REMARK INTER + INTRA:         -12.093
REMARK INTER:                 -11.222
REMARK INTRA:                  -0.871
REMARK UNBOUND:                -0.852
REMARK  Name = 
REMARK  7 active torsions:
REMARK  status: ('A' for Active; 'I' for Inactive)
REMARK    1  A    between atoms: C_2  and  C_3
REMARK    2  A    between atoms: C_6  and  O_7
REMARK    3  A    between atoms: O_7  and  C_8
REMARK    4  A    between atoms: C_8  and  C_9
REMARK    5  A    between atoms: C_9  and  C_12
REMARK    6  A    between atoms: C_16  and  C_17
REMARK    7  A    between atoms: C_17  and  C_18
REMARK                            x       y       z     vdW  Elec       q    Type
REMARK                         _______ _______ _______ _____ _____    ______ ____
ROOT
ATOM      1  C   UNL     1      43.694   4.460  12.434  0.00  0.00    +0.000 C 
ATOM      2  F   UNL     1      42.647   4.988  13.142  0.00  0.00    +0.000 F 
ATOM      3  F   UNL     1      43.698   3.125  12.740  0.00  0.00    +0.000 F 
ENDROOT
BRANCH   1   4
ATOM      4  C   UNL     1      45.015   5.116  12.826  0.00  0.00    +0.000 A 
ATOM      5  C   UNL     1      45.855   4.436  13.703  0.00  0.00    +0.000 A 
ATOM      6  C   UNL     1      47.089   4.992  14.014  0.00  0.00    +0.000 A 
ATOM      7  C   UNL     1      47.456   6.212  13.450  0.00  0.00    +0.000 A 
ATOM      8  C   UNL     1      46.566   6.855  12.595  0.00  0.00    +0.000 A 
ATOM      9  N   UNL     1      45.357   6.324  12.288  0.00  0.00    +0.000 NA
BRANCH   8  10
ATOM     10  C   UNL     1      46.920   8.161  11.922  0.00  0.00    +0.000 C 
BRANCH  10  11
ATOM     11  C   UNL     1      46.300   9.353  12.641  0.00  0.00    +0.000 C 
ATOM     12  C   UNL     1      44.958   9.922  12.136  0.00  0.00    +0.000 C 
ATOM     13  N   UNL     1      45.534  11.275  12.131  0.00  0.00    +0.000 NA
ATOM     14  C   UNL     1      46.891  10.725  12.248  0.00  0.00    +0.000 C 
ATOM     15  H   UNL     1      45.250  11.849  12.926  0.00  0.00    +0.000 HD
ENDBRANCH  10  11
ENDBRANCH   8  10
ENDBRANCH   1   4
BRANCH   1  16
ATOM     16  C   UNL     1      43.406   4.618  10.937  0.00  0.00    +0.000 C 
BRANCH  16  17
ATOM     17  O   UNL     1      43.450   3.339  10.284  0.00  0.00    +0.000 OA
BRANCH  17  21
ATOM     18  C   UNL     1      46.484   2.482   7.566  0.00  0.00    +0.000 A 
ATOM     19  C   UNL     1      46.086   3.813   7.716  0.00  0.00    +0.000 A 
ATOM     20  C   UNL     1      45.070   4.147   8.619  0.00  0.00    +0.000 A 
ATOM     21  C   UNL     1      44.452   3.151   9.374  0.00  0.00    +0.000 A 
ATOM     22  C   UNL     1      44.855   1.820   9.224  0.00  0.00    +0.000 A 
ATOM     23  C   UNL     1      45.869   1.483   8.324  0.00  0.00    +0.000 A 
BRANCH  18  25
ATOM     24  N   UNL     1      48.368   1.875   5.894  0.00  0.00    +0.000 NA
ATOM     25  C   UNL     1      47.523   2.147   6.639  0.00  0.00    +0.000 C 
ENDBRANCH  18  25
ENDBRANCH  17  21
ENDBRANCH  16  17
ENDBRANCH   1  16
TORSDOF 7
ENDMDL
MODEL 3
REMARK VINA RESULT:    -7.842      2.332      2.857
REMARK INTER + INTRA:         -11.903
REMARK INTER:                 -11.007
REMARK INTRA:                  -0.896
REMARK UNBOUND:                -0.852
REMARK  Name = 
REMARK  7 active torsions:
REMARK  status: ('A' for Active; 'I' for Inactive)
REMARK    1  A    between atoms: C_2  and  C_3
REMARK    2  A    between atoms: C_6  and  O_7
REMARK    3  A    between atoms: O_7  and  C_8
REMARK    4  A    between atoms: C_8  and  C_9
REMARK    5  A    between atoms: C_9  and  C_12
REMARK    6  A    between atoms: C_16  and  C_17
REMARK    7  A    between atoms: C_17  and  C_18
REMARK                            x       y       z     vdW  Elec       q    Type
REMARK                         _______ _______ _______ _____ _____    ______ ____
ROOT
ATOM      1  C   UNL     1      43.331   4.541  12.270  0.00  0.00    +0.000 C 
ATOM      2  F   UNL     1      42.140   4.941  11.725  0.00  0.00    +0.000 F 
ATOM      3  F   UNL     1      43.040   4.218  13.569  0.00  0.00    +0.000 F 
ENDROOT
BRANCH   1   4
ATOM      4  C   UNL     1      44.374   5.652  12.202  0.00  0.00    +0.000 A 
ATOM      5  C   UNL     1      44.014   6.860  11.611  0.00  0.00    +0.000 A 
ATOM      6  C   UNL     1      44.934   7.901  11.604  0.00  0.00    +0.000 A 
ATOM      7  C   UNL     1      46.189   7.715  12.179  0.00  0.00    +0.000 A 
ATOM      8  C   UNL     1      46.499   6.478  12.736  0.00  0.00    +0.000 A 
ATOM      9  N   UNL     1      45.611   5.453  12.746  0.00  0.00    +0.000 NA
BRANCH   8  10
ATOM     10  C   UNL     1      47.829   6.225  13.409  0.00  0.00    +0.000 C 
BRANCH  10  11
ATOM     11  C   UNL     1      48.741   7.442  13.329  0.00  0.00    +0.000 C 
ATOM     12  C   UNL     1      49.887   7.458  12.295  0.00  0.00    +0.000 C 
ATOM     13  N   UNL     1      50.834   7.846  13.352  0.00  0.00    +0.000 NA
ATOM     14  C   UNL     1      49.862   7.483  14.392  0.00  0.00    +0.000 C 
ATOM     15  H   UNL     1      51.081   8.836  13.343  0.00  0.00    +0.000 HD
ENDBRANCH  10  11
ENDBRANCH   8  10
ENDBRANCH   1   4
BRANCH   1  16
ATOM     16  C   UNL     1      43.803   3.275  11.546  0.00  0.00    +0.000 C 
BRANCH  16  17
ATOM     17  O   UNL     1      43.477   3.348  10.149  0.00  0.00    +0.000 OA
BRANCH  17  21
ATOM     18  C   UNL     1      46.569   2.417   7.523  0.00  0.00    +0.000 A 
ATOM     19  C   UNL     1      46.204   3.757   7.667  0.00  0.00    +0.000 A 
ATOM     20  C   UNL     1      45.171   4.117   8.540  0.00  0.00    +0.000 A 
ATOM     21  C   UNL     1      44.501   3.136   9.270  0.00  0.00    +0.000 A 
ATOM     22  C   UNL     1      44.870   1.795   9.127  0.00  0.00    +0.000 A 
ATOM     23  C   UNL     1      45.902   1.432   8.257  0.00  0.00    +0.000 A 
BRANCH  18  25
ATOM     24  N   UNL     1      48.482   1.758   5.905  0.00  0.00    +0.000 NA
ATOM     25  C   UNL     1      47.627   2.056   6.628  0.00  0.00    +0.000 C 
ENDBRANCH  18  25
ENDBRANCH  17  21
ENDBRANCH  16  17
ENDBRANCH   1  16
TORSDOF 7
ENDMDL
MODEL 4
REMARK VINA RESULT:    -7.489      1.690      2.039
REMARK INTER + INTRA:         -11.406
REMARK INTER:                 -10.422
REMARK INTRA:                  -0.984
REMARK UNBOUND:                -0.852
REMARK  Name = 
REMARK  7 active torsions:
REMARK  status: ('A' for Active; 'I' for Inactive)
REMARK    1  A    between atoms: C_2  and  C_3
REMARK    2  A    between atoms: C_6  and  O_7
REMARK    3  A    between atoms: O_7  and  C_8
REMARK    4  A    between atoms: C_8  and  C_9
REMARK    5  A    between atoms: C_9  and  C_12
REMARK    6  A    between atoms: C_16  and  C_17
REMARK    7  A    between atoms: C_17  and  C_18
REMARK                            x       y       z     vdW  Elec       q    Type
REMARK                         _______ _______ _______ _____ _____    ______ ____
ROOT
ATOM      1  C   UNL     1      44.321   4.951  12.406  0.00  0.00    +0.000 C 
ATOM      2  F   UNL     1      43.419   5.539  13.252  0.00  0.00    +0.000 F 
ATOM      3  F   UNL     1      44.324   3.624  12.750  0.00  0.00    +0.000 F 
ENDROOT
BRANCH   1   4
ATOM      4  C   UNL     1      45.710   5.561  12.563  0.00  0.00    +0.000 A 
ATOM      5  C   UNL     1      46.224   6.312  11.510  0.00  0.00    +0.000 A 
ATOM      6  C   UNL     1      47.458   6.928  11.667  0.00  0.00    +0.000 A 
ATOM      7  C   UNL     1      48.154   6.779  12.866  0.00  0.00    +0.000 A 
ATOM      8  C   UNL     1      47.598   6.000  13.876  0.00  0.00    +0.000 A 
ATOM      9  N   UNL     1      46.395   5.391  13.732  0.00  0.00    +0.000 NA
BRANCH   8  10
ATOM     10  C   UNL     1      48.284   5.832  15.212  0.00  0.00    +0.000 C 
BRANCH  10  11
ATOM     11  C   UNL     1      49.317   6.925  15.457  0.00  0.00    +0.000 C 
ATOM     12  C   UNL     1      50.304   6.779  16.634  0.00  0.00    +0.000 C 
ATOM     13  N   UNL     1      49.970   8.140  17.081  0.00  0.00    +0.000 NA
ATOM     14  C   UNL     1      48.785   8.162  16.214  0.00  0.00    +0.000 C 
ATOM     15  H   UNL     1      50.674   8.839  16.840  0.00  0.00    +0.000 HD
ENDBRANCH  10  11
ENDBRANCH   8  10
ENDBRANCH   1   4
BRANCH   1  16
ATOM     16  C   UNL     1      43.804   5.081  10.968  0.00  0.00    +0.000 C 
BRANCH  16  17
ATOM     17  O   UNL     1      43.697   3.785  10.358  0.00  0.00    +0.000 OA
BRANCH  17  21
ATOM     18  C   UNL     1      46.552   2.534   7.600  0.00  0.00    +0.000 A 
ATOM     19  C   UNL     1      46.262   3.898   7.680  0.00  0.00    +0.000 A 
ATOM     20  C   UNL     1      45.310   4.364   8.594  0.00  0.00    +0.000 A 
ATOM     21  C   UNL     1      44.646   3.466   9.429  0.00  0.00    +0.000 A 
ATOM     22  C   UNL     1      44.941   2.101   9.349  0.00  0.00    +0.000 A 
ATOM     23  C   UNL     1      45.891   1.632   8.438  0.00  0.00    +0.000 A 
BRANCH  18  25
ATOM     24  N   UNL     1      48.317   1.680   5.906  0.00  0.00    +0.000 NA
ATOM     25  C   UNL     1      47.526   2.064   6.662  0.00  0.00    +0.000 C 
ENDBRANCH  18  25
ENDBRANCH  17  21
ENDBRANCH  16  17
ENDBRANCH   1  16
TORSDOF 7
ENDMDL
MODEL 5
REMARK VINA RESULT:    -7.228      1.735      7.647
REMARK INTER + INTRA:         -11.038
REMARK INTER:                 -10.398
REMARK INTRA:                  -0.640
REMARK UNBOUND:                -0.852
REMARK  Name = 
REMARK  7 active torsions:
REMARK  status: ('A' for Active; 'I' for Inactive)
REMARK    1  A    between atoms: C_2  and  C_3
REMARK    2  A    between atoms: C_6  and  O_7
REMARK    3  A    between atoms: O_7  and  C_8
REMARK    4  A    between atoms: C_8  and  C_9
REMARK    5  A    between atoms: C_9  and  C_12
REMARK    6  A    between atoms: C_16  and  C_17
REMARK    7  A    between atoms: C_17  and  C_18
REMARK                            x       y       z     vdW  Elec       q    Type
REMARK                         _______ _______ _______ _____ _____    ______ ____
ROOT
ATOM      1  C   UNL     1      44.202   5.783  11.484  0.00  0.00    +0.000 C 
ATOM      2  F   UNL     1      43.743   5.375  12.708  0.00  0.00    +0.000 F 
ATOM      3  F   UNL     1      43.193   6.546  10.958  0.00  0.00    +0.000 F 
ENDROOT
BRANCH   1   4
ATOM      4  C   UNL     1      44.515   4.592  10.583  0.00  0.00    +0.000 A 
ATOM      5  C   UNL     1      43.965   3.356  10.908  0.00  0.00    +0.000 A 
ATOM      6  C   UNL     1      44.188   2.280  10.059  0.00  0.00    +0.000 A 
ATOM      7  C   UNL     1      44.956   2.458   8.910  0.00  0.00    +0.000 A 
ATOM      8  C   UNL     1      45.497   3.714   8.648  0.00  0.00    +0.000 A 
ATOM      9  N   UNL     1      45.289   4.770   9.473  0.00  0.00    +0.000 NA
BRANCH   8  10
ATOM     10  C   UNL     1      46.306   3.980   7.400  0.00  0.00    +0.000 C 
BRANCH  10  11
ATOM     11  C   UNL     1      46.637   2.692   6.656  0.00  0.00    +0.000 C 
ATOM     12  C   UNL     1      47.909   1.908   7.037  0.00  0.00    +0.000 C 
ATOM     13  N   UNL     1      48.299   1.854   5.620  0.00  0.00    +0.000 NA
ATOM     14  C   UNL     1      47.317   2.893   5.283  0.00  0.00    +0.000 C 
ATOM     15  H   UNL     1      48.119   0.953   5.174  0.00  0.00    +0.000 HD
ENDBRANCH  10  11
ENDBRANCH   8  10
ENDBRANCH   1   4
BRANCH   1  16
ATOM     16  C   UNL     1      45.431   6.675  11.692  0.00  0.00    +0.000 C 
BRANCH  16  17
ATOM     17  O   UNL     1      46.611   5.870  11.849  0.00  0.00    +0.000 OA
BRANCH  17  21
ATOM     18  C   UNL     1      47.988   5.369  15.744  0.00  0.00    +0.000 A 
ATOM     19  C   UNL     1      47.156   4.386  15.205  0.00  0.00    +0.000 A 
ATOM     20  C   UNL     1      46.671   4.512  13.898  0.00  0.00    +0.000 A 
ATOM     21  C   UNL     1      47.016   5.623  13.129  0.00  0.00    +0.000 A 
ATOM     22  C   UNL     1      47.852   6.605  13.671  0.00  0.00    +0.000 A 
ATOM     23  C   UNL     1      48.340   6.482  14.974  0.00  0.00    +0.000 A 
BRANCH  18  25
ATOM     24  N   UNL     1      48.876   5.129  18.167  0.00  0.00    +0.000 NA
ATOM     25  C   UNL     1      48.481   5.234  17.082  0.00  0.00    +0.000 C 
ENDBRANCH  18  25
ENDBRANCH  17  21
ENDBRANCH  16  17
ENDBRANCH   1  16
TORSDOF 7
ENDMDL
MODEL 6
REMARK VINA RESULT:    -7.118      3.247      5.421
REMARK INTER + INTRA:         -10.883
REMARK INTER:                 -10.150
REMARK INTRA:                  -0.733
REMARK UNBOUND:                -0.852
REMARK  Name = 
REMARK  7 active torsions:
REMARK  status: ('A' for Active; 'I' for Inactive)
REMARK    1  A    between atoms: C_2  and  C_3
REMARK    2  A    between atoms: C_6  and  O_7
REMARK    3  A    between atoms: O_7  and  C_8
REMARK    4  A    between atoms: C_8  and  C_9
REMARK    5  A    between atoms: C_9  and  C_12
REMARK    6  A    between atoms: C_16  and  C_17
REMARK    7  A    between atoms: C_17  and  C_18
REMARK                            x       y       z     vdW  Elec       q    Type
REMARK                         _______ _______ _______ _____ _____    ______ ____
ROOT
ATOM      1  C   UNL     1      44.692   5.422  11.910  0.00  0.00    +0.000 C 
ATOM      2  F   UNL     1      43.855   5.187  12.967  0.00  0.00    +0.000 F 
ATOM      3  F   UNL     1      45.635   4.430  11.969  0.00  0.00    +0.000 F 
ENDROOT
BRANCH   1   4
ATOM      4  C   UNL     1      45.340   6.800  12.010  0.00  0.00    +0.000 A 
ATOM      5  C   UNL     1      46.721   6.871  12.165  0.00  0.00    +0.000 A 
ATOM      6  C   UNL     1      47.329   8.119  12.190  0.00  0.00    +0.000 A 
ATOM      7  C   UNL     1      46.549   9.267  12.065  0.00  0.00    +0.000 A 
ATOM      8  C   UNL     1      45.170   9.134  11.933  0.00  0.00    +0.000 A 
ATOM      9  N   UNL     1      44.565   7.920  11.911  0.00  0.00    +0.000 NA
BRANCH   8  10
ATOM     10  C   UNL     1      44.274  10.338  11.755  0.00  0.00    +0.000 C 
BRANCH  10  11
ATOM     11  C   UNL     1      43.332  10.170  10.569  0.00  0.00    +0.000 C 
ATOM     12  C   UNL     1      43.812  10.583   9.163  0.00  0.00    +0.000 C 
ATOM     13  N   UNL     1      42.581  11.366   8.973  0.00  0.00    +0.000 NA
ATOM     14  C   UNL     1      42.284  11.294  10.410  0.00  0.00    +0.000 C 
ATOM     15  H   UNL     1      41.886  10.908   8.383  0.00  0.00    +0.000 HD
ENDBRANCH  10  11
ENDBRANCH   8  10
ENDBRANCH   1   4
BRANCH   1  16
ATOM     16  C   UNL     1      43.898   5.263  10.608  0.00  0.00    +0.000 C 
BRANCH  16  17
ATOM     17  O   UNL     1      43.731   3.872  10.292  0.00  0.00    +0.000 OA
BRANCH  17  21
ATOM     18  C   UNL     1      46.538   2.490   7.547  0.00  0.00    +0.000 A 
ATOM     19  C   UNL     1      45.907   1.558   8.374  0.00  0.00    +0.000 A 
ATOM     20  C   UNL     1      44.956   1.978   9.311  0.00  0.00    +0.000 A 
ATOM     21  C   UNL     1      44.634   3.330   9.422  0.00  0.00    +0.000 A 
ATOM     22  C   UNL     1      45.265   4.261   8.590  0.00  0.00    +0.000 A 
ATOM     23  C   UNL     1      46.214   3.846   7.653  0.00  0.00    +0.000 A 
BRANCH  18  25
ATOM     24  N   UNL     1      48.298   1.696   5.819  0.00  0.00    +0.000 NA
ATOM     25  C   UNL     1      47.511   2.055   6.591  0.00  0.00    +0.000 C 
ENDBRANCH  18  25
ENDBRANCH  17  21
ENDBRANCH  16  17
ENDBRANCH   1  16
TORSDOF 7
ENDMDL
MODEL 7
REMARK VINA RESULT:    -7.074      3.123      7.167
REMARK INTER + INTRA:         -10.820
REMARK INTER:                  -9.961
REMARK INTRA:                  -0.859
REMARK UNBOUND:                -0.852
REMARK  Name = 
REMARK  7 active torsions:
REMARK  status: ('A' for Active; 'I' for Inactive)
REMARK    1  A    between atoms: C_2  and  C_3
REMARK    2  A    between atoms: C_6  and  O_7
REMARK    3  A    between atoms: O_7  and  C_8
REMARK    4  A    between atoms: C_8  and  C_9
REMARK    5  A    between atoms: C_9  and  C_12
REMARK    6  A    between atoms: C_16  and  C_17
REMARK    7  A    between atoms: C_17  and  C_18
REMARK                            x       y       z     vdW  Elec       q    Type
REMARK                         _______ _______ _______ _____ _____    ______ ____
ROOT
ATOM      1  C   UNL     1      43.749   5.416  11.487  0.00  0.00    +0.000 C 
ATOM      2  F   UNL     1      42.459   5.221  11.903  0.00  0.00    +0.000 F 
ATOM      3  F   UNL     1      43.730   6.602  10.801  0.00  0.00    +0.000 F 
ENDROOT
BRANCH   1   4
ATOM      4  C   UNL     1      44.223   4.274  10.594  0.00  0.00    +0.000 A 
ATOM      5  C   UNL     1      43.754   2.991  10.858  0.00  0.00    +0.000 A 
ATOM      6  C   UNL     1      44.126   1.955  10.012  0.00  0.00    +0.000 A 
ATOM      7  C   UNL     1      44.958   2.219   8.926  0.00  0.00    +0.000 A 
ATOM      8  C   UNL     1      45.412   3.519   8.724  0.00  0.00    +0.000 A 
ATOM      9  N   UNL     1      45.059   4.537   9.546  0.00  0.00    +0.000 NA
BRANCH   8  10
ATOM     10  C   UNL     1      46.285   3.876   7.543  0.00  0.00    +0.000 C 
BRANCH  10  11
ATOM     11  C   UNL     1      46.700   2.640   6.754  0.00  0.00    +0.000 C 
ATOM     12  C   UNL     1      48.140   2.106   6.893  0.00  0.00    +0.000 C 
ATOM     13  N   UNL     1      48.268   2.071   5.428  0.00  0.00    +0.000 NA
ATOM     14  C   UNL     1      47.070   2.908   5.278  0.00  0.00    +0.000 C 
ATOM     15  H   UNL     1      48.173   1.138   5.026  0.00  0.00    +0.000 HD
ENDBRANCH  10  11
ENDBRANCH   8  10
ENDBRANCH   1   4
BRANCH   1  16
ATOM     16  C   UNL     1      44.644   5.581  12.721  0.00  0.00    +0.000 C 
BRANCH  16  17
ATOM     17  O   UNL     1      44.972   6.965  12.918  0.00  0.00    +0.000 OA
BRANCH  17  21
ATOM     18  C   UNL     1      48.980   7.810  12.179  0.00  0.00    +0.000 A 
ATOM     19  C   UNL     1      48.044   8.830  11.993  0.00  0.00    +0.000 A 
ATOM     20  C   UNL     1      46.685   8.591  12.231  0.00  0.00    +0.000 A 
ATOM     21  C   UNL     1      46.261   7.332  12.655  0.00  0.00    +0.000 A 
ATOM     22  C   UNL     1      47.202   6.314  12.843  0.00  0.00    +0.000 A 
ATOM     23  C   UNL     1      48.558   6.548  12.608  0.00  0.00    +0.000 A 
BRANCH  18  25
ATOM     24  N   UNL     1      51.493   8.258  11.736  0.00  0.00    +0.000 NA
ATOM     25  C   UNL     1      50.368   8.061  11.933  0.00  0.00    +0.000 C 
ENDBRANCH  18  25
ENDBRANCH  17  21
ENDBRANCH  16  17
ENDBRANCH   1  16
TORSDOF 7
ENDMDL
MODEL 8
REMARK VINA RESULT:    -6.926      3.399      7.589
REMARK INTER + INTRA:         -10.612
REMARK INTER:                  -9.883
REMARK INTRA:                  -0.729
REMARK UNBOUND:                -0.852
REMARK  Name = 
REMARK  7 active torsions:
REMARK  status: ('A' for Active; 'I' for Inactive)
REMARK    1  A    between atoms: C_2  and  C_3
REMARK    2  A    between atoms: C_6  and  O_7
REMARK    3  A    between atoms: O_7  and  C_8
REMARK    4  A    between atoms: C_8  and  C_9
REMARK    5  A    between atoms: C_9  and  C_12
REMARK    6  A    between atoms: C_16  and  C_17
REMARK    7  A    between atoms: C_17  and  C_18
REMARK                            x       y       z     vdW  Elec       q    Type
REMARK                         _______ _______ _______ _____ _____    ______ ____
ROOT
ATOM      1  C   UNL     1      44.927   6.044  11.578  0.00  0.00    +0.000 C 
ATOM      2  F   UNL     1      43.742   6.113  12.260  0.00  0.00    +0.000 F 
ATOM      3  F   UNL     1      45.016   7.227  10.891  0.00  0.00    +0.000 F 
ENDROOT
BRANCH   1   4
ATOM      4  C   UNL     1      44.951   4.853  10.625  0.00  0.00    +0.000 A 
ATOM      5  C   UNL     1      44.216   3.722  10.964  0.00  0.00    +0.000 A 
ATOM      6  C   UNL     1      44.176   2.658  10.073  0.00  0.00    +0.000 A 
ATOM      7  C   UNL     1      44.872   2.742   8.868  0.00  0.00    +0.000 A 
ATOM      8  C   UNL     1      45.607   3.892   8.593  0.00  0.00    +0.000 A 
ATOM      9  N   UNL     1      45.656   4.935   9.458  0.00  0.00    +0.000 NA
BRANCH   8  10
ATOM     10  C   UNL     1      46.351   4.060   7.289  0.00  0.00    +0.000 C 
BRANCH  10  11
ATOM     11  C   UNL     1      46.647   2.718   6.631  0.00  0.00    +0.000 C 
ATOM     12  C   UNL     1      47.909   1.936   7.051  0.00  0.00    +0.000 C 
ATOM     13  N   UNL     1      48.281   1.777   5.637  0.00  0.00    +0.000 NA
ATOM     14  C   UNL     1      47.315   2.810   5.241  0.00  0.00    +0.000 C 
ATOM     15  H   UNL     1      48.078   0.853   5.256  0.00  0.00    +0.000 HD
ENDBRANCH  10  11
ENDBRANCH   8  10
ENDBRANCH   1   4
BRANCH   1  16
ATOM     16  C   UNL     1      46.076   5.982  12.591  0.00  0.00    +0.000 C 
BRANCH  16  17
ATOM     17  O   UNL     1      46.431   7.305  13.025  0.00  0.00    +0.000 OA
BRANCH  17  21
ATOM     18  C   UNL     1      49.891   9.090  11.554  0.00  0.00    +0.000 A 
ATOM     19  C   UNL     1      49.956   7.755  11.957  0.00  0.00    +0.000 A 
ATOM     20  C   UNL     1      48.816   7.113  12.457  0.00  0.00    +0.000 A 
ATOM     21  C   UNL     1      47.610   7.807  12.554  0.00  0.00    +0.000 A 
ATOM     22  C   UNL     1      47.548   9.144  12.147  0.00  0.00    +0.000 A 
ATOM     23  C   UNL     1      48.683   9.787  11.647  0.00  0.00    +0.000 A 
BRANCH  18  25
ATOM     24  N   UNL     1      52.010  10.262  10.631  0.00  0.00    +0.000 NA
ATOM     25  C   UNL     1      51.061   9.741  11.045  0.00  0.00    +0.000 C 
ENDBRANCH  18  25
ENDBRANCH  17  21
ENDBRANCH  16  17
ENDBRANCH   1  16
TORSDOF 7
ENDMDL
MODEL 9
REMARK VINA RESULT:    -6.378      2.628      7.996
REMARK INTER + INTRA:          -9.840
REMARK INTER:                  -9.329
REMARK INTRA:                  -0.511
REMARK UNBOUND:                -0.852
REMARK  Name = 
REMARK  7 active torsions:
REMARK  status: ('A' for Active; 'I' for Inactive)
REMARK    1  A    between atoms: C_2  and  C_3
REMARK    2  A    between atoms: C_6  and  O_7
REMARK    3  A    between atoms: O_7  and  C_8
REMARK    4  A    between atoms: C_8  and  C_9
REMARK    5  A    between atoms: C_9  and  C_12
REMARK    6  A    between atoms: C_16  and  C_17
REMARK    7  A    between atoms: C_17  and  C_18
REMARK                            x       y       z     vdW  Elec       q    Type
REMARK                         _______ _______ _______ _____ _____    ______ ____
ROOT
ATOM      1  C   UNL     1      46.547   4.862  13.445  0.00  0.00    +0.000 C 
ATOM      2  F   UNL     1      46.280   5.825  14.380  0.00  0.00    +0.000 F 
ATOM      3  F   UNL     1      47.568   5.371  12.686  0.00  0.00    +0.000 F 
ENDROOT
BRANCH   1   4
ATOM      4  C   UNL     1      45.321   4.567  12.586  0.00  0.00    +0.000 A 
ATOM      5  C   UNL     1      44.121   5.190  12.913  0.00  0.00    +0.000 A 
ATOM      6  C   UNL     1      43.015   4.982  12.099  0.00  0.00    +0.000 A 
ATOM      7  C   UNL     1      43.128   4.155  10.984  0.00  0.00    +0.000 A 
ATOM      8  C   UNL     1      44.349   3.542  10.719  0.00  0.00    +0.000 A 
ATOM      9  N   UNL     1      45.434   3.736  11.509  0.00  0.00    +0.000 NA
BRANCH   8  10
ATOM     10  C   UNL     1      44.546   2.665   9.504  0.00  0.00    +0.000 C 
BRANCH  10  11
ATOM     11  C   UNL     1      44.917   3.482   8.272  0.00  0.00    +0.000 C 
ATOM     12  C   UNL     1      46.082   3.010   7.378  0.00  0.00    +0.000 C 
ATOM     13  N   UNL     1      46.669   4.358   7.432  0.00  0.00    +0.000 NA
ATOM     14  C   UNL     1      45.796   4.721   8.557  0.00  0.00    +0.000 C 
ATOM     15  H   UNL     1      46.511   4.913   6.590  0.00  0.00    +0.000 HD
ENDBRANCH  10  11
ENDBRANCH   8  10
ENDBRANCH   1   4
BRANCH   1  16
ATOM     16  C   UNL     1      47.052   3.605  14.163  0.00  0.00    +0.000 C 
BRANCH  16  17
ATOM     17  O   UNL     1      46.892   3.744  15.584  0.00  0.00    +0.000 OA
BRANCH  17  21
ATOM     18  C   UNL     1      50.403   3.868  17.817  0.00  0.00    +0.000 A 
ATOM     19  C   UNL     1      49.801   5.078  17.462  0.00  0.00    +0.000 A 
ATOM     20  C   UNL     1      48.618   5.084  16.713  0.00  0.00    +0.000 A 
ATOM     21  C   UNL     1      48.036   3.880  16.317  0.00  0.00    +0.000 A 
ATOM     22  C   UNL     1      48.640   2.670  16.676  0.00  0.00    +0.000 A 
ATOM     23  C   UNL     1      49.819   2.660  17.425  0.00  0.00    +0.000 A 
BRANCH  18  25
ATOM     24  N   UNL     1      52.594   3.867  19.199  0.00  0.00    +0.000 NA
ATOM     25  C   UNL     1      51.612   3.869  18.583  0.00  0.00    +0.000 C 
ENDBRANCH  18  25
ENDBRANCH  17  21
ENDBRANCH  16  17
ENDBRANCH   1  16
TORSDOF 7
ENDMDL
