MODEL 1
REMARK VINA RESULT:    -8.308      0.000      0.000
REMARK INTER + INTRA:         -13.776
REMARK INTER:                 -12.679
REMARK INTRA:                  -1.097
REMARK UNBOUND:                -1.097
REMARK  Name = 
REMARK  10 active torsions:
REMARK  status: ('A' for Active; 'I' for Inactive)
REMARK    1  A    between atoms: C_1  and  C_2
REMARK    2  A    between atoms: C_2  and  O_3
REMARK    3  A    between atoms: O_3  and  C_4
REMARK    4  A    between atoms: C_4  and  C_5
REMARK    5  A    between atoms: C_5  and  N_6
REMARK    6  A    between atoms: C_5  and  C_19
REMARK    7  A    between atoms: C_7  and  C_9
REMARK    8  A    between atoms: C_22  and  O_23
REMARK    9  A    between atoms: O_23  and  C_24
REMARK   10  A    between atoms: C_24  and  C_25
REMARK                            x       y       z     vdW  Elec       q    Type
REMARK                         _______ _______ _______ _____ _____    ______ ____
ROOT
ATOM      1  C   UNL     1      46.675   7.836  12.735  0.00  0.00    +0.000 C 
ENDROOT
BRANCH   1   2
ATOM      2  C   UNL     1      46.022   6.701  11.967  0.00  0.00    +0.000 A 
ATOM      3  C   UNL     1      45.098   5.841  12.574  0.00  0.00    +0.000 A 
ATOM      4  C   UNL     1      44.485   4.825  11.830  0.00  0.00    +0.000 A 
ATOM      5  C   UNL     1      44.772   4.679  10.473  0.00  0.00    +0.000 A 
ATOM      6  C   UNL     1      45.728   5.499   9.876  0.00  0.00    +0.000 A 
ATOM      7  C   UNL     1      46.338   6.501  10.616  0.00  0.00    +0.000 A 
BRANCH   5   8
ATOM      8  O   UNL     1      44.080   3.721   9.781  0.00  0.00    +0.000 OA
BRANCH   8   9
ATOM      9  C   UNL     1      44.743   2.444   9.737  0.00  0.00    +0.000 C 
BRANCH   9  10
ATOM     10  C   UNL     1      45.555   2.284   8.478  0.00  0.00    +0.000 A 
ATOM     11  C   UNL     1      45.607   3.310   7.541  0.00  0.00    +0.000 A 
ATOM     12  C   UNL     1      46.402   3.151   6.413  0.00  0.00    +0.000 A 
ATOM     13  C   UNL     1      47.139   1.986   6.261  0.00  0.00    +0.000 A 
ATOM     14  C   UNL     1      47.058   1.023   7.253  0.00  0.00    +0.000 A 
ATOM     15  N   UNL     1      46.291   1.146   8.358  0.00  0.00    +0.000 NA
ENDBRANCH   9  10
ENDBRANCH   8   9
ENDBRANCH   5   8
ENDBRANCH   1   2
BRANCH   1  16
ATOM     16  N   UNL     1      47.130   7.346  14.030  0.00  0.00    +0.000 N 
ATOM     17  C   UNL     1      48.328   6.713  14.230  0.00  0.00    +0.000 C 
ATOM     18  O   UNL     1      49.165   6.563  13.348  0.00  0.00    +0.000 OA
ATOM     19  H   UNL     1      46.414   7.255  14.735  0.00  0.00    +0.000 HD
BRANCH  17  20
ATOM     20  C   UNL     1      48.572   6.265  15.609  0.00  0.00    +0.000 A 
ATOM     21  C   UNL     1      49.322   7.044  16.480  0.00  0.00    +0.000 A 
ATOM     22  S   UNL     1      49.488   6.360  18.035  0.00  0.00    +0.000 S 
ATOM     23  C   UNL     1      48.607   4.974  17.584  0.00  0.00    +0.000 A 
ATOM     24  N   UNL     1      48.416   3.947  18.454  0.00  0.00    +0.000 NA
ATOM     25  C   UNL     1      47.767   2.943  17.960  0.00  0.00    +0.000 A 
ATOM     26  N   UNL     1      47.278   2.879  16.685  0.00  0.00    +0.000 N 
ATOM     27  C   UNL     1      47.374   3.929  15.804  0.00  0.00    +0.000 A 
ATOM     28  O   UNL     1      46.787   3.894  14.729  0.00  0.00    +0.000 OA
ATOM     29  C   UNL     1      48.153   5.054  16.282  0.00  0.00    +0.000 A 
ATOM     30  H   UNL     1      46.737   2.087  16.373  0.00  0.00    +0.000 HD
ENDBRANCH  17  20
ENDBRANCH   1  16
BRANCH   1  31
ATOM     31  C   UNL     1      45.662   8.994  12.911  0.00  0.00    +0.000 C 
BRANCH  31  32
ATOM     32  O   UNL     1      45.708   9.871  11.782  0.00  0.00    +0.000 OA
BRANCH  32  34
ATOM     33  C   UNL     1      43.645   9.565  10.649  0.00  0.00    +0.000 C 
ATOM     34  C   UNL     1      44.447  10.490  11.541  0.00  0.00    +0.000 C 
ENDBRANCH  32  34
ENDBRANCH  31  32
ENDBRANCH   1  31
TORSDOF 9
ENDMDL
MODEL 2
REMARK VINA RESULT:    -7.800      2.715      4.758
REMARK INTER + INTRA:         -13.002
REMARK INTER:                 -11.623
REMARK INTRA:                  -1.379
REMARK UNBOUND:                -1.097
REMARK  Name = 
REMARK  10 active torsions:
REMARK  status: ('A' for Active; 'I' for Inactive)
REMARK    1  A    between atoms: C_1  and  C_2
REMARK    2  A    between atoms: C_2  and  O_3
REMARK    3  A    between atoms: O_3  and  C_4
REMARK    4  A    between atoms: C_4  and  C_5
REMARK    5  A    between atoms: C_5  and  N_6
REMARK    6  A    between atoms: C_5  and  C_19
REMARK    7  A    between atoms: C_7  and  C_9
REMARK    8  A    between atoms: C_22  and  O_23
REMARK    9  A    between atoms: O_23  and  C_24
REMARK   10  A    between atoms: C_24  and  C_25
REMARK                            x       y       z     vdW  Elec       q    Type
REMARK                         _______ _______ _______ _____ _____    ______ ____
ROOT
ATOM      1  C   UNL     1      46.799   5.710  14.015  0.00  0.00    +0.000 C 
ENDROOT
BRANCH   1   2
ATOM      2  C   UNL     1      46.035   5.174  12.817  0.00  0.00    +0.000 A 
ATOM      3  C   UNL     1      45.893   5.925  11.644  0.00  0.00    +0.000 A 
ATOM      4  C   UNL     1      45.213   5.390  10.542  0.00  0.00    +0.000 A 
ATOM      5  C   UNL     1      44.695   4.096  10.599  0.00  0.00    +0.000 A 
ATOM      6  C   UNL     1      44.790   3.364  11.781  0.00  0.00    +0.000 A 
ATOM      7  C   UNL     1      45.458   3.898  12.872  0.00  0.00    +0.000 A 
BRANCH   5   8
ATOM      8  O   UNL     1      44.114   3.599   9.463  0.00  0.00    +0.000 OA
BRANCH   8   9
ATOM      9  C   UNL     1      44.508   2.251   9.150  0.00  0.00    +0.000 C 
BRANCH   9  10
ATOM     10  C   UNL     1      45.599   2.219   8.111  0.00  0.00    +0.000 A 
ATOM     11  C   UNL     1      45.789   3.301   7.259  0.00  0.00    +0.000 A 
ATOM     12  C   UNL     1      46.832   3.260   6.343  0.00  0.00    +0.000 A 
ATOM     13  C   UNL     1      47.670   2.155   6.316  0.00  0.00    +0.000 A 
ATOM     14  C   UNL     1      47.434   1.130   7.219  0.00  0.00    +0.000 A 
ATOM     15  N   UNL     1      46.426   1.138   8.117  0.00  0.00    +0.000 NA
ENDBRANCH   9  10
ENDBRANCH   8   9
ENDBRANCH   5   8
ENDBRANCH   1   2
BRANCH   1  16
ATOM     16  N   UNL     1      47.979   6.432  13.555  0.00  0.00    +0.000 N 
ATOM     17  C   UNL     1      48.073   7.797  13.518  0.00  0.00    +0.000 C 
ATOM     18  O   UNL     1      47.197   8.543  13.939  0.00  0.00    +0.000 OA
ATOM     19  H   UNL     1      48.635   5.889  13.014  0.00  0.00    +0.000 HD
BRANCH  17  20
ATOM     20  C   UNL     1      49.339   8.319  12.981  0.00  0.00    +0.000 A 
ATOM     21  C   UNL     1      49.364   8.993  11.767  0.00  0.00    +0.000 A 
ATOM     22  S   UNL     1      50.920   9.528  11.317  0.00  0.00    +0.000 S 
ATOM     23  C   UNL     1      51.624   8.835  12.704  0.00  0.00    +0.000 A 
ATOM     24  N   UNL     1      52.967   8.889  12.915  0.00  0.00    +0.000 NA
ATOM     25  C   UNL     1      53.364   8.283  13.987  0.00  0.00    +0.000 A 
ATOM     26  N   UNL     1      52.542   7.643  14.872  0.00  0.00    +0.000 N 
ATOM     27  C   UNL     1      51.174   7.639  14.741  0.00  0.00    +0.000 A 
ATOM     28  O   UNL     1      50.465   7.194  15.636  0.00  0.00    +0.000 OA
ATOM     29  C   UNL     1      50.679   8.245  13.521  0.00  0.00    +0.000 A 
ATOM     30  H   UNL     1      52.907   7.229  15.717  0.00  0.00    +0.000 HD
ENDBRANCH  17  20
ENDBRANCH   1  16
BRANCH   1  31
ATOM     31  C   UNL     1      47.200   4.536  14.942  0.00  0.00    +0.000 C 
BRANCH  31  32
ATOM     32  O   UNL     1      48.227   4.944  15.848  0.00  0.00    +0.000 OA
BRANCH  32  34
ATOM     33  C   UNL     1      47.385   3.217  17.241  0.00  0.00    +0.000 C 
ATOM     34  C   UNL     1      47.892   4.644  17.200  0.00  0.00    +0.000 C 
ENDBRANCH  32  34
ENDBRANCH  31  32
ENDBRANCH   1  31
TORSDOF 9
ENDMDL
MODEL 3
REMARK VINA RESULT:    -7.798      2.173      2.937
REMARK INTER + INTRA:         -12.999
REMARK INTER:                 -11.515
REMARK INTRA:                  -1.484
REMARK UNBOUND:                -1.097
REMARK  Name = 
REMARK  10 active torsions:
REMARK  status: ('A' for Active; 'I' for Inactive)
REMARK    1  A    between atoms: C_1  and  C_2
REMARK    2  A    between atoms: C_2  and  O_3
REMARK    3  A    between atoms: O_3  and  C_4
REMARK    4  A    between atoms: C_4  and  C_5
REMARK    5  A    between atoms: C_5  and  N_6
REMARK    6  A    between atoms: C_5  and  C_19
REMARK    7  A    between atoms: C_7  and  C_9
REMARK    8  A    between atoms: C_22  and  O_23
REMARK    9  A    between atoms: O_23  and  C_24
REMARK   10  A    between atoms: C_24  and  C_25
REMARK                            x       y       z     vdW  Elec       q    Type
REMARK                         _______ _______ _______ _____ _____    ______ ____
ROOT
ATOM      1  C   UNL     1      47.834   6.966  13.683  0.00  0.00    +0.000 C 
ENDROOT
BRANCH   1   2
ATOM      2  C   UNL     1      46.911   6.124  12.820  0.00  0.00    +0.000 A 
ATOM      3  C   UNL     1      46.412   4.893  13.264  0.00  0.00    +0.000 A 
ATOM      4  C   UNL     1      45.534   4.156  12.460  0.00  0.00    +0.000 A 
ATOM      5  C   UNL     1      45.132   4.654  11.220  0.00  0.00    +0.000 A 
ATOM      6  C   UNL     1      45.664   5.854  10.752  0.00  0.00    +0.000 A 
ATOM      7  C   UNL     1      46.538   6.580  11.548  0.00  0.00    +0.000 A 
BRANCH   5   8
ATOM      8  O   UNL     1      44.209   3.927  10.517  0.00  0.00    +0.000 OA
BRANCH   8   9
ATOM      9  C   UNL     1      44.239   4.167   9.098  0.00  0.00    +0.000 C 
BRANCH   9  10
ATOM     10  C   UNL     1      45.300   3.340   8.419  0.00  0.00    +0.000 A 
ATOM     11  C   UNL     1      45.438   1.990   8.720  0.00  0.00    +0.000 A 
ATOM     12  C   UNL     1      46.395   1.246   8.043  0.00  0.00    +0.000 A 
ATOM     13  C   UNL     1      47.171   1.859   7.070  0.00  0.00    +0.000 A 
ATOM     14  C   UNL     1      46.953   3.201   6.807  0.00  0.00    +0.000 A 
ATOM     15  N   UNL     1      46.034   3.953   7.451  0.00  0.00    +0.000 NA
ENDBRANCH   9  10
ENDBRANCH   8   9
ENDBRANCH   5   8
ENDBRANCH   1   2
BRANCH   1  16
ATOM     16  N   UNL     1      47.865   6.421  15.034  0.00  0.00    +0.000 N 
ATOM     17  C   UNL     1      49.007   6.287  15.778  0.00  0.00    +0.000 C 
ATOM     18  O   UNL     1      50.104   6.683  15.403  0.00  0.00    +0.000 OA
ATOM     19  H   UNL     1      47.047   5.897  15.309  0.00  0.00    +0.000 HD
BRANCH  17  20
ATOM     20  C   UNL     1      48.818   5.677  17.103  0.00  0.00    +0.000 A 
ATOM     21  C   UNL     1      49.039   4.318  17.289  0.00  0.00    +0.000 A 
ATOM     22  S   UNL     1      48.775   3.799  18.893  0.00  0.00    +0.000 S 
ATOM     23  C   UNL     1      48.309   5.362  19.385  0.00  0.00    +0.000 A 
ATOM     24  N   UNL     1      47.903   5.608  20.660  0.00  0.00    +0.000 NA
ATOM     25  C   UNL     1      47.537   6.830  20.877  0.00  0.00    +0.000 A 
ATOM     26  N   UNL     1      47.555   7.828  19.943  0.00  0.00    +0.000 N 
ATOM     27  C   UNL     1      48.039   7.642  18.670  0.00  0.00    +0.000 A 
ATOM     28  O   UNL     1      48.186   8.596  17.916  0.00  0.00    +0.000 OA
ATOM     29  C   UNL     1      48.398   6.274  18.352  0.00  0.00    +0.000 A 
ATOM     30  H   UNL     1      47.303   8.775  20.187  0.00  0.00    +0.000 HD
ENDBRANCH  17  20
ENDBRANCH   1  16
BRANCH   1  31
ATOM     31  C   UNL     1      47.339   8.433  13.693  0.00  0.00    +0.000 C 
BRANCH  31  32
ATOM     32  O   UNL     1      48.449   9.333  13.741  0.00  0.00    +0.000 OA
BRANCH  32  34
ATOM     33  C   UNL     1      48.974   9.770  11.468  0.00  0.00    +0.000 C 
ATOM     34  C   UNL     1      49.407   9.047  12.726  0.00  0.00    +0.000 C 
ENDBRANCH  32  34
ENDBRANCH  31  32
ENDBRANCH   1  31
TORSDOF 9
ENDMDL
MODEL 4
REMARK VINA RESULT:    -7.757      2.009      2.779
REMARK INTER + INTRA:         -12.936
REMARK INTER:                 -11.729
REMARK INTRA:                  -1.207
REMARK UNBOUND:                -1.097
REMARK  Name = 
REMARK  10 active torsions:
REMARK  status: ('A' for Active; 'I' for Inactive)
REMARK    1  A    between atoms: C_1  and  C_2
REMARK    2  A    between atoms: C_2  and  O_3
REMARK    3  A    between atoms: O_3  and  C_4
REMARK    4  A    between atoms: C_4  and  C_5
REMARK    5  A    between atoms: C_5  and  N_6
REMARK    6  A    between atoms: C_5  and  C_19
REMARK    7  A    between atoms: C_7  and  C_9
REMARK    8  A    between atoms: C_22  and  O_23
REMARK    9  A    between atoms: O_23  and  C_24
REMARK   10  A    between atoms: C_24  and  C_25
REMARK                            x       y       z     vdW  Elec       q    Type
REMARK                         _______ _______ _______ _____ _____    ______ ____
ROOT
ATOM      1  C   UNL     1      48.111   7.176  13.357  0.00  0.00    +0.000 C 
ENDROOT
BRANCH   1   2
ATOM      2  C   UNL     1      47.054   6.276  12.741  0.00  0.00    +0.000 A 
ATOM      3  C   UNL     1      46.451   6.586  11.516  0.00  0.00    +0.000 A 
ATOM      4  C   UNL     1      45.505   5.719  10.956  0.00  0.00    +0.000 A 
ATOM      5  C   UNL     1      45.177   4.527  11.603  0.00  0.00    +0.000 A 
ATOM      6  C   UNL     1      45.736   4.238  12.846  0.00  0.00    +0.000 A 
ATOM      7  C   UNL     1      46.668   5.102  13.401  0.00  0.00    +0.000 A 
BRANCH   5   8
ATOM      8  O   UNL     1      44.308   3.682  10.966  0.00  0.00    +0.000 OA
BRANCH   8   9
ATOM      9  C   UNL     1      44.121   3.985   9.571  0.00  0.00    +0.000 C 
BRANCH   9  10
ATOM     10  C   UNL     1      45.167   3.319   8.714  0.00  0.00    +0.000 A 
ATOM     11  C   UNL     1      45.437   1.963   8.863  0.00  0.00    +0.000 A 
ATOM     12  C   UNL     1      46.373   1.369   8.027  0.00  0.00    +0.000 A 
ATOM     13  C   UNL     1      46.997   2.134   7.053  0.00  0.00    +0.000 A 
ATOM     14  C   UNL     1      46.652   3.471   6.947  0.00  0.00    +0.000 A 
ATOM     15  N   UNL     1      45.750   4.079   7.748  0.00  0.00    +0.000 NA
ENDBRANCH   9  10
ENDBRANCH   8   9
ENDBRANCH   5   8
ENDBRANCH   1   2
BRANCH   1  16
ATOM     16  N   UNL     1      47.993   7.139  14.809  0.00  0.00    +0.000 N 
ATOM     17  C   UNL     1      49.040   6.889  15.655  0.00  0.00    +0.000 C 
ATOM     18  O   UNL     1      50.194   6.743  15.272  0.00  0.00    +0.000 OA
ATOM     19  H   UNL     1      47.053   7.046  15.165  0.00  0.00    +0.000 HD
BRANCH  17  20
ATOM     20  C   UNL     1      48.692   6.859  17.084  0.00  0.00    +0.000 A 
ATOM     21  C   UNL     1      48.284   8.016  17.734  0.00  0.00    +0.000 A 
ATOM     22  S   UNL     1      47.918   7.779  19.383  0.00  0.00    +0.000 S 
ATOM     23  C   UNL     1      48.339   6.131  19.300  0.00  0.00    +0.000 A 
ATOM     24  N   UNL     1      48.298   5.337  20.404  0.00  0.00    +0.000 NA
ATOM     25  C   UNL     1      48.687   4.120  20.200  0.00  0.00    +0.000 A 
ATOM     26  N   UNL     1      49.096   3.622  18.995  0.00  0.00    +0.000 N 
ATOM     27  C   UNL     1      49.070   4.366  17.840  0.00  0.00    +0.000 A 
ATOM     28  O   UNL     1      49.292   3.840  16.756  0.00  0.00    +0.000 OA
ATOM     29  C   UNL     1      48.709   5.758  18.023  0.00  0.00    +0.000 A 
ATOM     30  H   UNL     1      49.342   2.648  18.889  0.00  0.00    +0.000 HD
ENDBRANCH  17  20
ENDBRANCH   1  16
BRANCH   1  31
ATOM     31  C   UNL     1      47.935   8.620  12.828  0.00  0.00    +0.000 C 
BRANCH  31  32
ATOM     32  O   UNL     1      49.141   9.074  12.207  0.00  0.00    +0.000 OA
BRANCH  32  34
ATOM     33  C   UNL     1      51.263   8.575  11.270  0.00  0.00    +0.000 C 
ATOM     34  C   UNL     1      49.979   7.989  11.820  0.00  0.00    +0.000 C 
ENDBRANCH  32  34
ENDBRANCH  31  32
ENDBRANCH   1  31
TORSDOF 9
ENDMDL
MODEL 5
REMARK VINA RESULT:    -7.663      2.300      4.914
REMARK INTER + INTRA:         -12.793
REMARK INTER:                 -11.297
REMARK INTRA:                  -1.496
REMARK UNBOUND:                -1.097
REMARK  Name = 
REMARK  10 active torsions:
REMARK  status: ('A' for Active; 'I' for Inactive)
REMARK    1  A    between atoms: C_1  and  C_2
REMARK    2  A    between atoms: C_2  and  O_3
REMARK    3  A    between atoms: O_3  and  C_4
REMARK    4  A    between atoms: C_4  and  C_5
REMARK    5  A    between atoms: C_5  and  N_6
REMARK    6  A    between atoms: C_5  and  C_19
REMARK    7  A    between atoms: C_7  and  C_9
REMARK    8  A    between atoms: C_22  and  O_23
REMARK    9  A    between atoms: O_23  and  C_24
REMARK   10  A    between atoms: C_24  and  C_25
REMARK                            x       y       z     vdW  Elec       q    Type
REMARK                         _______ _______ _______ _____ _____    ______ ____
ROOT
ATOM      1  C   UNL     1      46.928   5.171  14.880  0.00  0.00    +0.000 C 
ENDROOT
BRANCH   1   2
ATOM      2  C   UNL     1      46.250   4.958  13.538  0.00  0.00    +0.000 A 
ATOM      3  C   UNL     1      46.143   5.990  12.598  0.00  0.00    +0.000 A 
ATOM      4  C   UNL     1      45.543   5.753  11.355  0.00  0.00    +0.000 A 
ATOM      5  C   UNL     1      45.070   4.480  11.036  0.00  0.00    +0.000 A 
ATOM      6  C   UNL     1      45.128   3.462  11.986  0.00  0.00    +0.000 A 
ATOM      7  C   UNL     1      45.717   3.701  13.219  0.00  0.00    +0.000 A 
BRANCH   5   8
ATOM      8  O   UNL     1      44.569   4.291   9.776  0.00  0.00    +0.000 OA
BRANCH   8   9
ATOM      9  C   UNL     1      44.461   2.907   9.395  0.00  0.00    +0.000 C 
BRANCH   9  10
ATOM     10  C   UNL     1      45.484   2.536   8.354  0.00  0.00    +0.000 A 
ATOM     11  C   UNL     1      45.912   3.477   7.424  0.00  0.00    +0.000 A 
ATOM     12  C   UNL     1      46.890   3.117   6.506  0.00  0.00    +0.000 A 
ATOM     13  C   UNL     1      47.431   1.841   6.553  0.00  0.00    +0.000 A 
ATOM     14  C   UNL     1      46.973   0.970   7.529  0.00  0.00    +0.000 A 
ATOM     15  N   UNL     1      46.020   1.288   8.432  0.00  0.00    +0.000 NA
ENDBRANCH   9  10
ENDBRANCH   8   9
ENDBRANCH   5   8
ENDBRANCH   1   2
BRANCH   1  16
ATOM     16  N   UNL     1      48.092   6.030  14.703  0.00  0.00    +0.000 N 
ATOM     17  C   UNL     1      48.778   6.611  15.737  0.00  0.00    +0.000 C 
ATOM     18  O   UNL     1      48.519   6.402  16.916  0.00  0.00    +0.000 OA
ATOM     19  H   UNL     1      48.222   6.398  13.772  0.00  0.00    +0.000 HD
BRANCH  17  20
ATOM     20  C   UNL     1      49.899   7.473  15.333  0.00  0.00    +0.000 A 
ATOM     21  C   UNL     1      51.196   7.169  15.722  0.00  0.00    +0.000 A 
ATOM     22  S   UNL     1      52.358   8.281  15.151  0.00  0.00    +0.000 S 
ATOM     23  C   UNL     1      51.162   9.237  14.405  0.00  0.00    +0.000 A 
ATOM     24  N   UNL     1      51.482  10.393  13.764  0.00  0.00    +0.000 NA
ATOM     25  C   UNL     1      50.467  11.036  13.285  0.00  0.00    +0.000 A 
ATOM     26  N   UNL     1      49.167  10.622  13.373  0.00  0.00    +0.000 N 
ATOM     27  C   UNL     1      48.811   9.420  13.935  0.00  0.00    +0.000 A 
ATOM     28  O   UNL     1      47.658   9.012  13.853  0.00  0.00    +0.000 OA
ATOM     29  C   UNL     1      49.901   8.690  14.551  0.00  0.00    +0.000 A 
ATOM     30  H   UNL     1      48.422  11.144  12.935  0.00  0.00    +0.000 HD
ENDBRANCH  17  20
ENDBRANCH   1  16
BRANCH   1  31
ATOM     31  C   UNL     1      47.340   3.803  15.477  0.00  0.00    +0.000 C 
BRANCH  31  32
ATOM     32  O   UNL     1      46.659   3.573  16.713  0.00  0.00    +0.000 OA
BRANCH  32  34
ATOM     33  C   UNL     1      48.886   2.846  17.091  0.00  0.00    +0.000 C 
ATOM     34  C   UNL     1      47.477   2.875  17.647  0.00  0.00    +0.000 C 
ENDBRANCH  32  34
ENDBRANCH  31  32
ENDBRANCH   1  31
TORSDOF 9
ENDMDL
MODEL 6
REMARK VINA RESULT:    -7.073      3.057      5.942
REMARK INTER + INTRA:         -11.892
REMARK INTER:                 -10.734
REMARK INTRA:                  -1.159
REMARK UNBOUND:                -1.097
REMARK  Name = 
REMARK  10 active torsions:
REMARK  status: ('A' for Active; 'I' for Inactive)
REMARK    1  A    between atoms: C_1  and  C_2
REMARK    2  A    between atoms: C_2  and  O_3
REMARK    3  A    between atoms: O_3  and  C_4
REMARK    4  A    between atoms: C_4  and  C_5
REMARK    5  A    between atoms: C_5  and  N_6
REMARK    6  A    between atoms: C_5  and  C_19
REMARK    7  A    between atoms: C_7  and  C_9
REMARK    8  A    between atoms: C_22  and  O_23
REMARK    9  A    between atoms: O_23  and  C_24
REMARK   10  A    between atoms: C_24  and  C_25
REMARK                            x       y       z     vdW  Elec       q    Type
REMARK                         _______ _______ _______ _____ _____    ______ ____
ROOT
ATOM      1  C   UNL     1      46.371   4.786  14.137  0.00  0.00    +0.000 C 
ENDROOT
BRANCH   1   2
ATOM      2  C   UNL     1      46.316   6.087  13.356  0.00  0.00    +0.000 A 
ATOM      3  C   UNL     1      45.109   6.594  12.859  0.00  0.00    +0.000 A 
ATOM      4  C   UNL     1      45.084   7.814  12.174  0.00  0.00    +0.000 A 
ATOM      5  C   UNL     1      46.259   8.546  12.003  0.00  0.00    +0.000 A 
ATOM      6  C   UNL     1      47.471   8.023  12.451  0.00  0.00    +0.000 A 
ATOM      7  C   UNL     1      47.493   6.812  13.124  0.00  0.00    +0.000 A 
BRANCH   5   8
ATOM      8  O   UNL     1      46.158   9.770  11.397  0.00  0.00    +0.000 OA
BRANCH   8   9
ATOM      9  C   UNL     1      45.238  10.666  12.048  0.00  0.00    +0.000 C 
BRANCH   9  10
ATOM     10  C   UNL     1      43.996  10.881  11.222  0.00  0.00    +0.000 A 
ATOM     11  C   UNL     1      44.023  10.679   9.847  0.00  0.00    +0.000 A 
ATOM     12  C   UNL     1      42.850  10.841   9.121  0.00  0.00    +0.000 A 
ATOM     13  C   UNL     1      41.680  11.176   9.786  0.00  0.00    +0.000 A 
ATOM     14  C   UNL     1      41.728  11.331  11.162  0.00  0.00    +0.000 A 
ATOM     15  N   UNL     1      42.853  11.185  11.895  0.00  0.00    +0.000 NA
ENDBRANCH   9  10
ENDBRANCH   8   9
ENDBRANCH   5   8
ENDBRANCH   1   2
BRANCH   1  16
ATOM     16  N   UNL     1      47.431   4.863  15.134  0.00  0.00    +0.000 N 
ATOM     17  C   UNL     1      47.380   4.244  16.354  0.00  0.00    +0.000 C 
ATOM     18  O   UNL     1      46.465   3.503  16.694  0.00  0.00    +0.000 OA
ATOM     19  H   UNL     1      48.099   5.609  15.000  0.00  0.00    +0.000 HD
BRANCH  17  20
ATOM     20  C   UNL     1      48.541   4.486  17.224  0.00  0.00    +0.000 A 
ATOM     21  C   UNL     1      48.621   5.644  17.986  0.00  0.00    +0.000 A 
ATOM     22  S   UNL     1      50.036   5.740  18.934  0.00  0.00    +0.000 S 
ATOM     23  C   UNL     1      50.617   4.261  18.322  0.00  0.00    +0.000 A 
ATOM     24  N   UNL     1      51.831   3.772  18.695  0.00  0.00    +0.000 NA
ATOM     25  C   UNL     1      52.160   2.663  18.116  0.00  0.00    +0.000 A 
ATOM     26  N   UNL     1      51.382   1.992  17.214  0.00  0.00    +0.000 N 
ATOM     27  C   UNL     1      50.116   2.406  16.876  0.00  0.00    +0.000 A 
ATOM     28  O   UNL     1      49.392   1.695  16.190  0.00  0.00    +0.000 OA
ATOM     29  C   UNL     1      49.724   3.681  17.443  0.00  0.00    +0.000 A 
ATOM     30  H   UNL     1      51.674   1.104  16.833  0.00  0.00    +0.000 HD
ENDBRANCH  17  20
ENDBRANCH   1  16
BRANCH   1  31
ATOM     31  C   UNL     1      46.616   3.607  13.164  0.00  0.00    +0.000 C 
BRANCH  31  32
ATOM     32  O   UNL     1      45.393   2.916  12.899  0.00  0.00    +0.000 OA
BRANCH  32  34
ATOM     33  C   UNL     1      43.371   3.069  11.667  0.00  0.00    +0.000 C 
ATOM     34  C   UNL     1      44.876   3.227  11.609  0.00  0.00    +0.000 C 
ENDBRANCH  32  34
ENDBRANCH  31  32
ENDBRANCH   1  31
TORSDOF 9
ENDMDL
MODEL 7
REMARK VINA RESULT:    -6.826      3.996      5.784
REMARK INTER + INTRA:         -11.515
REMARK INTER:                 -10.147
REMARK INTRA:                  -1.368
REMARK UNBOUND:                -1.097
REMARK  Name = 
REMARK  10 active torsions:
REMARK  status: ('A' for Active; 'I' for Inactive)
REMARK    1  A    between atoms: C_1  and  C_2
REMARK    2  A    between atoms: C_2  and  O_3
REMARK    3  A    between atoms: O_3  and  C_4
REMARK    4  A    between atoms: C_4  and  C_5
REMARK    5  A    between atoms: C_5  and  N_6
REMARK    6  A    between atoms: C_5  and  C_19
REMARK    7  A    between atoms: C_7  and  C_9
REMARK    8  A    between atoms: C_22  and  O_23
REMARK    9  A    between atoms: O_23  and  C_24
REMARK   10  A    between atoms: C_24  and  C_25
REMARK                            x       y       z     vdW  Elec       q    Type
REMARK                         _______ _______ _______ _____ _____    ______ ____
ROOT
ATOM      1  C   UNL     1      48.356   7.482  13.575  0.00  0.00    +0.000 C 
ENDROOT
BRANCH   1   2
ATOM      2  C   UNL     1      47.341   6.555  12.931  0.00  0.00    +0.000 A 
ATOM      3  C   UNL     1      47.016   5.316  13.498  0.00  0.00    +0.000 A 
ATOM      4  C   UNL     1      46.050   4.498  12.901  0.00  0.00    +0.000 A 
ATOM      5  C   UNL     1      45.386   4.923  11.749  0.00  0.00    +0.000 A 
ATOM      6  C   UNL     1      45.742   6.131  11.152  0.00  0.00    +0.000 A 
ATOM      7  C   UNL     1      46.703   6.937  11.743  0.00  0.00    +0.000 A 
BRANCH   5   8
ATOM      8  O   UNL     1      44.395   4.116  11.259  0.00  0.00    +0.000 OA
BRANCH   8   9
ATOM      9  C   UNL     1      44.122   4.316   9.860  0.00  0.00    +0.000 C 
BRANCH   9  10
ATOM     10  C   UNL     1      45.080   3.543   8.992  0.00  0.00    +0.000 A 
ATOM     11  C   UNL     1      45.190   2.163   9.124  0.00  0.00    +0.000 A 
ATOM     12  C   UNL     1      46.049   1.474   8.278  0.00  0.00    +0.000 A 
ATOM     13  C   UNL     1      46.756   2.172   7.310  0.00  0.00    +0.000 A 
ATOM     14  C   UNL     1      46.569   3.542   7.221  0.00  0.00    +0.000 A 
ATOM     15  N   UNL     1      45.746   4.241   8.032  0.00  0.00    +0.000 NA
ENDBRANCH   9  10
ENDBRANCH   8   9
ENDBRANCH   5   8
ENDBRANCH   1   2
BRANCH   1  16
ATOM     16  N   UNL     1      49.627   7.376  12.869  0.00  0.00    +0.000 N 
ATOM     17  C   UNL     1      50.215   8.410  12.193  0.00  0.00    +0.000 C 
ATOM     18  O   UNL     1      49.761   9.548  12.179  0.00  0.00    +0.000 OA
ATOM     19  H   UNL     1      49.936   6.434  12.674  0.00  0.00    +0.000 HD
BRANCH  17  20
ATOM     20  C   UNL     1      51.477   8.075  11.517  0.00  0.00    +0.000 A 
ATOM     21  C   UNL     1      51.469   7.382  10.314  0.00  0.00    +0.000 A 
ATOM     22  S   UNL     1      53.028   7.093   9.683  0.00  0.00    +0.000 S 
ATOM     23  C   UNL     1      53.772   7.840  11.021  0.00  0.00    +0.000 A 
ATOM     24  N   UNL     1      55.126   7.893  11.136  0.00  0.00    +0.000 NA
ATOM     25  C   UNL     1      55.548   8.450  12.224  0.00  0.00    +0.000 A 
ATOM     26  N   UNL     1      54.743   8.972  13.198  0.00  0.00    +0.000 N 
ATOM     27  C   UNL     1      53.374   9.015  13.081  0.00  0.00    +0.000 A 
ATOM     28  O   UNL     1      52.700   9.631  13.898  0.00  0.00    +0.000 OA
ATOM     29  C   UNL     1      52.844   8.342  11.912  0.00  0.00    +0.000 A 
ATOM     30  H   UNL     1      55.133   9.438  14.004  0.00  0.00    +0.000 HD
ENDBRANCH  17  20
ENDBRANCH   1  16
BRANCH   1  31
ATOM     31  C   UNL     1      48.524   7.111  15.069  0.00  0.00    +0.000 C 
BRANCH  31  32
ATOM     32  O   UNL     1      49.772   6.445  15.280  0.00  0.00    +0.000 OA
BRANCH  32  34
ATOM     33  C   UNL     1      48.829   5.086  16.982  0.00  0.00    +0.000 C 
ATOM     34  C   UNL     1      49.941   6.056  16.640  0.00  0.00    +0.000 C 
ENDBRANCH  32  34
ENDBRANCH  31  32
ENDBRANCH   1  31
TORSDOF 9
ENDMDL
MODEL 8
REMARK VINA RESULT:    -6.781      4.545      8.572
REMARK INTER + INTRA:         -11.446
REMARK INTER:                 -10.737
REMARK INTRA:                  -0.709
REMARK UNBOUND:                -1.097
REMARK  Name = 
REMARK  10 active torsions:
REMARK  status: ('A' for Active; 'I' for Inactive)
REMARK    1  A    between atoms: C_1  and  C_2
REMARK    2  A    between atoms: C_2  and  O_3
REMARK    3  A    between atoms: O_3  and  C_4
REMARK    4  A    between atoms: C_4  and  C_5
REMARK    5  A    between atoms: C_5  and  N_6
REMARK    6  A    between atoms: C_5  and  C_19
REMARK    7  A    between atoms: C_7  and  C_9
REMARK    8  A    between atoms: C_22  and  O_23
REMARK    9  A    between atoms: O_23  and  C_24
REMARK   10  A    between atoms: C_24  and  C_25
REMARK                            x       y       z     vdW  Elec       q    Type
REMARK                         _______ _______ _______ _____ _____    ______ ____
ROOT
ATOM      1  C   UNL     1      48.661   5.819  17.280  0.00  0.00    +0.000 C 
ENDROOT
BRANCH   1   2
ATOM      2  C   UNL     1      49.464   4.532  17.331  0.00  0.00    +0.000 A 
ATOM      3  C   UNL     1      48.870   3.287  17.092  0.00  0.00    +0.000 A 
ATOM      4  C   UNL     1      49.644   2.120  17.111  0.00  0.00    +0.000 A 
ATOM      5  C   UNL     1      51.018   2.194  17.342  0.00  0.00    +0.000 A 
ATOM      6  C   UNL     1      51.606   3.424  17.630  0.00  0.00    +0.000 A 
ATOM      7  C   UNL     1      50.836   4.578  17.617  0.00  0.00    +0.000 A 
BRANCH   5   8
ATOM      8  O   UNL     1      51.734   1.029  17.266  0.00  0.00    +0.000 OA
BRANCH   8   9
ATOM      9  C   UNL     1      53.083   1.143  17.756  0.00  0.00    +0.000 C 
BRANCH   9  10
ATOM     10  C   UNL     1      53.795  -0.184  17.732  0.00  0.00    +0.000 A 
ATOM     11  C   UNL     1      54.590  -0.535  16.647  0.00  0.00    +0.000 A 
ATOM     12  C   UNL     1      55.270  -1.745  16.676  0.00  0.00    +0.000 A 
ATOM     13  C   UNL     1      55.159  -2.561  17.792  0.00  0.00    +0.000 A 
ATOM     14  C   UNL     1      54.372  -2.127  18.846  0.00  0.00    +0.000 A 
ATOM     15  N   UNL     1      53.694  -0.959  18.846  0.00  0.00    +0.000 NA
ENDBRANCH   9  10
ENDBRANCH   8   9
ENDBRANCH   5   8
ENDBRANCH   1   2
BRANCH   1  16
ATOM     16  N   UNL     1      47.856   5.841  16.065  0.00  0.00    +0.000 N 
ATOM     17  C   UNL     1      48.330   6.235  14.842  0.00  0.00    +0.000 C 
ATOM     18  O   UNL     1      49.500   6.537  14.639  0.00  0.00    +0.000 OA
ATOM     19  H   UNL     1      46.857   5.806  16.206  0.00  0.00    +0.000 HD
BRANCH  17  20
ATOM     20  C   UNL     1      47.338   6.218  13.756  0.00  0.00    +0.000 A 
ATOM     21  C   UNL     1      46.961   7.399  13.129  0.00  0.00    +0.000 A 
ATOM     22  S   UNL     1      45.807   7.175  11.892  0.00  0.00    +0.000 S 
ATOM     23  C   UNL     1      45.733   5.499  12.184  0.00  0.00    +0.000 A 
ATOM     24  N   UNL     1      44.883   4.698  11.485  0.00  0.00    +0.000 NA
ATOM     25  C   UNL     1      44.903   3.456  11.844  0.00  0.00    +0.000 A 
ATOM     26  N   UNL     1      45.704   2.939  12.823  0.00  0.00    +0.000 N 
ATOM     27  C   UNL     1      46.637   3.695  13.492  0.00  0.00    +0.000 A 
ATOM     28  O   UNL     1      47.443   3.164  14.247  0.00  0.00    +0.000 OA
ATOM     29  C   UNL     1      46.609   5.110  13.178  0.00  0.00    +0.000 A 
ATOM     30  H   UNL     1      45.709   1.950  13.025  0.00  0.00    +0.000 HD
ENDBRANCH  17  20
ENDBRANCH   1  16
BRANCH   1  31
ATOM     31  C   UNL     1      49.621   7.033  17.326  0.00  0.00    +0.000 C 
BRANCH  31  32
ATOM     32  O   UNL     1      48.936   8.193  17.804  0.00  0.00    +0.000 OA
BRANCH  32  34
ATOM     33  C   UNL     1      47.185   8.762  19.301  0.00  0.00    +0.000 C 
ATOM     34  C   UNL     1      48.506   8.037  19.153  0.00  0.00    +0.000 C 
ENDBRANCH  32  34
ENDBRANCH  31  32
ENDBRANCH   1  31
TORSDOF 9
ENDMDL
MODEL 9
REMARK VINA RESULT:    -6.692      3.218      8.083
REMARK INTER + INTRA:         -11.311
REMARK INTER:                  -9.877
REMARK INTRA:                  -1.434
REMARK UNBOUND:                -1.097
REMARK  Name = 
REMARK  10 active torsions:
REMARK  status: ('A' for Active; 'I' for Inactive)
REMARK    1  A    between atoms: C_1  and  C_2
REMARK    2  A    between atoms: C_2  and  O_3
REMARK    3  A    between atoms: O_3  and  C_4
REMARK    4  A    between atoms: C_4  and  C_5
REMARK    5  A    between atoms: C_5  and  N_6
REMARK    6  A    between atoms: C_5  and  C_19
REMARK    7  A    between atoms: C_7  and  C_9
REMARK    8  A    between atoms: C_22  and  O_23
REMARK    9  A    between atoms: O_23  and  C_24
REMARK   10  A    between atoms: C_24  and  C_25
REMARK                            x       y       z     vdW  Elec       q    Type
REMARK                         _______ _______ _______ _____ _____    ______ ____
ROOT
ATOM      1  C   UNL     1      47.628   7.109  13.023  0.00  0.00    +0.000 C 
ENDROOT
BRANCH   1   2
ATOM      2  C   UNL     1      48.221   6.648  14.343  0.00  0.00    +0.000 A 
ATOM      3  C   UNL     1      47.667   5.583  15.063  0.00  0.00    +0.000 A 
ATOM      4  C   UNL     1      48.256   5.158  16.260  0.00  0.00    +0.000 A 
ATOM      5  C   UNL     1      49.415   5.777  16.730  0.00  0.00    +0.000 A 
ATOM      6  C   UNL     1      49.942   6.869  16.044  0.00  0.00    +0.000 A 
ATOM      7  C   UNL     1      49.352   7.292  14.862  0.00  0.00    +0.000 A 
BRANCH   5   8
ATOM      8  O   UNL     1      49.991   5.263  17.861  0.00  0.00    +0.000 OA
BRANCH   8   9
ATOM      9  C   UNL     1      51.408   5.040  17.742  0.00  0.00    +0.000 C 
BRANCH   9  10
ATOM     10  C   UNL     1      51.742   3.571  17.758  0.00  0.00    +0.000 A 
ATOM     11  C   UNL     1      50.785   2.630  17.395  0.00  0.00    +0.000 A 
ATOM     12  C   UNL     1      51.139   1.287  17.375  0.00  0.00    +0.000 A 
ATOM     13  C   UNL     1      52.437   0.921  17.695  0.00  0.00    +0.000 A 
ATOM     14  C   UNL     1      53.341   1.920  18.017  0.00  0.00    +0.000 A 
ATOM     15  N   UNL     1      53.027   3.233  18.050  0.00  0.00    +0.000 NA
ENDBRANCH   9  10
ENDBRANCH   8   9
ENDBRANCH   5   8
ENDBRANCH   1   2
BRANCH   1  16
ATOM     16  N   UNL     1      46.826   6.035  12.451  0.00  0.00    +0.000 N 
ATOM     17  C   UNL     1      45.462   6.080  12.334  0.00  0.00    +0.000 C 
ATOM     18  O   UNL     1      44.793   7.061  12.634  0.00  0.00    +0.000 OA
ATOM     19  H   UNL     1      47.286   5.140  12.381  0.00  0.00    +0.000 HD
BRANCH  17  20
ATOM     20  C   UNL     1      44.847   4.872  11.763  0.00  0.00    +0.000 A 
ATOM     21  C   UNL     1      44.045   4.053  12.547  0.00  0.00    +0.000 A 
ATOM     22  S   UNL     1      43.417   2.707  11.707  0.00  0.00    +0.000 S 
ATOM     23  C   UNL     1      44.236   3.143  10.279  0.00  0.00    +0.000 A 
ATOM     24  N   UNL     1      44.165   2.370   9.162  0.00  0.00    +0.000 NA
ATOM     25  C   UNL     1      44.873   2.801   8.168  0.00  0.00    +0.000 A 
ATOM     26  N   UNL     1      45.630   3.939   8.184  0.00  0.00    +0.000 N 
ATOM     27  C   UNL     1      45.660   4.792   9.261  0.00  0.00    +0.000 A 
ATOM     28  O   UNL     1      46.222   5.878   9.179  0.00  0.00    +0.000 OA
ATOM     29  C   UNL     1      44.940   4.322  10.428  0.00  0.00    +0.000 A 
ATOM     30  H   UNL     1      46.123   4.249   7.360  0.00  0.00    +0.000 HD
ENDBRANCH  17  20
ENDBRANCH   1  16
BRANCH   1  31
ATOM     31  C   UNL     1      48.768   7.518  12.058  0.00  0.00    +0.000 C 
BRANCH  31  32
ATOM     32  O   UNL     1      48.734   8.926  11.815  0.00  0.00    +0.000 OA
BRANCH  32  34
ATOM     33  C   UNL     1      50.984   8.268  11.446  0.00  0.00    +0.000 C 
ATOM     34  C   UNL     1      50.017   9.434  11.459  0.00  0.00    +0.000 C 
ENDBRANCH  32  34
ENDBRANCH  31  32
ENDBRANCH   1  31
TORSDOF 9
ENDMDL
