MODEL 1
REMARK VINA RESULT:    -8.272      0.000      0.000
REMARK INTER + INTRA:         -12.726
REMARK INTER:                 -12.140
REMARK INTRA:                  -0.586
REMARK UNBOUND:                -0.586
REMARK  Name = 
REMARK  10 active torsions:
REMARK  status: ('A' for Active; 'I' for Inactive)
REMARK    1  A    between atoms: C_1  and  C_2
REMARK    2  A    between atoms: C_2  and  N_3
REMARK    3  A    between atoms: C_2  and  C_20
REMARK    4  A    between atoms: N_3  and  C_4
REMARK    5  A    between atoms: C_4  and  C_5
REMARK    6  A    between atoms: C_8  and  C_9
REMARK    7  A    between atoms: C_9  and  N_10
REMARK    8  A    between atoms: N_10  and  C_11
REMARK    9  A    between atoms: C_11  and  C_12
REMARK   10  A    between atoms: N_15  and  C_16
REMARK                            x       y       z     vdW  Elec       q    Type
REMARK                         _______ _______ _______ _____ _____    ______ ____
ROOT
ATOM      1  C   UNL     1      47.656   5.213  14.703  0.00  0.00    +0.000 C 
ENDROOT
BRANCH   1   2
ATOM      2  C   UNL     1      46.571   4.925  13.676  0.00  0.00    +0.000 A 
ATOM      3  C   UNL     1      45.866   5.980  13.103  0.00  0.00    +0.000 A 
ATOM      4  C   UNL     1      44.838   5.699  12.208  0.00  0.00    +0.000 A 
ATOM      5  C   UNL     1      44.544   4.376  11.863  0.00  0.00    +0.000 A 
ATOM      6  C   UNL     1      45.301   3.388  12.487  0.00  0.00    +0.000 A 
ATOM      7  N   UNL     1      46.298   3.627  13.378  0.00  0.00    +0.000 NA
BRANCH   5   8
ATOM      8  C   UNL     1      43.427   4.028  10.903  0.00  0.00    +0.000 C 
BRANCH   8   9
ATOM      9  N   UNL     1      43.705   4.570   9.574  0.00  0.00    +0.000 NA
ATOM     10  H   UNL     1      43.377   5.535   9.539  0.00  0.00    +0.000 HD
BRANCH   9  11
ATOM     11  C   UNL     1      45.110   4.511   9.176  0.00  0.00    +0.000 C 
BRANCH  11  12
ATOM     12  C   UNL     1      45.276   3.354   8.183  0.00  0.00    +0.000 C 
ATOM     13  C   UNL     1      45.628   2.020   8.848  0.00  0.00    +0.000 C 
ATOM     14  C   UNL     1      46.416   1.302   7.773  0.00  0.00    +0.000 C 
ATOM     15  N   UNL     1      47.251   2.386   7.257  0.00  0.00    +0.000 NA
ATOM     16  C   UNL     1      47.907   2.037   6.006  0.00  0.00    +0.000 C 
ATOM     17  C   UNL     1      46.384   3.564   7.142  0.00  0.00    +0.000 C 
ENDBRANCH  11  12
ENDBRANCH   9  11
ENDBRANCH   8   9
ENDBRANCH   5   8
ENDBRANCH   1   2
BRANCH   1  18
ATOM     18  N   UNL     1      47.237   4.860  16.064  0.00  0.00    +0.000 NA
ATOM     19  H   UNL     1      47.422   5.685  16.640  0.00  0.00    +0.000 HD
BRANCH  18  21
ATOM     20  C   UNL     1      47.093   2.822  17.506  0.00  0.00    +0.000 C 
ATOM     21  C   UNL     1      47.974   3.716  16.625  0.00  0.00    +0.000 C 
BRANCH  21  22
ATOM     22  C   UNL     1      49.127   4.278  17.445  0.00  0.00    +0.000 A 
ATOM     23  C   UNL     1      49.119   5.515  18.075  0.00  0.00    +0.000 A 
ATOM     24  S   UNL     1      50.571   5.867  18.900  0.00  0.00    +0.000 S 
ATOM     25  C   UNL     1      51.243   4.362  18.480  0.00  0.00    +0.000 A 
ATOM     26  N   UNL     1      52.492   4.012  18.888  0.00  0.00    +0.000 NA
ATOM     27  C   UNL     1      52.861   2.831  18.513  0.00  0.00    +0.000 A 
ATOM     28  N   UNL     1      52.095   1.969  17.771  0.00  0.00    +0.000 N 
ATOM     29  C   UNL     1      50.820   2.274  17.341  0.00  0.00    +0.000 A 
ATOM     30  O   UNL     1      50.148   1.469  16.708  0.00  0.00    +0.000 OA
ATOM     31  C   UNL     1      50.371   3.600  17.724  0.00  0.00    +0.000 A 
ATOM     32  H   UNL     1      52.439   1.053  17.530  0.00  0.00    +0.000 HD
ENDBRANCH  21  22
ENDBRANCH  18  21
ENDBRANCH   1  18
TORSDOF 8
ENDMDL
MODEL 2
REMARK VINA RESULT:    -7.740      2.441      2.968
REMARK INTER + INTRA:         -11.945
REMARK INTER:                 -11.044
REMARK INTRA:                  -0.902
REMARK UNBOUND:                -0.586
REMARK  Name = 
REMARK  10 active torsions:
REMARK  status: ('A' for Active; 'I' for Inactive)
REMARK    1  A    between atoms: C_1  and  C_2
REMARK    2  A    between atoms: C_2  and  N_3
REMARK    3  A    between atoms: C_2  and  C_20
REMARK    4  A    between atoms: N_3  and  C_4
REMARK    5  A    between atoms: C_4  and  C_5
REMARK    6  A    between atoms: C_8  and  C_9
REMARK    7  A    between atoms: C_9  and  N_10
REMARK    8  A    between atoms: N_10  and  C_11
REMARK    9  A    between atoms: C_11  and  C_12
REMARK   10  A    between atoms: N_15  and  C_16
REMARK                            x       y       z     vdW  Elec       q    Type
REMARK                         _______ _______ _______ _____ _____    ______ ____
ROOT
ATOM      1  C   UNL     1      47.306   3.886  14.723  0.00  0.00    +0.000 C 
ENDROOT
BRANCH   1   2
ATOM      2  C   UNL     1      46.321   4.262  13.625  0.00  0.00    +0.000 A 
ATOM      3  C   UNL     1      46.122   5.602  13.305  0.00  0.00    +0.000 A 
ATOM      4  C   UNL     1      45.177   5.933  12.339  0.00  0.00    +0.000 A 
ATOM      5  C   UNL     1      44.466   4.930  11.674  0.00  0.00    +0.000 A 
ATOM      6  C   UNL     1      44.731   3.620  12.060  0.00  0.00    +0.000 A 
ATOM      7  N   UNL     1      45.633   3.262  13.011  0.00  0.00    +0.000 NA
BRANCH   5   8
ATOM      8  C   UNL     1      43.423   5.250  10.625  0.00  0.00    +0.000 C 
BRANCH   8   9
ATOM      9  N   UNL     1      43.680   4.499   9.398  0.00  0.00    +0.000 NA
ATOM     10  H   UNL     1      43.037   4.822   8.676  0.00  0.00    +0.000 HD
BRANCH   9  11
ATOM     11  C   UNL     1      45.055   4.587   8.910  0.00  0.00    +0.000 C 
BRANCH  11  12
ATOM     12  C   UNL     1      45.311   3.386   7.991  0.00  0.00    +0.000 C 
ATOM     13  C   UNL     1      45.673   2.103   8.744  0.00  0.00    +0.000 C 
ATOM     14  C   UNL     1      46.541   1.358   7.750  0.00  0.00    +0.000 C 
ATOM     15  N   UNL     1      47.364   2.443   7.219  0.00  0.00    +0.000 NA
ATOM     16  C   UNL     1      48.095   2.054   6.022  0.00  0.00    +0.000 C 
ATOM     17  C   UNL     1      46.464   3.582   6.997  0.00  0.00    +0.000 C 
ENDBRANCH  11  12
ENDBRANCH   9  11
ENDBRANCH   8   9
ENDBRANCH   5   8
ENDBRANCH   1   2
BRANCH   1  18
ATOM     18  N   UNL     1      47.154   4.729  15.914  0.00  0.00    +0.000 NA
ATOM     19  H   UNL     1      47.284   5.694  15.596  0.00  0.00    +0.000 HD
BRANCH  18  21
ATOM     20  C   UNL     1      47.743   3.248  17.841  0.00  0.00    +0.000 C 
ATOM     21  C   UNL     1      48.143   4.441  16.965  0.00  0.00    +0.000 C 
BRANCH  21  22
ATOM     22  C   UNL     1      48.272   5.693  17.821  0.00  0.00    +0.000 A 
ATOM     23  C   UNL     1      47.865   5.792  19.144  0.00  0.00    +0.000 A 
ATOM     24  S   UNL     1      48.126   7.335  19.823  0.00  0.00    +0.000 S 
ATOM     25  C   UNL     1      48.831   7.913  18.386  0.00  0.00    +0.000 A 
ATOM     26  N   UNL     1      49.292   9.189  18.294  0.00  0.00    +0.000 NA
ATOM     27  C   UNL     1      49.821   9.479  17.151  0.00  0.00    +0.000 A 
ATOM     28  N   UNL     1      49.934   8.611  16.096  0.00  0.00    +0.000 N 
ATOM     29  C   UNL     1      49.489   7.305  16.143  0.00  0.00    +0.000 A 
ATOM     30  O   UNL     1      49.634   6.544  15.194  0.00  0.00    +0.000 OA
ATOM     31  C   UNL     1      48.869   6.940  17.404  0.00  0.00    +0.000 A 
ATOM     32  H   UNL     1      50.376   8.899  15.237  0.00  0.00    +0.000 HD
ENDBRANCH  21  22
ENDBRANCH  18  21
ENDBRANCH   1  18
TORSDOF 8
ENDMDL
MODEL 3
REMARK VINA RESULT:    -7.528      2.758      4.134
REMARK INTER + INTRA:         -11.634
REMARK INTER:                 -10.516
REMARK INTRA:                  -1.119
REMARK UNBOUND:                -0.586
REMARK  Name = 
REMARK  10 active torsions:
REMARK  status: ('A' for Active; 'I' for Inactive)
REMARK    1  A    between atoms: C_1  and  C_2
REMARK    2  A    between atoms: C_2  and  N_3
REMARK    3  A    between atoms: C_2  and  C_20
REMARK    4  A    between atoms: N_3  and  C_4
REMARK    5  A    between atoms: C_4  and  C_5
REMARK    6  A    between atoms: C_8  and  C_9
REMARK    7  A    between atoms: C_9  and  N_10
REMARK    8  A    between atoms: N_10  and  C_11
REMARK    9  A    between atoms: C_11  and  C_12
REMARK   10  A    between atoms: N_15  and  C_16
REMARK                            x       y       z     vdW  Elec       q    Type
REMARK                         _______ _______ _______ _____ _____    ______ ____
ROOT
ATOM      1  C   UNL     1      47.239   4.163  14.912  0.00  0.00    +0.000 C 
ENDROOT
BRANCH   1   2
ATOM      2  C   UNL     1      46.221   4.392  13.805  0.00  0.00    +0.000 A 
ATOM      3  C   UNL     1      45.789   5.684  13.521  0.00  0.00    +0.000 A 
ATOM      4  C   UNL     1      44.815   5.872  12.545  0.00  0.00    +0.000 A 
ATOM      5  C   UNL     1      44.307   4.780  11.835  0.00  0.00    +0.000 A 
ATOM      6  C   UNL     1      44.797   3.526  12.187  0.00  0.00    +0.000 A 
ATOM      7  N   UNL     1      45.733   3.306  13.147  0.00  0.00    +0.000 NA
BRANCH   5   8
ATOM      8  C   UNL     1      43.240   4.942  10.774  0.00  0.00    +0.000 C 
BRANCH   8   9
ATOM      9  N   UNL     1      43.545   4.116   9.607  0.00  0.00    +0.000 NA
ATOM     10  H   UNL     1      42.804   4.239   8.917  0.00  0.00    +0.000 HD
BRANCH   9  11
ATOM     11  C   UNL     1      44.843   4.391   8.992  0.00  0.00    +0.000 C 
BRANCH  11  12
ATOM     12  C   UNL     1      45.178   3.228   8.050  0.00  0.00    +0.000 C 
ATOM     13  C   UNL     1      45.662   1.970   8.775  0.00  0.00    +0.000 C 
ATOM     14  C   UNL     1      46.567   1.314   7.753  0.00  0.00    +0.000 C 
ATOM     15  N   UNL     1      47.285   2.471   7.222  0.00  0.00    +0.000 NA
ATOM     16  C   UNL     1      48.021   2.161   6.005  0.00  0.00    +0.000 C 
ATOM     17  C   UNL     1      46.289   3.533   7.036  0.00  0.00    +0.000 C 
ENDBRANCH  11  12
ENDBRANCH   9  11
ENDBRANCH   8   9
ENDBRANCH   5   8
ENDBRANCH   1   2
BRANCH   1  18
ATOM     18  N   UNL     1      47.371   5.329  15.791  0.00  0.00    +0.000 NA
ATOM     19  H   UNL     1      46.831   6.079  15.351  0.00  0.00    +0.000 HD
BRANCH  18  21
ATOM     20  C   UNL     1      49.347   5.410  17.322  0.00  0.00    +0.000 C 
ATOM     21  C   UNL     1      48.762   5.784  15.955  0.00  0.00    +0.000 C 
BRANCH  21  22
ATOM     22  C   UNL     1      48.767   7.297  15.784  0.00  0.00    +0.000 A 
ATOM     23  C   UNL     1      48.719   8.210  16.828  0.00  0.00    +0.000 A 
ATOM     24  S   UNL     1      48.718   9.836  16.309  0.00  0.00    +0.000 S 
ATOM     25  C   UNL     1      48.826   9.376  14.675  0.00  0.00    +0.000 A 
ATOM     26  N   UNL     1      48.877  10.307  13.685  0.00  0.00    +0.000 NA
ATOM     27  C   UNL     1      48.980   9.811  12.496  0.00  0.00    +0.000 A 
ATOM     28  N   UNL     1      49.039   8.472  12.207  0.00  0.00    +0.000 N 
ATOM     29  C   UNL     1      48.999   7.490  13.176  0.00  0.00    +0.000 A 
ATOM     30  O   UNL     1      49.088   6.302  12.888  0.00  0.00    +0.000 OA
ATOM     31  C   UNL     1      48.864   8.002  14.528  0.00  0.00    +0.000 A 
ATOM     32  H   UNL     1      49.139   8.154  11.256  0.00  0.00    +0.000 HD
ENDBRANCH  21  22
ENDBRANCH  18  21
ENDBRANCH   1  18
TORSDOF 8
ENDMDL
MODEL 4
REMARK VINA RESULT:    -7.320      1.817      2.233
REMARK INTER + INTRA:         -11.328
REMARK INTER:                 -10.771
REMARK INTRA:                  -0.557
REMARK UNBOUND:                -0.586
REMARK  Name = 
REMARK  10 active torsions:
REMARK  status: ('A' for Active; 'I' for Inactive)
REMARK    1  A    between atoms: C_1  and  C_2
REMARK    2  A    between atoms: C_2  and  N_3
REMARK    3  A    between atoms: C_2  and  C_20
REMARK    4  A    between atoms: N_3  and  C_4
REMARK    5  A    between atoms: C_4  and  C_5
REMARK    6  A    between atoms: C_8  and  C_9
REMARK    7  A    between atoms: C_9  and  N_10
REMARK    8  A    between atoms: N_10  and  C_11
REMARK    9  A    between atoms: C_11  and  C_12
REMARK   10  A    between atoms: N_15  and  C_16
REMARK                            x       y       z     vdW  Elec       q    Type
REMARK                         _______ _______ _______ _____ _____    ______ ____
ROOT
ATOM      1  C   UNL     1      47.380   3.758  14.852  0.00  0.00    +0.000 C 
ENDROOT
BRANCH   1   2
ATOM      2  C   UNL     1      46.392   4.163  13.768  0.00  0.00    +0.000 A 
ATOM      3  C   UNL     1      46.085   5.508  13.580  0.00  0.00    +0.000 A 
ATOM      4  C   UNL     1      45.137   5.858  12.624  0.00  0.00    +0.000 A 
ATOM      5  C   UNL     1      44.530   4.873  11.838  0.00  0.00    +0.000 A 
ATOM      6  C   UNL     1      44.898   3.557  12.097  0.00  0.00    +0.000 A 
ATOM      7  N   UNL     1      45.806   3.179  13.035  0.00  0.00    +0.000 NA
BRANCH   5   8
ATOM      8  C   UNL     1      43.487   5.213  10.795  0.00  0.00    +0.000 C 
BRANCH   8   9
ATOM      9  N   UNL     1      43.645   4.365   9.615  0.00  0.00    +0.000 NA
ATOM     10  H   UNL     1      42.826   4.479   9.018  0.00  0.00    +0.000 HD
BRANCH   9  11
ATOM     11  C   UNL     1      44.859   4.623   8.842  0.00  0.00    +0.000 C 
BRANCH  11  12
ATOM     12  C   UNL     1      45.152   3.382   7.989  0.00  0.00    +0.000 C 
ATOM     13  C   UNL     1      45.497   2.138   8.813  0.00  0.00    +0.000 C 
ATOM     14  C   UNL     1      46.400   1.355   7.884  0.00  0.00    +0.000 C 
ATOM     15  N   UNL     1      47.234   2.420   7.328  0.00  0.00    +0.000 NA
ATOM     16  C   UNL     1      48.006   1.980   6.176  0.00  0.00    +0.000 C 
ATOM     17  C   UNL     1      46.335   3.540   7.025  0.00  0.00    +0.000 C 
ENDBRANCH  11  12
ENDBRANCH   9  11
ENDBRANCH   8   9
ENDBRANCH   5   8
ENDBRANCH   1   2
BRANCH   1  18
ATOM     18  N   UNL     1      47.615   4.838  15.817  0.00  0.00    +0.000 NA
ATOM     19  H   UNL     1      48.446   5.337  15.486  0.00  0.00    +0.000 HD
BRANCH  18  21
ATOM     20  C   UNL     1      47.304   5.301  18.254  0.00  0.00    +0.000 C 
ATOM     21  C   UNL     1      47.866   4.357  17.185  0.00  0.00    +0.000 C 
BRANCH  21  22
ATOM     22  C   UNL     1      49.374   4.225  17.350  0.00  0.00    +0.000 A 
ATOM     23  C   UNL     1      50.033   3.049  17.677  0.00  0.00    +0.000 A 
ATOM     24  S   UNL     1      51.725   3.231  17.809  0.00  0.00    +0.000 S 
ATOM     25  C   UNL     1      51.639   4.878  17.392  0.00  0.00    +0.000 A 
ATOM     26  N   UNL     1      52.761   5.642  17.310  0.00  0.00    +0.000 NA
ATOM     27  C   UNL     1      52.543   6.867  16.961  0.00  0.00    +0.000 A 
ATOM     28  N   UNL     1      51.309   7.397  16.685  0.00  0.00    +0.000 N 
ATOM     29  C   UNL     1      50.143   6.662  16.746  0.00  0.00    +0.000 A 
ATOM     30  O   UNL     1      49.058   7.156  16.461  0.00  0.00    +0.000 OA
ATOM     31  C   UNL     1      50.338   5.282  17.153  0.00  0.00    +0.000 A 
ATOM     32  H   UNL     1      51.214   8.359  16.399  0.00  0.00    +0.000 HD
ENDBRANCH  21  22
ENDBRANCH  18  21
ENDBRANCH   1  18
TORSDOF 8
ENDMDL
MODEL 5
REMARK VINA RESULT:    -7.237      2.070      3.131
REMARK INTER + INTRA:         -11.207
REMARK INTER:                 -10.280
REMARK INTRA:                  -0.927
REMARK UNBOUND:                -0.586
REMARK  Name = 
REMARK  10 active torsions:
REMARK  status: ('A' for Active; 'I' for Inactive)
REMARK    1  A    between atoms: C_1  and  C_2
REMARK    2  A    between atoms: C_2  and  N_3
REMARK    3  A    between atoms: C_2  and  C_20
REMARK    4  A    between atoms: N_3  and  C_4
REMARK    5  A    between atoms: C_4  and  C_5
REMARK    6  A    between atoms: C_8  and  C_9
REMARK    7  A    between atoms: C_9  and  N_10
REMARK    8  A    between atoms: N_10  and  C_11
REMARK    9  A    between atoms: C_11  and  C_12
REMARK   10  A    between atoms: N_15  and  C_16
REMARK                            x       y       z     vdW  Elec       q    Type
REMARK                         _______ _______ _______ _____ _____    ______ ____
ROOT
ATOM      1  C   UNL     1      49.829   6.640  15.546  0.00  0.00    +0.000 C 
ENDROOT
BRANCH   1   2
ATOM      2  C   UNL     1      48.667   6.915  14.601  0.00  0.00    +0.000 A 
ATOM      3  C   UNL     1      48.178   8.211  14.468  0.00  0.00    +0.000 A 
ATOM      4  C   UNL     1      47.079   8.437  13.644  0.00  0.00    +0.000 A 
ATOM      5  C   UNL     1      46.501   7.381  12.933  0.00  0.00    +0.000 A 
ATOM      6  C   UNL     1      47.057   6.120  13.130  0.00  0.00    +0.000 A 
ATOM      7  N   UNL     1      48.117   5.862  13.940  0.00  0.00    +0.000 NA
BRANCH   5   8
ATOM      8  C   UNL     1      45.300   7.584  12.036  0.00  0.00    +0.000 C 
BRANCH   8   9
ATOM      9  N   UNL     1      44.230   6.652  12.389  0.00  0.00    +0.000 NA
ATOM     10  H   UNL     1      43.817   6.949  13.273  0.00  0.00    +0.000 HD
BRANCH   9  11
ATOM     11  C   UNL     1      43.185   6.517  11.376  0.00  0.00    +0.000 C 
BRANCH  11  12
ATOM     12  C   UNL     1      42.975   5.021  11.106  0.00  0.00    +0.000 C 
ATOM     13  C   UNL     1      43.340   4.127  12.294  0.00  0.00    +0.000 C 
ATOM     14  C   UNL     1      43.755   2.831  11.629  0.00  0.00    +0.000 C 
ATOM     15  N   UNL     1      44.544   3.327  10.502  0.00  0.00    +0.000 NA
ATOM     16  C   UNL     1      44.827   2.291   9.520  0.00  0.00    +0.000 C 
ATOM     17  C   UNL     1      43.804   4.464   9.941  0.00  0.00    +0.000 C 
ENDBRANCH  11  12
ENDBRANCH   9  11
ENDBRANCH   8   9
ENDBRANCH   5   8
ENDBRANCH   1   2
BRANCH   1  18
ATOM     18  N   UNL     1      49.375   6.367  16.914  0.00  0.00    +0.000 NA
ATOM     19  H   UNL     1      50.103   6.734  17.533  0.00  0.00    +0.000 HD
BRANCH  18  21
ATOM     20  C   UNL     1      48.002   4.658  18.118  0.00  0.00    +0.000 C 
ATOM     21  C   UNL     1      49.196   4.933  17.196  0.00  0.00    +0.000 C 
BRANCH  21  22
ATOM     22  C   UNL     1      50.479   4.434  17.845  0.00  0.00    +0.000 A 
ATOM     23  C   UNL     1      51.261   5.174  18.721  0.00  0.00    +0.000 A 
ATOM     24  S   UNL     1      52.650   4.343  19.262  0.00  0.00    +0.000 S 
ATOM     25  C   UNL     1      52.232   2.951  18.378  0.00  0.00    +0.000 A 
ATOM     26  N   UNL     1      53.013   1.838  18.411  0.00  0.00    +0.000 NA
ATOM     27  C   UNL     1      52.559   0.852  17.709  0.00  0.00    +0.000 A 
ATOM     28  N   UNL     1      51.397   0.876  16.982  0.00  0.00    +0.000 N 
ATOM     29  C   UNL     1      50.568   1.978  16.923  0.00  0.00    +0.000 A 
ATOM     30  O   UNL     1      49.518   1.957  16.290  0.00  0.00    +0.000 OA
ATOM     31  C   UNL     1      51.049   3.117  17.683  0.00  0.00    +0.000 A 
ATOM     32  H   UNL     1      51.092   0.062  16.471  0.00  0.00    +0.000 HD
ENDBRANCH  21  22
ENDBRANCH  18  21
ENDBRANCH   1  18
TORSDOF 8
ENDMDL
MODEL 6
REMARK VINA RESULT:    -7.017      2.577      3.122
REMARK INTER + INTRA:         -10.884
REMARK INTER:                 -10.411
REMARK INTRA:                  -0.473
REMARK UNBOUND:                -0.586
REMARK  Name = 
REMARK  10 active torsions:
REMARK  status: ('A' for Active; 'I' for Inactive)
REMARK    1  A    between atoms: C_1  and  C_2
REMARK    2  A    between atoms: C_2  and  N_3
REMARK    3  A    between atoms: C_2  and  C_20
REMARK    4  A    between atoms: N_3  and  C_4
REMARK    5  A    between atoms: C_4  and  C_5
REMARK    6  A    between atoms: C_8  and  C_9
REMARK    7  A    between atoms: C_9  and  N_10
REMARK    8  A    between atoms: N_10  and  C_11
REMARK    9  A    between atoms: C_11  and  C_12
REMARK   10  A    between atoms: N_15  and  C_16
REMARK                            x       y       z     vdW  Elec       q    Type
REMARK                         _______ _______ _______ _____ _____    ______ ____
ROOT
ATOM      1  C   UNL     1      48.149   6.997  13.729  0.00  0.00    +0.000 C 
ENDROOT
BRANCH   1   2
ATOM      2  C   UNL     1      46.923   6.405  13.049  0.00  0.00    +0.000 A 
ATOM      3  C   UNL     1      46.648   5.047  13.183  0.00  0.00    +0.000 A 
ATOM      4  C   UNL     1      45.556   4.510  12.509  0.00  0.00    +0.000 A 
ATOM      5  C   UNL     1      44.726   5.331  11.739  0.00  0.00    +0.000 A 
ATOM      6  C   UNL     1      45.079   6.675  11.664  0.00  0.00    +0.000 A 
ATOM      7  N   UNL     1      46.149   7.229  12.293  0.00  0.00    +0.000 NA
BRANCH   5   8
ATOM      8  C   UNL     1      43.536   4.783  10.983  0.00  0.00    +0.000 C 
BRANCH   8   9
ATOM      9  N   UNL     1      43.772   4.835   9.542  0.00  0.00    +0.000 NA
ATOM     10  H   UNL     1      43.396   5.712   9.180  0.00  0.00    +0.000 HD
BRANCH   9  11
ATOM     11  C   UNL     1      45.175   4.702   9.153  0.00  0.00    +0.000 C 
BRANCH  11  12
ATOM     12  C   UNL     1      45.294   3.501   8.207  0.00  0.00    +0.000 C 
ATOM     13  C   UNL     1      45.570   2.178   8.926  0.00  0.00    +0.000 C 
ATOM     14  C   UNL     1      46.335   1.380   7.891  0.00  0.00    +0.000 C 
ATOM     15  N   UNL     1      47.230   2.400   7.347  0.00  0.00    +0.000 NA
ATOM     16  C   UNL     1      47.883   1.971   6.119  0.00  0.00    +0.000 C 
ATOM     17  C   UNL     1      46.425   3.615   7.175  0.00  0.00    +0.000 C 
ENDBRANCH  11  12
ENDBRANCH   9  11
ENDBRANCH   8   9
ENDBRANCH   5   8
ENDBRANCH   1   2
BRANCH   1  18
ATOM     18  N   UNL     1      47.857   7.463  15.089  0.00  0.00    +0.000 NA
ATOM     19  H   UNL     1      47.627   8.457  15.005  0.00  0.00    +0.000 HD
BRANCH  18  21
ATOM     20  C   UNL     1      50.324   7.104  15.284  0.00  0.00    +0.000 C 
ATOM     21  C   UNL     1      48.993   7.317  16.014  0.00  0.00    +0.000 C 
BRANCH  21  22
ATOM     22  C   UNL     1      48.696   6.125  16.912  0.00  0.00    +0.000 A 
ATOM     23  C   UNL     1      48.141   4.928  16.479  0.00  0.00    +0.000 A 
ATOM     24  S   UNL     1      47.912   3.792  17.731  0.00  0.00    +0.000 S 
ATOM     25  C   UNL     1      48.586   4.843  18.888  0.00  0.00    +0.000 A 
ATOM     26  N   UNL     1      48.700   4.473  20.191  0.00  0.00    +0.000 NA
ATOM     27  C   UNL     1      49.251   5.364  20.948  0.00  0.00    +0.000 A 
ATOM     28  N   UNL     1      49.698   6.588  20.521  0.00  0.00    +0.000 N 
ATOM     29  C   UNL     1      49.612   7.006  19.209  0.00  0.00    +0.000 A 
ATOM     30  O   UNL     1      50.052   8.093  18.853  0.00  0.00    +0.000 OA
ATOM     31  C   UNL     1      48.982   6.042  18.325  0.00  0.00    +0.000 A 
ATOM     32  H   UNL     1      50.137   7.229  21.165  0.00  0.00    +0.000 HD
ENDBRANCH  21  22
ENDBRANCH  18  21
ENDBRANCH   1  18
TORSDOF 8
ENDMDL
MODEL 7
REMARK VINA RESULT:    -7.003      2.578      4.039
REMARK INTER + INTRA:         -10.864
REMARK INTER:                  -9.226
REMARK INTRA:                  -1.637
REMARK UNBOUND:                -0.586
REMARK  Name = 
REMARK  10 active torsions:
REMARK  status: ('A' for Active; 'I' for Inactive)
REMARK    1  A    between atoms: C_1  and  C_2
REMARK    2  A    between atoms: C_2  and  N_3
REMARK    3  A    between atoms: C_2  and  C_20
REMARK    4  A    between atoms: N_3  and  C_4
REMARK    5  A    between atoms: C_4  and  C_5
REMARK    6  A    between atoms: C_8  and  C_9
REMARK    7  A    between atoms: C_9  and  N_10
REMARK    8  A    between atoms: N_10  and  C_11
REMARK    9  A    between atoms: C_11  and  C_12
REMARK   10  A    between atoms: N_15  and  C_16
REMARK                            x       y       z     vdW  Elec       q    Type
REMARK                         _______ _______ _______ _____ _____    ______ ____
ROOT
ATOM      1  C   UNL     1      49.514   7.614  13.082  0.00  0.00    +0.000 C 
ENDROOT
BRANCH   1   2
ATOM      2  C   UNL     1      48.048   7.673  12.679  0.00  0.00    +0.000 A 
ATOM      3  C   UNL     1      47.515   6.676  11.867  0.00  0.00    +0.000 A 
ATOM      4  C   UNL     1      46.188   6.774  11.459  0.00  0.00    +0.000 A 
ATOM      5  C   UNL     1      45.393   7.840  11.891  0.00  0.00    +0.000 A 
ATOM      6  C   UNL     1      46.012   8.789  12.700  0.00  0.00    +0.000 A 
ATOM      7  N   UNL     1      47.309   8.734  13.101  0.00  0.00    +0.000 NA
BRANCH   5   8
ATOM      8  C   UNL     1      43.950   7.987  11.461  0.00  0.00    +0.000 C 
BRANCH   8   9
ATOM      9  N   UNL     1      43.457   6.741  10.877  0.00  0.00    +0.000 NA
ATOM     10  H   UNL     1      44.256   6.180  10.582  0.00  0.00    +0.000 HD
BRANCH   9  11
ATOM     11  C   UNL     1      42.601   5.954  11.762  0.00  0.00    +0.000 C 
BRANCH  11  12
ATOM     12  C   UNL     1      43.018   4.483  11.643  0.00  0.00    +0.000 C 
ATOM     13  C   UNL     1      44.108   4.072  12.636  0.00  0.00    +0.000 C 
ATOM     14  C   UNL     1      44.828   2.955  11.909  0.00  0.00    +0.000 C 
ATOM     15  N   UNL     1      44.898   3.496  10.552  0.00  0.00    +0.000 NA
ATOM     16  C   UNL     1      45.288   2.493   9.572  0.00  0.00    +0.000 C 
ATOM     17  C   UNL     1      43.587   4.094  10.271  0.00  0.00    +0.000 C 
ENDBRANCH  11  12
ENDBRANCH   9  11
ENDBRANCH   8   9
ENDBRANCH   5   8
ENDBRANCH   1   2
BRANCH   1  18
ATOM     18  N   UNL     1      49.715   6.862  14.326  0.00  0.00    +0.000 NA
ATOM     19  H   UNL     1      49.300   5.940  14.170  0.00  0.00    +0.000 HD
BRANCH  18  21
ATOM     20  C   UNL     1      49.692   8.830  15.869  0.00  0.00    +0.000 C 
ATOM     21  C   UNL     1      49.068   7.480  15.495  0.00  0.00    +0.000 C 
BRANCH  21  22
ATOM     22  C   UNL     1      49.205   6.506  16.656  0.00  0.00    +0.000 A 
ATOM     23  C   UNL     1      49.999   6.716  17.775  0.00  0.00    +0.000 A 
ATOM     24  S   UNL     1      49.956   5.426  18.892  0.00  0.00    +0.000 S 
ATOM     25  C   UNL     1      48.842   4.562  17.940  0.00  0.00    +0.000 A 
ATOM     26  N   UNL     1      48.371   3.350  18.337  0.00  0.00    +0.000 NA
ATOM     27  C   UNL     1      47.515   2.823  17.524  0.00  0.00    +0.000 A 
ATOM     28  N   UNL     1      47.086   3.397  16.355  0.00  0.00    +0.000 N 
ATOM     29  C   UNL     1      47.528   4.628  15.914  0.00  0.00    +0.000 A 
ATOM     30  O   UNL     1      47.100   5.129  14.881  0.00  0.00    +0.000 OA
ATOM     31  C   UNL     1      48.506   5.249  16.788  0.00  0.00    +0.000 A 
ATOM     32  H   UNL     1      46.400   2.937  15.777  0.00  0.00    +0.000 HD
ENDBRANCH  21  22
ENDBRANCH  18  21
ENDBRANCH   1  18
TORSDOF 8
ENDMDL
MODEL 8
REMARK VINA RESULT:    -6.702      3.128      9.372
REMARK INTER + INTRA:         -10.422
REMARK INTER:                  -9.719
REMARK INTRA:                  -0.703
REMARK UNBOUND:                -0.586
REMARK  Name = 
REMARK  10 active torsions:
REMARK  status: ('A' for Active; 'I' for Inactive)
REMARK    1  A    between atoms: C_1  and  C_2
REMARK    2  A    between atoms: C_2  and  N_3
REMARK    3  A    between atoms: C_2  and  C_20
REMARK    4  A    between atoms: N_3  and  C_4
REMARK    5  A    between atoms: C_4  and  C_5
REMARK    6  A    between atoms: C_8  and  C_9
REMARK    7  A    between atoms: C_9  and  N_10
REMARK    8  A    between atoms: N_10  and  C_11
REMARK    9  A    between atoms: C_11  and  C_12
REMARK   10  A    between atoms: N_15  and  C_16
REMARK                            x       y       z     vdW  Elec       q    Type
REMARK                         _______ _______ _______ _____ _____    ______ ____
ROOT
ATOM      1  C   UNL     1      47.121   5.723  12.817  0.00  0.00    +0.000 C 
ENDROOT
BRANCH   1   2
ATOM      2  C   UNL     1      47.509   5.352  14.242  0.00  0.00    +0.000 A 
ATOM      3  C   UNL     1      48.255   6.242  15.008  0.00  0.00    +0.000 A 
ATOM      4  C   UNL     1      48.650   5.865  16.288  0.00  0.00    +0.000 A 
ATOM      5  C   UNL     1      48.270   4.624  16.808  0.00  0.00    +0.000 A 
ATOM      6  C   UNL     1      47.525   3.801  15.969  0.00  0.00    +0.000 A 
ATOM      7  N   UNL     1      47.138   4.129  14.709  0.00  0.00    +0.000 NA
BRANCH   5   8
ATOM      8  C   UNL     1      48.688   4.174  18.191  0.00  0.00    +0.000 C 
BRANCH   8   9
ATOM      9  N   UNL     1      49.545   2.992  18.110  0.00  0.00    +0.000 NA
ATOM     10  H   UNL     1      49.017   2.234  17.678  0.00  0.00    +0.000 HD
BRANCH   9  11
ATOM     11  C   UNL     1      50.796   3.199  17.383  0.00  0.00    +0.000 C 
BRANCH  11  12
ATOM     12  C   UNL     1      51.909   2.454  18.130  0.00  0.00    +0.000 C 
ATOM     13  C   UNL     1      53.250   3.194  18.128  0.00  0.00    +0.000 C 
ATOM     14  C   UNL     1      54.260   2.068  18.219  0.00  0.00    +0.000 C 
ATOM     15  N   UNL     1      53.683   1.091  17.297  0.00  0.00    +0.000 NA
ATOM     16  C   UNL     1      54.304  -0.220  17.413  0.00  0.00    +0.000 C 
ATOM     17  C   UNL     1      52.239   1.068  17.560  0.00  0.00    +0.000 C 
ENDBRANCH  11  12
ENDBRANCH   9  11
ENDBRANCH   8   9
ENDBRANCH   5   8
ENDBRANCH   1   2
BRANCH   1  18
ATOM     18  N   UNL     1      45.935   6.584  12.774  0.00  0.00    +0.000 NA
ATOM     19  H   UNL     1      45.308   6.240  13.506  0.00  0.00    +0.000 HD
BRANCH  18  21
ATOM     20  C   UNL     1      44.082   7.556  11.404  0.00  0.00    +0.000 C 
ATOM     21  C   UNL     1      45.225   6.538  11.484  0.00  0.00    +0.000 C 
BRANCH  21  22
ATOM     22  C   UNL     1      44.677   5.127  11.319  0.00  0.00    +0.000 A 
ATOM     23  C   UNL     1      43.841   4.492  12.228  0.00  0.00    +0.000 A 
ATOM     24  S   UNL     1      43.416   2.905  11.768  0.00  0.00    +0.000 S 
ATOM     25  C   UNL     1      44.298   3.027  10.318  0.00  0.00    +0.000 A 
ATOM     26  N   UNL     1      44.343   1.994   9.434  0.00  0.00    +0.000 NA
ATOM     27  C   UNL     1      45.032   2.238   8.369  0.00  0.00    +0.000 A 
ATOM     28  N   UNL     1      45.677   3.419   8.105  0.00  0.00    +0.000 N 
ATOM     29  C   UNL     1      45.655   4.498   8.965  0.00  0.00    +0.000 A 
ATOM     30  O   UNL     1      46.214   5.552   8.686  0.00  0.00    +0.000 OA
ATOM     31  C   UNL     1      44.906   4.262  10.186  0.00  0.00    +0.000 A 
ATOM     32  H   UNL     1      46.183   3.549   7.242  0.00  0.00    +0.000 HD
ENDBRANCH  21  22
ENDBRANCH  18  21
ENDBRANCH   1  18
TORSDOF 8
ENDMDL
MODEL 9
REMARK VINA RESULT:    -6.591      2.604      3.533
REMARK INTER + INTRA:         -10.260
REMARK INTER:                  -9.589
REMARK INTRA:                  -0.671
REMARK UNBOUND:                -0.586
REMARK  Name = 
REMARK  10 active torsions:
REMARK  status: ('A' for Active; 'I' for Inactive)
REMARK    1  A    between atoms: C_1  and  C_2
REMARK    2  A    between atoms: C_2  and  N_3
REMARK    3  A    between atoms: C_2  and  C_20
REMARK    4  A    between atoms: N_3  and  C_4
REMARK    5  A    between atoms: C_4  and  C_5
REMARK    6  A    between atoms: C_8  and  C_9
REMARK    7  A    between atoms: C_9  and  N_10
REMARK    8  A    between atoms: N_10  and  C_11
REMARK    9  A    between atoms: C_11  and  C_12
REMARK   10  A    between atoms: N_15  and  C_16
REMARK                            x       y       z     vdW  Elec       q    Type
REMARK                         _______ _______ _______ _____ _____    ______ ____
ROOT
ATOM      1  C   UNL     1      46.891   8.007  12.995  0.00  0.00    +0.000 C 
ENDROOT
BRANCH   1   2
ATOM      2  C   UNL     1      46.090   6.746  12.701  0.00  0.00    +0.000 A 
ATOM      3  C   UNL     1      46.439   5.548  13.317  0.00  0.00    +0.000 A 
ATOM      4  C   UNL     1      45.734   4.393  12.994  0.00  0.00    +0.000 A 
ATOM      5  C   UNL     1      44.667   4.445  12.092  0.00  0.00    +0.000 A 
ATOM      6  C   UNL     1      44.392   5.686  11.525  0.00  0.00    +0.000 A 
ATOM      7  N   UNL     1      45.071   6.829  11.804  0.00  0.00    +0.000 NA
BRANCH   5   8
ATOM      8  C   UNL     1      43.883   3.209  11.707  0.00  0.00    +0.000 C 
BRANCH   8   9
ATOM      9  N   UNL     1      43.592   3.209  10.275  0.00  0.00    +0.000 NA
ATOM     10  H   UNL     1      43.859   4.113   9.887  0.00  0.00    +0.000 HD
BRANCH   9  11
ATOM     11  C   UNL     1      44.244   2.137   9.524  0.00  0.00    +0.000 C 
BRANCH  11  12
ATOM     12  C   UNL     1      45.591   2.664   9.014  0.00  0.00    +0.000 C 
ATOM     13  C   UNL     1      45.478   3.969   8.220  0.00  0.00    +0.000 C 
ATOM     14  C   UNL     1      46.655   3.892   7.270  0.00  0.00    +0.000 C 
ATOM     15  N   UNL     1      46.600   2.491   6.857  0.00  0.00    +0.000 NA
ATOM     16  C   UNL     1      47.804   2.067   6.161  0.00  0.00    +0.000 C 
ATOM     17  C   UNL     1      46.331   1.708   8.069  0.00  0.00    +0.000 C 
ENDBRANCH  11  12
ENDBRANCH   9  11
ENDBRANCH   8   9
ENDBRANCH   5   8
ENDBRANCH   1   2
BRANCH   1  18
ATOM     18  N   UNL     1      47.318   8.076  14.396  0.00  0.00    +0.000 NA
ATOM     19  H   UNL     1      46.613   8.639  14.880  0.00  0.00    +0.000 HD
BRANCH  18  21
ATOM     20  C   UNL     1      49.765   7.926  13.904  0.00  0.00    +0.000 C 
ATOM     21  C   UNL     1      48.634   8.711  14.577  0.00  0.00    +0.000 C 
BRANCH  21  22
ATOM     22  C   UNL     1      48.889   8.808  16.074  0.00  0.00    +0.000 A 
ATOM     23  C   UNL     1      49.004   9.997  16.781  0.00  0.00    +0.000 A 
ATOM     24  S   UNL     1      49.310   9.772  18.445  0.00  0.00    +0.000 S 
ATOM     25  C   UNL     1      49.256   8.079  18.286  0.00  0.00    +0.000 A 
ATOM     26  N   UNL     1      49.435   7.267  19.362  0.00  0.00    +0.000 NA
ATOM     27  C   UNL     1      49.345   6.006  19.093  0.00  0.00    +0.000 A 
ATOM     28  N   UNL     1      49.091   5.484  17.851  0.00  0.00    +0.000 N 
ATOM     29  C   UNL     1      48.895   6.266  16.731  0.00  0.00    +0.000 A 
ATOM     30  O   UNL     1      48.637   5.771  15.640  0.00  0.00    +0.000 OA
ATOM     31  C   UNL     1      49.006   7.691  16.983  0.00  0.00    +0.000 A 
ATOM     32  H   UNL     1      49.015   4.487  17.716  0.00  0.00    +0.000 HD
ENDBRANCH  21  22
ENDBRANCH  18  21
ENDBRANCH   1  18
TORSDOF 8
ENDMDL
