MODEL 1
REMARK VINA RESULT:    -8.358      0.000      0.000
REMARK INTER + INTRA:         -11.886
REMARK INTER:                 -10.802
REMARK INTRA:                  -1.084
REMARK UNBOUND:                -1.084
REMARK  Name = 
REMARK  5 active torsions:
REMARK  status: ('A' for Active; 'I' for Inactive)
REMARK    1  A    between atoms: C_2  and  C_4
REMARK    2  A    between atoms: C_7  and  N_8
REMARK    3  A    between atoms: N_8  and  C_9
REMARK    4  A    between atoms: C_9  and  C_10
REMARK    5  A    between atoms: C_13  and  N_14
REMARK                            x       y       z     vdW  Elec       q    Type
REMARK                         _______ _______ _______ _____ _____    ______ ____
ROOT
ATOM      1  C   UNL     1      43.461   4.797  11.245  0.00  0.00    +0.000 C 
ENDROOT
BRANCH   1   2
ATOM      2  C   UNL     1      44.724   5.295  11.896  0.00  0.00    +0.000 A 
ATOM      3  C   UNL     1      45.180   6.600  11.680  0.00  0.00    +0.000 A 
ATOM      4  C   UNL     1      46.386   7.038  12.247  0.00  0.00    +0.000 A 
ATOM      5  C   UNL     1      47.177   6.209  13.059  0.00  0.00    +0.000 A 
ATOM      6  C   UNL     1      46.673   4.915  13.290  0.00  0.00    +0.000 A 
ATOM      7  F   UNL     1      47.321   4.060  14.099  0.00  0.00    +0.000 F 
ATOM      8  C   UNL     1      45.476   4.463  12.728  0.00  0.00    +0.000 A 
BRANCH   5   9
ATOM      9  N   UNL     1      48.388   6.661  13.564  0.00  0.00    +0.000 N 
ATOM     10  C   UNL     1      48.619   6.817  15.001  0.00  0.00    +0.000 C 
ATOM     11  C   UNL     1      48.873   8.285  15.333  0.00  0.00    +0.000 C 
ATOM     12  C   UNL     1      50.011   8.845  14.480  0.00  0.00    +0.000 C 
ATOM     13  C   UNL     1      49.743   8.616  12.993  0.00  0.00    +0.000 C 
ATOM     14  C   UNL     1      49.457   7.143  12.688  0.00  0.00    +0.000 C 
ENDBRANCH   5   9
ENDBRANCH   1   2
BRANCH   1  15
ATOM     15  N   UNL     1      43.607   4.787   9.802  0.00  0.00    +0.000 N 
ATOM     16  H   UNL     1      42.730   4.809   9.287  0.00  0.00    +0.000 HD
BRANCH  15  20
ATOM     17  C   UNL     1      46.392   2.313   7.816  0.00  0.00    +0.000 A 
ATOM     18  C   UNL     1      46.444   3.695   7.628  0.00  0.00    +0.000 A 
ATOM     19  C   UNL     1      45.541   4.528   8.299  0.00  0.00    +0.000 A 
ATOM     20  C   UNL     1      44.592   4.012   9.190  0.00  0.00    +0.000 A 
ATOM     21  C   UNL     1      44.546   2.621   9.357  0.00  0.00    +0.000 A 
ATOM     22  C   UNL     1      45.431   1.775   8.676  0.00  0.00    +0.000 A 
BRANCH  17  24
ATOM     23  N   UNL     1      48.360   1.948   6.428  0.00  0.00    +0.000 N 
ATOM     24  C   UNL     1      47.298   1.390   7.086  0.00  0.00    +0.000 C 
ATOM     25  O   UNL     1      47.128   0.179   7.092  0.00  0.00    +0.000 OA
ATOM     26  H   UNL     1      49.023   1.302   6.019  0.00  0.00    +0.000 HD
ATOM     27  H   UNL     1      48.670   2.892   6.603  0.00  0.00    +0.000 HD
ENDBRANCH  17  24
ENDBRANCH  15  20
ENDBRANCH   1  15
TORSDOF 5
ENDMDL
MODEL 2
REMARK VINA RESULT:    -8.141      1.882      2.928
REMARK INTER + INTRA:         -11.605
REMARK INTER:                 -10.775
REMARK INTRA:                  -0.830
REMARK UNBOUND:                -1.084
REMARK  Name = 
REMARK  5 active torsions:
REMARK  status: ('A' for Active; 'I' for Inactive)
REMARK    1  A    between atoms: C_2  and  C_4
REMARK    2  A    between atoms: C_7  and  N_8
REMARK    3  A    between atoms: N_8  and  C_9
REMARK    4  A    between atoms: C_9  and  C_10
REMARK    5  A    between atoms: C_13  and  N_14
REMARK                            x       y       z     vdW  Elec       q    Type
REMARK                         _______ _______ _______ _____ _____    ______ ____
ROOT
ATOM      1  C   UNL     1      44.711   6.078  10.868  0.00  0.00    +0.000 C 
ENDROOT
BRANCH   1   2
ATOM      2  C   UNL     1      45.563   5.675  12.042  0.00  0.00    +0.000 A 
ATOM      3  C   UNL     1      45.111   4.729  12.969  0.00  0.00    +0.000 A 
ATOM      4  C   UNL     1      45.888   4.399  14.089  0.00  0.00    +0.000 A 
ATOM      5  C   UNL     1      47.146   4.979  14.326  0.00  0.00    +0.000 A 
ATOM      6  C   UNL     1      47.590   5.897  13.355  0.00  0.00    +0.000 A 
ATOM      7  F   UNL     1      48.803   6.466  13.454  0.00  0.00    +0.000 F 
ATOM      8  C   UNL     1      46.825   6.239  12.238  0.00  0.00    +0.000 A 
BRANCH   5   9
ATOM      9  N   UNL     1      47.865   4.664  15.470  0.00  0.00    +0.000 N 
ATOM     10  C   UNL     1      47.889   3.308  16.021  0.00  0.00    +0.000 C 
ATOM     11  C   UNL     1      47.258   3.299  17.411  0.00  0.00    +0.000 C 
ATOM     12  C   UNL     1      47.932   4.326  18.321  0.00  0.00    +0.000 C 
ATOM     13  C   UNL     1      47.920   5.714  17.679  0.00  0.00    +0.000 C 
ATOM     14  C   UNL     1      48.526   5.693  16.273  0.00  0.00    +0.000 C 
ENDBRANCH   5   9
ENDBRANCH   1   2
BRANCH   1  15
ATOM     15  N   UNL     1      44.077   4.914  10.279  0.00  0.00    +0.000 N 
ATOM     16  H   UNL     1      43.449   4.413  10.902  0.00  0.00    +0.000 HD
BRANCH  15  20
ATOM     17  C   UNL     1      46.449   2.500   7.754  0.00  0.00    +0.000 A 
ATOM     18  C   UNL     1      45.632   1.897   8.711  0.00  0.00    +0.000 A 
ATOM     19  C   UNL     1      44.823   2.686   9.539  0.00  0.00    +0.000 A 
ATOM     20  C   UNL     1      44.785   4.080   9.413  0.00  0.00    +0.000 A 
ATOM     21  C   UNL     1      45.623   4.668   8.455  0.00  0.00    +0.000 A 
ATOM     22  C   UNL     1      46.451   3.892   7.635  0.00  0.00    +0.000 A 
BRANCH  17  24
ATOM     23  N   UNL     1      48.511   2.313   6.472  0.00  0.00    +0.000 N 
ATOM     24  C   UNL     1      47.359   1.705   6.890  0.00  0.00    +0.000 C 
ATOM     25  O   UNL     1      47.112   0.547   6.585  0.00  0.00    +0.000 OA
ATOM     26  H   UNL     1      49.167   1.730   5.968  0.00  0.00    +0.000 HD
ATOM     27  H   UNL     1      48.863   3.158   6.897  0.00  0.00    +0.000 HD
ENDBRANCH  17  24
ENDBRANCH  15  20
ENDBRANCH   1  15
TORSDOF 5
ENDMDL
MODEL 3
REMARK VINA RESULT:    -7.696      1.298      2.039
REMARK INTER + INTRA:         -11.029
REMARK INTER:                  -9.892
REMARK INTRA:                  -1.138
REMARK UNBOUND:                -1.084
REMARK  Name = 
REMARK  5 active torsions:
REMARK  status: ('A' for Active; 'I' for Inactive)
REMARK    1  A    between atoms: C_2  and  C_4
REMARK    2  A    between atoms: C_7  and  N_8
REMARK    3  A    between atoms: N_8  and  C_9
REMARK    4  A    between atoms: C_9  and  C_10
REMARK    5  A    between atoms: C_13  and  N_14
REMARK                            x       y       z     vdW  Elec       q    Type
REMARK                         _______ _______ _______ _____ _____    ______ ____
ROOT
ATOM      1  C   UNL     1      44.122   4.715  11.554  0.00  0.00    +0.000 C 
ENDROOT
BRANCH   1   2
ATOM      2  C   UNL     1      45.110   5.803  11.880  0.00  0.00    +0.000 A 
ATOM      3  C   UNL     1      44.755   7.153  11.779  0.00  0.00    +0.000 A 
ATOM      4  C   UNL     1      45.697   8.160  12.033  0.00  0.00    +0.000 A 
ATOM      5  C   UNL     1      47.020   7.872  12.409  0.00  0.00    +0.000 A 
ATOM      6  C   UNL     1      47.336   6.506  12.540  0.00  0.00    +0.000 A 
ATOM      7  F   UNL     1      48.556   6.121  12.951  0.00  0.00    +0.000 F 
ATOM      8  C   UNL     1      46.409   5.492  12.287  0.00  0.00    +0.000 A 
BRANCH   5   9
ATOM      9  N   UNL     1      47.938   8.893  12.605  0.00  0.00    +0.000 N 
ATOM     10  C   UNL     1      48.684   9.488  11.495  0.00  0.00    +0.000 C 
ATOM     11  C   UNL     1      50.178   9.225  11.670  0.00  0.00    +0.000 C 
ATOM     12  C   UNL     1      50.657   9.708  13.038  0.00  0.00    +0.000 C 
ATOM     13  C   UNL     1      49.818   9.095  14.159  0.00  0.00    +0.000 C 
ATOM     14  C   UNL     1      48.321   9.339  13.945  0.00  0.00    +0.000 C 
ENDBRANCH   5   9
ENDBRANCH   1   2
BRANCH   1  15
ATOM     15  N   UNL     1      43.847   4.692  10.130  0.00  0.00    +0.000 N 
ATOM     16  H   UNL     1      42.861   4.641   9.889  0.00  0.00    +0.000 HD
BRANCH  15  20
ATOM     17  C   UNL     1      46.552   2.651   7.611  0.00  0.00    +0.000 A 
ATOM     18  C   UNL     1      45.714   1.921   8.454  0.00  0.00    +0.000 A 
ATOM     19  C   UNL     1      44.797   2.584   9.277  0.00  0.00    +0.000 A 
ATOM     20  C   UNL     1      44.670   3.980   9.258  0.00  0.00    +0.000 A 
ATOM     21  C   UNL     1      45.530   4.697   8.414  0.00  0.00    +0.000 A 
ATOM     22  C   UNL     1      46.466   4.046   7.601  0.00  0.00    +0.000 A 
BRANCH  17  24
ATOM     23  N   UNL     1      48.047   2.699   5.689  0.00  0.00    +0.000 N 
ATOM     24  C   UNL     1      47.574   1.990   6.759  0.00  0.00    +0.000 C 
ATOM     25  O   UNL     1      48.000   0.872   7.012  0.00  0.00    +0.000 OA
ATOM     26  H   UNL     1      48.812   2.278   5.177  0.00  0.00    +0.000 HD
ATOM     27  H   UNL     1      47.909   3.694   5.594  0.00  0.00    +0.000 HD
ENDBRANCH  17  24
ENDBRANCH  15  20
ENDBRANCH   1  15
TORSDOF 5
ENDMDL
MODEL 4
REMARK VINA RESULT:    -6.833      4.180      7.861
REMARK INTER + INTRA:          -9.914
REMARK INTER:                  -9.368
REMARK INTRA:                  -0.546
REMARK UNBOUND:                -1.084
REMARK  Name = 
REMARK  5 active torsions:
REMARK  status: ('A' for Active; 'I' for Inactive)
REMARK    1  A    between atoms: C_2  and  C_4
REMARK    2  A    between atoms: C_7  and  N_8
REMARK    3  A    between atoms: N_8  and  C_9
REMARK    4  A    between atoms: C_9  and  C_10
REMARK    5  A    between atoms: C_13  and  N_14
REMARK                            x       y       z     vdW  Elec       q    Type
REMARK                         _______ _______ _______ _____ _____    ______ ____
ROOT
ATOM      1  C   UNL     1      48.042   6.152  15.456  0.00  0.00    +0.000 C 
ENDROOT
BRANCH   1   2
ATOM      2  C   UNL     1      47.329   5.786  14.182  0.00  0.00    +0.000 A 
ATOM      3  C   UNL     1      47.114   6.736  13.177  0.00  0.00    +0.000 A 
ATOM      4  C   UNL     1      46.402   6.400  12.017  0.00  0.00    +0.000 A 
ATOM      5  C   UNL     1      45.889   5.110  11.799  0.00  0.00    +0.000 A 
ATOM      6  C   UNL     1      46.156   4.166  12.809  0.00  0.00    +0.000 A 
ATOM      7  F   UNL     1      45.762   2.889  12.675  0.00  0.00    +0.000 F 
ATOM      8  C   UNL     1      46.860   4.488  13.972  0.00  0.00    +0.000 A 
BRANCH   5   9
ATOM      9  N   UNL     1      45.149   4.827  10.661  0.00  0.00    +0.000 N 
ATOM     10  C   UNL     1      43.960   3.973  10.703  0.00  0.00    +0.000 C 
ATOM     11  C   UNL     1      44.190   2.716   9.867  0.00  0.00    +0.000 C 
ATOM     12  C   UNL     1      44.613   3.081   8.444  0.00  0.00    +0.000 C 
ATOM     13  C   UNL     1      45.829   4.009   8.457  0.00  0.00    +0.000 C 
ATOM     14  C   UNL     1      45.590   5.244   9.329  0.00  0.00    +0.000 C 
ENDBRANCH   5   9
ENDBRANCH   1   2
BRANCH   1  15
ATOM     15  N   UNL     1      47.811   5.143  16.472  0.00  0.00    +0.000 N 
ATOM     16  H   UNL     1      47.203   5.438  17.232  0.00  0.00    +0.000 HD
BRANCH  15  20
ATOM     17  C   UNL     1      50.942   2.486  17.452  0.00  0.00    +0.000 A 
ATOM     18  C   UNL     1      51.133   3.859  17.606  0.00  0.00    +0.000 A 
ATOM     19  C   UNL     1      50.095   4.750  17.307  0.00  0.00    +0.000 A 
ATOM     20  C   UNL     1      48.840   4.295  16.880  0.00  0.00    +0.000 A 
ATOM     21  C   UNL     1      48.671   2.913  16.719  0.00  0.00    +0.000 A 
ATOM     22  C   UNL     1      49.709   2.014  16.995  0.00  0.00    +0.000 A 
BRANCH  17  24
ATOM     23  N   UNL     1      51.664   0.253  18.105  0.00  0.00    +0.000 N 
ATOM     24  C   UNL     1      52.032   1.510  17.710  0.00  0.00    +0.000 C 
ATOM     25  O   UNL     1      53.210   1.801  17.551  0.00  0.00    +0.000 OA
ATOM     26  H   UNL     1      52.408  -0.428  18.181  0.00  0.00    +0.000 HD
ATOM     27  H   UNL     1      50.720  -0.091  18.007  0.00  0.00    +0.000 HD
ENDBRANCH  17  24
ENDBRANCH  15  20
ENDBRANCH   1  15
TORSDOF 5
ENDMDL
MODEL 5
REMARK VINA RESULT:    -6.739      4.262      7.958
REMARK INTER + INTRA:          -9.793
REMARK INTER:                  -9.246
REMARK INTRA:                  -0.547
REMARK UNBOUND:                -1.084
REMARK  Name = 
REMARK  5 active torsions:
REMARK  status: ('A' for Active; 'I' for Inactive)
REMARK    1  A    between atoms: C_2  and  C_4
REMARK    2  A    between atoms: C_7  and  N_8
REMARK    3  A    between atoms: N_8  and  C_9
REMARK    4  A    between atoms: C_9  and  C_10
REMARK    5  A    between atoms: C_13  and  N_14
REMARK                            x       y       z     vdW  Elec       q    Type
REMARK                         _______ _______ _______ _____ _____    ______ ____
ROOT
ATOM      1  C   UNL     1      47.610   5.757  15.246  0.00  0.00    +0.000 C 
ENDROOT
BRANCH   1   2
ATOM      2  C   UNL     1      46.876   5.394  13.983  0.00  0.00    +0.000 A 
ATOM      3  C   UNL     1      46.537   4.065  13.703  0.00  0.00    +0.000 A 
ATOM      4  C   UNL     1      45.902   3.729  12.499  0.00  0.00    +0.000 A 
ATOM      5  C   UNL     1      45.563   4.693  11.535  0.00  0.00    +0.000 A 
ATOM      6  C   UNL     1      45.881   6.026  11.863  0.00  0.00    +0.000 A 
ATOM      7  F   UNL     1      45.550   7.033  11.038  0.00  0.00    +0.000 F 
ATOM      8  C   UNL     1      46.519   6.375  13.056  0.00  0.00    +0.000 A 
BRANCH   5   9
ATOM      9  N   UNL     1      44.978   4.319  10.335  0.00  0.00    +0.000 N 
ATOM     10  C   UNL     1      44.063   3.180  10.241  0.00  0.00    +0.000 C 
ATOM     11  C   UNL     1      44.660   2.103   9.339  0.00  0.00    +0.000 C 
ATOM     12  C   UNL     1      45.033   2.682   7.975  0.00  0.00    +0.000 C 
ATOM     13  C   UNL     1      45.952   3.894   8.130  0.00  0.00    +0.000 C 
ATOM     14  C   UNL     1      45.350   4.946   9.066  0.00  0.00    +0.000 C 
ENDBRANCH   5   9
ENDBRANCH   1   2
BRANCH   1  15
ATOM     15  N   UNL     1      47.421   4.730  16.254  0.00  0.00    +0.000 N 
ATOM     16  H   UNL     1      46.749   4.967  16.980  0.00  0.00    +0.000 HD
BRANCH  15  20
ATOM     17  C   UNL     1      50.745   2.395  17.405  0.00  0.00    +0.000 A 
ATOM     18  C   UNL     1      50.745   3.766  17.666  0.00  0.00    +0.000 A 
ATOM     19  C   UNL     1      49.639   4.547  17.311  0.00  0.00    +0.000 A 
ATOM     20  C   UNL     1      48.502   3.982  16.719  0.00  0.00    +0.000 A 
ATOM     21  C   UNL     1      48.526   2.605  16.453  0.00  0.00    +0.000 A 
ATOM     22  C   UNL     1      49.634   1.817  16.785  0.00  0.00    +0.000 A 
BRANCH  17  24
ATOM     23  N   UNL     1      51.662   0.256  18.120  0.00  0.00    +0.000 N 
ATOM     24  C   UNL     1      51.917   1.539  17.720  0.00  0.00    +0.000 C 
ATOM     25  O   UNL     1      53.065   1.946  17.602  0.00  0.00    +0.000 OA
ATOM     26  H   UNL     1      52.468  -0.345  18.235  0.00  0.00    +0.000 HD
ATOM     27  H   UNL     1      50.763  -0.184  17.991  0.00  0.00    +0.000 HD
ENDBRANCH  17  24
ENDBRANCH  15  20
ENDBRANCH   1  15
TORSDOF 5
ENDMDL
MODEL 6
REMARK VINA RESULT:    -6.626      3.646      8.004
REMARK INTER + INTRA:          -9.647
REMARK INTER:                  -9.200
REMARK INTRA:                  -0.447
REMARK UNBOUND:                -1.084
REMARK  Name = 
REMARK  5 active torsions:
REMARK  status: ('A' for Active; 'I' for Inactive)
REMARK    1  A    between atoms: C_2  and  C_4
REMARK    2  A    between atoms: C_7  and  N_8
REMARK    3  A    between atoms: N_8  and  C_9
REMARK    4  A    between atoms: C_9  and  C_10
REMARK    5  A    between atoms: C_13  and  N_14
REMARK                            x       y       z     vdW  Elec       q    Type
REMARK                         _______ _______ _______ _____ _____    ______ ____
ROOT
ATOM      1  C   UNL     1      45.281   5.710  13.278  0.00  0.00    +0.000 C 
ENDROOT
BRANCH   1   2
ATOM      2  C   UNL     1      45.281   4.955  11.975  0.00  0.00    +0.000 A 
ATOM      3  C   UNL     1      44.884   3.614  11.919  0.00  0.00    +0.000 A 
ATOM      4  C   UNL     1      44.939   2.903  10.711  0.00  0.00    +0.000 A 
ATOM      5  C   UNL     1      45.372   3.495   9.512  0.00  0.00    +0.000 A 
ATOM      6  C   UNL     1      45.727   4.855   9.592  0.00  0.00    +0.000 A 
ATOM      7  F   UNL     1      46.100   5.533   8.494  0.00  0.00    +0.000 F 
ATOM      8  C   UNL     1      45.682   5.574  10.789  0.00  0.00    +0.000 A 
BRANCH   5   9
ATOM      9  N   UNL     1      45.459   2.748   8.346  0.00  0.00    +0.000 N 
ATOM     10  C   UNL     1      45.812   1.327   8.361  0.00  0.00    +0.000 C 
ATOM     11  C   UNL     1      47.131   1.109   7.622  0.00  0.00    +0.000 C 
ATOM     12  C   UNL     1      47.066   1.694   6.212  0.00  0.00    +0.000 C 
ATOM     13  C   UNL     1      46.650   3.165   6.250  0.00  0.00    +0.000 C 
ATOM     14  C   UNL     1      45.344   3.365   7.024  0.00  0.00    +0.000 C 
ENDBRANCH   5   9
ENDBRANCH   1   2
BRANCH   1  15
ATOM     15  N   UNL     1      46.630   6.107  13.631  0.00  0.00    +0.000 N 
ATOM     16  H   UNL     1      47.236   6.302  12.839  0.00  0.00    +0.000 HD
BRANCH  15  20
ATOM     17  C   UNL     1      48.541   4.496  17.034  0.00  0.00    +0.000 A 
ATOM     18  C   UNL     1      47.544   3.760  16.393  0.00  0.00    +0.000 A 
ATOM     19  C   UNL     1      46.919   4.273  15.249  0.00  0.00    +0.000 A 
ATOM     20  C   UNL     1      47.291   5.508  14.704  0.00  0.00    +0.000 A 
ATOM     21  C   UNL     1      48.285   6.239  15.369  0.00  0.00    +0.000 A 
ATOM     22  C   UNL     1      48.903   5.746  16.525  0.00  0.00    +0.000 A 
BRANCH  17  24
ATOM     23  N   UNL     1      48.501   3.106  19.033  0.00  0.00    +0.000 N 
ATOM     24  C   UNL     1      49.194   4.011  18.277  0.00  0.00    +0.000 C 
ATOM     25  O   UNL     1      50.314   4.378  18.603  0.00  0.00    +0.000 OA
ATOM     26  H   UNL     1      48.996   2.710  19.821  0.00  0.00    +0.000 HD
ATOM     27  H   UNL     1      47.703   2.601  18.678  0.00  0.00    +0.000 HD
ENDBRANCH  17  24
ENDBRANCH  15  20
ENDBRANCH   1  15
TORSDOF 5
ENDMDL
MODEL 7
REMARK VINA RESULT:    -6.621      3.131      7.156
REMARK INTER + INTRA:          -9.641
REMARK INTER:                  -9.131
REMARK INTRA:                  -0.510
REMARK UNBOUND:                -1.084
REMARK  Name = 
REMARK  5 active torsions:
REMARK  status: ('A' for Active; 'I' for Inactive)
REMARK    1  A    between atoms: C_2  and  C_4
REMARK    2  A    between atoms: C_7  and  N_8
REMARK    3  A    between atoms: N_8  and  C_9
REMARK    4  A    between atoms: C_9  and  C_10
REMARK    5  A    between atoms: C_13  and  N_14
REMARK                            x       y       z     vdW  Elec       q    Type
REMARK                         _______ _______ _______ _____ _____    ______ ____
ROOT
ATOM      1  C   UNL     1      44.404   5.561  12.895  0.00  0.00    +0.000 C 
ENDROOT
BRANCH   1   2
ATOM      2  C   UNL     1      44.658   4.820  11.609  0.00  0.00    +0.000 A 
ATOM      3  C   UNL     1      44.206   3.507  11.433  0.00  0.00    +0.000 A 
ATOM      4  C   UNL     1      44.494   2.806  10.253  0.00  0.00    +0.000 A 
ATOM      5  C   UNL     1      45.223   3.379   9.198  0.00  0.00    +0.000 A 
ATOM      6  C   UNL     1      45.630   4.714   9.389  0.00  0.00    +0.000 A 
ATOM      7  F   UNL     1      46.283   5.377   8.420  0.00  0.00    +0.000 F 
ATOM      8  C   UNL     1      45.355   5.424  10.561  0.00  0.00    +0.000 A 
BRANCH   5   9
ATOM      9  N   UNL     1      45.530   2.639   8.066  0.00  0.00    +0.000 N 
ATOM     10  C   UNL     1      46.029   1.266   8.150  0.00  0.00    +0.000 C 
ATOM     11  C   UNL     1      47.443   1.188   7.578  0.00  0.00    +0.000 C 
ATOM     12  C   UNL     1      47.487   1.754   6.160  0.00  0.00    +0.000 C 
ATOM     13  C   UNL     1      46.913   3.171   6.119  0.00  0.00    +0.000 C 
ATOM     14  C   UNL     1      45.510   3.232   6.728  0.00  0.00    +0.000 C 
ENDBRANCH   5   9
ENDBRANCH   1   2
BRANCH   1  15
ATOM     15  N   UNL     1      45.643   5.735  13.630  0.00  0.00    +0.000 N 
ATOM     16  H   UNL     1      45.548   5.672  14.641  0.00  0.00    +0.000 HD
BRANCH  15  20
ATOM     17  C   UNL     1      48.550   8.419  12.157  0.00  0.00    +0.000 A 
ATOM     18  C   UNL     1      47.242   8.864  12.356  0.00  0.00    +0.000 A 
ATOM     19  C   UNL     1      46.275   7.990  12.866  0.00  0.00    +0.000 A 
ATOM     20  C   UNL     1      46.590   6.671  13.217  0.00  0.00    +0.000 A 
ATOM     21  C   UNL     1      47.906   6.239  12.998  0.00  0.00    +0.000 A 
ATOM     22  C   UNL     1      48.878   7.097  12.469  0.00  0.00    +0.000 A 
BRANCH  17  24
ATOM     23  N   UNL     1      50.867   8.798  11.509  0.00  0.00    +0.000 N 
ATOM     24  C   UNL     1      49.594   9.298  11.571  0.00  0.00    +0.000 C 
ATOM     25  O   UNL     1      49.333  10.409  11.134  0.00  0.00    +0.000 OA
ATOM     26  H   UNL     1      51.547   9.365  11.020  0.00  0.00    +0.000 HD
ATOM     27  H   UNL     1      51.070   7.816  11.626  0.00  0.00    +0.000 HD
ENDBRANCH  17  24
ENDBRANCH  15  20
ENDBRANCH   1  15
TORSDOF 5
ENDMDL
MODEL 8
REMARK VINA RESULT:    -5.990      3.450      4.938
REMARK INTER + INTRA:          -8.825
REMARK INTER:                  -8.054
REMARK INTRA:                  -0.771
REMARK UNBOUND:                -1.084
REMARK  Name = 
REMARK  5 active torsions:
REMARK  status: ('A' for Active; 'I' for Inactive)
REMARK    1  A    between atoms: C_2  and  C_4
REMARK    2  A    between atoms: C_7  and  N_8
REMARK    3  A    between atoms: N_8  and  C_9
REMARK    4  A    between atoms: C_9  and  C_10
REMARK    5  A    between atoms: C_13  and  N_14
REMARK                            x       y       z     vdW  Elec       q    Type
REMARK                         _______ _______ _______ _____ _____    ______ ____
ROOT
ATOM      1  C   UNL     1      47.409   6.528  13.602  0.00  0.00    +0.000 C 
ENDROOT
BRANCH   1   2
ATOM      2  C   UNL     1      47.937   6.014  14.915  0.00  0.00    +0.000 A 
ATOM      3  C   UNL     1      48.917   6.718  15.623  0.00  0.00    +0.000 A 
ATOM      4  C   UNL     1      49.442   6.205  16.818  0.00  0.00    +0.000 A 
ATOM      5  C   UNL     1      49.008   4.986  17.365  0.00  0.00    +0.000 A 
ATOM      6  C   UNL     1      47.993   4.320  16.651  0.00  0.00    +0.000 A 
ATOM      7  F   UNL     1      47.465   3.176  17.116  0.00  0.00    +0.000 F 
ATOM      8  C   UNL     1      47.464   4.817  15.457  0.00  0.00    +0.000 A 
BRANCH   5   9
ATOM      9  N   UNL     1      49.585   4.486  18.523  0.00  0.00    +0.000 N 
ATOM     10  C   UNL     1      48.862   4.453  19.796  0.00  0.00    +0.000 C 
ATOM     11  C   UNL     1      49.562   5.348  20.817  0.00  0.00    +0.000 C 
ATOM     12  C   UNL     1      51.035   4.964  20.955  0.00  0.00    +0.000 C 
ATOM     13  C   UNL     1      51.731   4.969  19.594  0.00  0.00    +0.000 C 
ATOM     14  C   UNL     1      50.993   4.094  18.577  0.00  0.00    +0.000 C 
ENDBRANCH   5   9
ENDBRANCH   1   2
BRANCH   1  15
ATOM     15  N   UNL     1      46.008   6.181  13.450  0.00  0.00    +0.000 N 
ATOM     16  H   UNL     1      45.516   6.011  14.324  0.00  0.00    +0.000 HD
BRANCH  15  20
ATOM     17  C   UNL     1      44.984   3.715  10.180  0.00  0.00    +0.000 A 
ATOM     18  C   UNL     1      44.932   3.196  11.474  0.00  0.00    +0.000 A 
ATOM     19  C   UNL     1      45.247   4.011  12.569  0.00  0.00    +0.000 A 
ATOM     20  C   UNL     1      45.588   5.360  12.405  0.00  0.00    +0.000 A 
ATOM     21  C   UNL     1      45.647   5.859  11.096  0.00  0.00    +0.000 A 
ATOM     22  C   UNL     1      45.354   5.049   9.992  0.00  0.00    +0.000 A 
BRANCH  17  24
ATOM     23  N   UNL     1      44.569   1.527   9.194  0.00  0.00    +0.000 N 
ATOM     24  C   UNL     1      44.707   2.873   8.988  0.00  0.00    +0.000 C 
ATOM     25  O   UNL     1      44.576   3.356   7.872  0.00  0.00    +0.000 OA
ATOM     26  H   UNL     1      44.283   0.980   8.393  0.00  0.00    +0.000 HD
ATOM     27  H   UNL     1      44.423   1.131  10.110  0.00  0.00    +0.000 HD
ENDBRANCH  17  24
ENDBRANCH  15  20
ENDBRANCH   1  15
TORSDOF 5
ENDMDL
MODEL 9
REMARK VINA RESULT:    -5.989      4.866      8.445
REMARK INTER + INTRA:          -8.824
REMARK INTER:                  -8.304
REMARK INTRA:                  -0.521
REMARK UNBOUND:                -1.084
REMARK  Name = 
REMARK  5 active torsions:
REMARK  status: ('A' for Active; 'I' for Inactive)
REMARK    1  A    between atoms: C_2  and  C_4
REMARK    2  A    between atoms: C_7  and  N_8
REMARK    3  A    between atoms: N_8  and  C_9
REMARK    4  A    between atoms: C_9  and  C_10
REMARK    5  A    between atoms: C_13  and  N_14
REMARK                            x       y       z     vdW  Elec       q    Type
REMARK                         _______ _______ _______ _____ _____    ______ ____
ROOT
ATOM      1  C   UNL     1      49.304   6.001  16.669  0.00  0.00    +0.000 C 
ENDROOT
BRANCH   1   2
ATOM      2  C   UNL     1      48.326   5.720  15.560  0.00  0.00    +0.000 A 
ATOM      3  C   UNL     1      47.397   4.678  15.665  0.00  0.00    +0.000 A 
ATOM      4  C   UNL     1      46.526   4.388  14.604  0.00  0.00    +0.000 A 
ATOM      5  C   UNL     1      46.530   5.125  13.408  0.00  0.00    +0.000 A 
ATOM      6  C   UNL     1      47.448   6.192  13.348  0.00  0.00    +0.000 A 
ATOM      7  F   UNL     1      47.495   6.996  12.273  0.00  0.00    +0.000 F 
ATOM      8  C   UNL     1      48.325   6.489  14.394  0.00  0.00    +0.000 A 
BRANCH   5   9
ATOM      9  N   UNL     1      45.687   4.780  12.362  0.00  0.00    +0.000 N 
ATOM     10  C   UNL     1      45.029   5.790  11.532  0.00  0.00    +0.000 C 
ATOM     11  C   UNL     1      43.514   5.695  11.696  0.00  0.00    +0.000 C 
ATOM     12  C   UNL     1      43.025   4.276  11.410  0.00  0.00    +0.000 C 
ATOM     13  C   UNL     1      43.774   3.257  12.269  0.00  0.00    +0.000 C 
ATOM     14  C   UNL     1      45.291   3.393  12.116  0.00  0.00    +0.000 C 
ENDBRANCH   5   9
ENDBRANCH   1   2
BRANCH   1  15
ATOM     15  N   UNL     1      49.299   4.918  17.634  0.00  0.00    +0.000 N 
ATOM     16  H   UNL     1      49.080   5.200  18.586  0.00  0.00    +0.000 HD
BRANCH  15  20
ATOM     17  C   UNL     1      52.200   1.851  17.673  0.00  0.00    +0.000 A 
ATOM     18  C   UNL     1      50.883   1.547  17.326  0.00  0.00    +0.000 A 
ATOM     19  C   UNL     1      49.917   2.559  17.286  0.00  0.00    +0.000 A 
ATOM     20  C   UNL     1      50.242   3.894  17.559  0.00  0.00    +0.000 A 
ATOM     21  C   UNL     1      51.567   4.178  17.919  0.00  0.00    +0.000 A 
ATOM     22  C   UNL     1      52.538   3.171  17.982  0.00  0.00    +0.000 A 
BRANCH  17  24
ATOM     23  N   UNL     1      52.886  -0.380  18.367  0.00  0.00    +0.000 N 
ATOM     24  C   UNL     1      53.245   0.800  17.775  0.00  0.00    +0.000 C 
ATOM     25  O   UNL     1      54.371   0.963  17.327  0.00  0.00    +0.000 OA
ATOM     26  H   UNL     1      53.575  -1.121  18.342  0.00  0.00    +0.000 HD
ATOM     27  H   UNL     1      51.923  -0.639  18.520  0.00  0.00    +0.000 HD
ENDBRANCH  17  24
ENDBRANCH  15  20
ENDBRANCH   1  15
TORSDOF 5
ENDMDL
