MODEL 1
REMARK VINA RESULT:    -7.671      0.000      0.000
REMARK INTER + INTRA:          -9.820
REMARK INTER:                  -9.240
REMARK INTRA:                  -0.580
REMARK UNBOUND:                -0.580
REMARK  Name = 
REMARK  4 active torsions:
REMARK  status: ('A' for Active; 'I' for Inactive)
REMARK    1  A    between atoms: N_1  and  C_2
REMARK    2  A    between atoms: C_2  and  C_3
REMARK    3  A    between atoms: C_6  and  C_7
REMARK    4  A    between atoms: C_7  and  N_8
REMARK                            x       y       z     vdW  Elec       q    Type
REMARK                         _______ _______ _______ _____ _____    ______ ____
ROOT
ATOM      1  C   UNL     1      46.792   2.146   7.471  0.00  0.00    +0.000 A 
ATOM      2  C   UNL     1      45.895   1.560   8.373  0.00  0.00    +0.000 A 
ATOM      3  C   UNL     1      44.943   2.334   9.044  0.00  0.00    +0.000 A 
ATOM      4  C   UNL     1      44.884   3.720   8.846  0.00  0.00    +0.000 A 
ATOM      5  C   UNL     1      45.782   4.306   7.943  0.00  0.00    +0.000 A 
ATOM      6  C   UNL     1      46.722   3.528   7.260  0.00  0.00    +0.000 A 
ENDROOT
BRANCH   1   7
ATOM      7  C   UNL     1      47.828   1.305   6.767  0.00  0.00    +0.000 C 
BRANCH   7   8
ATOM      8  N   UNL     1      48.391   1.993   5.611  0.00  0.00    +0.000 NA
ATOM      9  H   UNL     1      48.922   2.800   5.929  0.00  0.00    +0.000 HD
ATOM     10  H   UNL     1      47.628   2.355   5.042  0.00  0.00    +0.000 HD
ENDBRANCH   7   8
ENDBRANCH   1   7
BRANCH   4  11
ATOM     11  C   UNL     1      43.872   4.570   9.574  0.00  0.00    +0.000 C 
BRANCH  11  12
ATOM     12  N   UNL     1      44.036   4.534  11.026  0.00  0.00    +0.000 N 
ATOM     13  C   UNL     1      43.264   3.773  11.874  0.00  0.00    +0.000 A 
ATOM     14  C   UNL     1      43.824   3.827  13.133  0.00  0.00    +0.000 A 
ATOM     15  C   UNL     1      44.990   4.636  13.050  0.00  0.00    +0.000 A 
ATOM     16  C   UNL     1      45.977   5.014  13.970  0.00  0.00    +0.000 A 
ATOM     17  N   UNL     1      47.017   5.797  13.590  0.00  0.00    +0.000 NA
ATOM     18  C   UNL     1      47.074   6.220  12.311  0.00  0.00    +0.000 A 
ATOM     19  C   UNL     1      46.143   5.913  11.327  0.00  0.00    +0.000 A 
ATOM     20  C   UNL     1      45.091   5.086  11.730  0.00  0.00    +0.000 A 
ENDBRANCH  11  12
ENDBRANCH   4  11
TORSDOF 4
ENDMDL
MODEL 2
REMARK VINA RESULT:    -7.517      1.280      1.901
REMARK INTER + INTRA:          -9.635
REMARK INTER:                  -9.111
REMARK INTRA:                  -0.523
REMARK UNBOUND:                -0.580
REMARK  Name = 
REMARK  4 active torsions:
REMARK  status: ('A' for Active; 'I' for Inactive)
REMARK    1  A    between atoms: N_1  and  C_2
REMARK    2  A    between atoms: C_2  and  C_3
REMARK    3  A    between atoms: C_6  and  C_7
REMARK    4  A    between atoms: C_7  and  N_8
REMARK                            x       y       z     vdW  Elec       q    Type
REMARK                         _______ _______ _______ _____ _____    ______ ____
ROOT
ATOM      1  C   UNL     1      46.479   2.722   7.014  0.00  0.00    +0.000 A 
ATOM      2  C   UNL     1      46.109   4.016   7.405  0.00  0.00    +0.000 A 
ATOM      3  C   UNL     1      45.372   4.230   8.573  0.00  0.00    +0.000 A 
ATOM      4  C   UNL     1      44.963   3.149   9.366  0.00  0.00    +0.000 A 
ATOM      5  C   UNL     1      45.331   1.854   8.974  0.00  0.00    +0.000 A 
ATOM      6  C   UNL     1      46.085   1.643   7.815  0.00  0.00    +0.000 A 
ENDROOT
BRANCH   1   7
ATOM      7  C   UNL     1      47.258   2.500   5.742  0.00  0.00    +0.000 C 
BRANCH   7   8
ATOM      8  N   UNL     1      48.511   1.795   5.988  0.00  0.00    +0.000 NA
ATOM      9  H   UNL     1      48.723   1.204   5.189  0.00  0.00    +0.000 HD
ATOM     10  H   UNL     1      48.384   1.172   6.785  0.00  0.00    +0.000 HD
ENDBRANCH   7   8
ENDBRANCH   1   7
BRANCH   4  11
ATOM     11  C   UNL     1      44.153   3.364  10.620  0.00  0.00    +0.000 C 
BRANCH  11  12
ATOM     12  N   UNL     1      44.938   3.932  11.716  0.00  0.00    +0.000 N 
ATOM     13  C   UNL     1      45.741   3.196  12.556  0.00  0.00    +0.000 A 
ATOM     14  C   UNL     1      46.478   4.071  13.326  0.00  0.00    +0.000 A 
ATOM     15  C   UNL     1      46.125   5.391  12.932  0.00  0.00    +0.000 A 
ATOM     16  C   UNL     1      46.560   6.667  13.313  0.00  0.00    +0.000 A 
ATOM     17  N   UNL     1      46.047   7.778  12.731  0.00  0.00    +0.000 NA
ATOM     18  C   UNL     1      45.095   7.632  11.786  0.00  0.00    +0.000 A 
ATOM     19  C   UNL     1      44.588   6.417  11.347  0.00  0.00    +0.000 A 
ATOM     20  C   UNL     1      45.145   5.281  11.940  0.00  0.00    +0.000 A 
ENDBRANCH  11  12
ENDBRANCH   4  11
TORSDOF 4
ENDMDL
MODEL 3
REMARK VINA RESULT:    -7.491      1.101      1.672
REMARK INTER + INTRA:          -9.603
REMARK INTER:                  -9.091
REMARK INTRA:                  -0.512
REMARK UNBOUND:                -0.580
REMARK  Name = 
REMARK  4 active torsions:
REMARK  status: ('A' for Active; 'I' for Inactive)
REMARK    1  A    between atoms: N_1  and  C_2
REMARK    2  A    between atoms: C_2  and  C_3
REMARK    3  A    between atoms: C_6  and  C_7
REMARK    4  A    between atoms: C_7  and  N_8
REMARK                            x       y       z     vdW  Elec       q    Type
REMARK                         _______ _______ _______ _____ _____    ______ ____
ROOT
ATOM      1  C   UNL     1      46.517   2.375   7.485  0.00  0.00    +0.000 A 
ATOM      2  C   UNL     1      45.774   1.654   8.430  0.00  0.00    +0.000 A 
ATOM      3  C   UNL     1      44.947   2.310   9.346  0.00  0.00    +0.000 A 
ATOM      4  C   UNL     1      44.865   3.709   9.357  0.00  0.00    +0.000 A 
ATOM      5  C   UNL     1      45.608   4.431   8.413  0.00  0.00    +0.000 A 
ATOM      6  C   UNL     1      46.421   3.772   7.485  0.00  0.00    +0.000 A 
ENDROOT
BRANCH   1   7
ATOM      7  C   UNL     1      47.420   1.658   6.514  0.00  0.00    +0.000 C 
BRANCH   7   8
ATOM      8  N   UNL     1      48.655   2.398   6.274  0.00  0.00    +0.000 NA
ATOM      9  H   UNL     1      49.442   1.850   6.611  0.00  0.00    +0.000 HD
ATOM     10  H   UNL     1      48.638   3.252   6.830  0.00  0.00    +0.000 HD
ENDBRANCH   7   8
ENDBRANCH   1   7
BRANCH   4  11
ATOM     11  C   UNL     1      43.989   4.432  10.350  0.00  0.00    +0.000 C 
BRANCH  11  12
ATOM     12  N   UNL     1      44.746   5.288  11.262  0.00  0.00    +0.000 N 
ATOM     13  C   UNL     1      44.555   6.646  11.386  0.00  0.00    +0.000 A 
ATOM     14  C   UNL     1      45.287   7.087  12.468  0.00  0.00    +0.000 A 
ATOM     15  C   UNL     1      45.936   5.958  13.036  0.00  0.00    +0.000 A 
ATOM     16  C   UNL     1      46.763   5.773  14.153  0.00  0.00    +0.000 A 
ATOM     17  N   UNL     1      47.228   4.541  14.475  0.00  0.00    +0.000 NA
ATOM     18  C   UNL     1      46.893   3.498  13.690  0.00  0.00    +0.000 A 
ATOM     19  C   UNL     1      46.093   3.576  12.558  0.00  0.00    +0.000 A 
ATOM     20  C   UNL     1      45.602   4.848  12.253  0.00  0.00    +0.000 A 
ENDBRANCH  11  12
ENDBRANCH   4  11
TORSDOF 4
ENDMDL
MODEL 4
REMARK VINA RESULT:    -6.239      1.518      6.147
REMARK INTER + INTRA:          -8.096
REMARK INTER:                  -7.567
REMARK INTRA:                  -0.529
REMARK UNBOUND:                -0.580
REMARK  Name = 
REMARK  4 active torsions:
REMARK  status: ('A' for Active; 'I' for Inactive)
REMARK    1  A    between atoms: N_1  and  C_2
REMARK    2  A    between atoms: C_2  and  C_3
REMARK    3  A    between atoms: C_6  and  C_7
REMARK    4  A    between atoms: C_7  and  N_8
REMARK                            x       y       z     vdW  Elec       q    Type
REMARK                         _______ _______ _______ _____ _____    ______ ____
ROOT
ATOM      1  C   UNL     1      46.476   4.640  13.603  0.00  0.00    +0.000 A 
ATOM      2  C   UNL     1      46.117   3.336  13.236  0.00  0.00    +0.000 A 
ATOM      3  C   UNL     1      45.468   3.086  12.024  0.00  0.00    +0.000 A 
ATOM      4  C   UNL     1      45.138   4.139  11.160  0.00  0.00    +0.000 A 
ATOM      5  C   UNL     1      45.497   5.443  11.528  0.00  0.00    +0.000 A 
ATOM      6  C   UNL     1      46.162   5.691  12.733  0.00  0.00    +0.000 A 
ENDROOT
BRANCH   1   7
ATOM      7  C   UNL     1      47.158   4.903  14.922  0.00  0.00    +0.000 C 
BRANCH   7   8
ATOM      8  N   UNL     1      47.055   3.760  15.824  0.00  0.00    +0.000 NA
ATOM      9  H   UNL     1      47.003   4.096  16.782  0.00  0.00    +0.000 HD
ATOM     10  H   UNL     1      47.911   3.211  15.755  0.00  0.00    +0.000 HD
ENDBRANCH   7   8
ENDBRANCH   1   7
BRANCH   4  11
ATOM     11  C   UNL     1      44.425   3.884   9.855  0.00  0.00    +0.000 C 
BRANCH  11  12
ATOM     12  N   UNL     1      45.338   3.752   8.721  0.00  0.00    +0.000 N 
ATOM     13  C   UNL     1      45.967   4.811   8.107  0.00  0.00    +0.000 A 
ATOM     14  C   UNL     1      46.898   4.307   7.223  0.00  0.00    +0.000 A 
ATOM     15  C   UNL     1      46.848   2.889   7.311  0.00  0.00    +0.000 A 
ATOM     16  C   UNL     1      47.569   1.852   6.703  0.00  0.00    +0.000 A 
ATOM     17  N   UNL     1      47.312   0.557   7.007  0.00  0.00    +0.000 NA
ATOM     18  C   UNL     1      46.335   0.283   7.895  0.00  0.00    +0.000 A 
ATOM     19  C   UNL     1      45.557   1.232   8.542  0.00  0.00    +0.000 A 
ATOM     20  C   UNL     1      45.851   2.564   8.236  0.00  0.00    +0.000 A 
ENDBRANCH  11  12
ENDBRANCH   4  11
TORSDOF 4
ENDMDL
MODEL 5
REMARK VINA RESULT:    -6.040      1.911      5.801
REMARK INTER + INTRA:          -7.856
REMARK INTER:                  -7.436
REMARK INTRA:                  -0.420
REMARK UNBOUND:                -0.580
REMARK  Name = 
REMARK  4 active torsions:
REMARK  status: ('A' for Active; 'I' for Inactive)
REMARK    1  A    between atoms: N_1  and  C_2
REMARK    2  A    between atoms: C_2  and  C_3
REMARK    3  A    between atoms: C_6  and  C_7
REMARK    4  A    between atoms: C_7  and  N_8
REMARK                            x       y       z     vdW  Elec       q    Type
REMARK                         _______ _______ _______ _____ _____    ______ ____
ROOT
ATOM      1  C   UNL     1      47.772   7.655  13.537  0.00  0.00    +0.000 A 
ATOM      2  C   UNL     1      47.585   6.299  13.240  0.00  0.00    +0.000 A 
ATOM      3  C   UNL     1      46.421   5.859  12.602  0.00  0.00    +0.000 A 
ATOM      4  C   UNL     1      45.404   6.764  12.269  0.00  0.00    +0.000 A 
ATOM      5  C   UNL     1      45.591   8.120  12.569  0.00  0.00    +0.000 A 
ATOM      6  C   UNL     1      46.764   8.562  13.191  0.00  0.00    +0.000 A 
ENDROOT
BRANCH   1   7
ATOM      7  C   UNL     1      49.023   8.117  14.243  0.00  0.00    +0.000 C 
BRANCH   7   8
ATOM      8  N   UNL     1      49.991   7.036  14.395  0.00  0.00    +0.000 NA
ATOM      9  H   UNL     1      49.881   6.619  15.316  0.00  0.00    +0.000 HD
ATOM     10  H   UNL     1      50.930   7.432  14.367  0.00  0.00    +0.000 HD
ENDBRANCH   7   8
ENDBRANCH   1   7
BRANCH   4  11
ATOM     11  C   UNL     1      44.137   6.301  11.595  0.00  0.00    +0.000 C 
BRANCH  11  12
ATOM     12  N   UNL     1      44.128   4.864  11.320  0.00  0.00    +0.000 N 
ATOM     13  C   UNL     1      43.413   3.941  12.048  0.00  0.00    +0.000 A 
ATOM     14  C   UNL     1      43.476   2.731  11.391  0.00  0.00    +0.000 A 
ATOM     15  C   UNL     1      44.243   2.923  10.210  0.00  0.00    +0.000 A 
ATOM     16  C   UNL     1      44.608   2.091   9.143  0.00  0.00    +0.000 A 
ATOM     17  N   UNL     1      45.347   2.569   8.112  0.00  0.00    +0.000 NA
ATOM     18  C   UNL     1      45.739   3.859   8.140  0.00  0.00    +0.000 A 
ATOM     19  C   UNL     1      45.442   4.760   9.154  0.00  0.00    +0.000 A 
ATOM     20  C   UNL     1      44.660   4.258  10.197  0.00  0.00    +0.000 A 
ENDBRANCH  11  12
ENDBRANCH   4  11
TORSDOF 4
ENDMDL
MODEL 6
REMARK VINA RESULT:    -5.356      3.605      7.324
REMARK INTER + INTRA:          -7.031
REMARK INTER:                  -6.550
REMARK INTRA:                  -0.482
REMARK UNBOUND:                -0.580
REMARK  Name = 
REMARK  4 active torsions:
REMARK  status: ('A' for Active; 'I' for Inactive)
REMARK    1  A    between atoms: N_1  and  C_2
REMARK    2  A    between atoms: C_2  and  C_3
REMARK    3  A    between atoms: C_6  and  C_7
REMARK    4  A    between atoms: C_7  and  N_8
REMARK                            x       y       z     vdW  Elec       q    Type
REMARK                         _______ _______ _______ _____ _____    ______ ____
ROOT
ATOM      1  C   UNL     1      48.065   4.955  17.529  0.00  0.00    +0.000 A 
ATOM      2  C   UNL     1      48.651   6.053  16.887  0.00  0.00    +0.000 A 
ATOM      3  C   UNL     1      48.483   6.255  15.514  0.00  0.00    +0.000 A 
ATOM      4  C   UNL     1      47.743   5.347  14.744  0.00  0.00    +0.000 A 
ATOM      5  C   UNL     1      47.157   4.247  15.387  0.00  0.00    +0.000 A 
ATOM      6  C   UNL     1      47.312   4.056  16.764  0.00  0.00    +0.000 A 
ENDROOT
BRANCH   1   7
ATOM      7  C   UNL     1      48.269   4.734  19.007  0.00  0.00    +0.000 C 
BRANCH   7   8
ATOM      8  N   UNL     1      48.281   3.316  19.348  0.00  0.00    +0.000 NA
ATOM      9  H   UNL     1      48.933   3.164  20.113  0.00  0.00    +0.000 HD
ATOM     10  H   UNL     1      48.642   2.792  18.552  0.00  0.00    +0.000 HD
ENDBRANCH   7   8
ENDBRANCH   1   7
BRANCH   4  11
ATOM     11  C   UNL     1      47.566   5.544  13.259  0.00  0.00    +0.000 C 
BRANCH  11  12
ATOM     12  N   UNL     1      46.191   5.874  12.887  0.00  0.00    +0.000 N 
ATOM     13  C   UNL     1      45.715   7.158  12.742  0.00  0.00    +0.000 A 
ATOM     14  C   UNL     1      44.452   7.090  12.193  0.00  0.00    +0.000 A 
ATOM     15  C   UNL     1      44.150   5.718  11.979  0.00  0.00    +0.000 A 
ATOM     16  C   UNL     1      43.059   5.040  11.420  0.00  0.00    +0.000 A 
ATOM     17  N   UNL     1      43.058   3.688  11.322  0.00  0.00    +0.000 NA
ATOM     18  C   UNL     1      44.123   3.005  11.789  0.00  0.00    +0.000 A 
ATOM     19  C   UNL     1      45.246   3.579  12.369  0.00  0.00    +0.000 A 
ATOM     20  C   UNL     1      45.241   4.975  12.441  0.00  0.00    +0.000 A 
ENDBRANCH  11  12
ENDBRANCH   4  11
TORSDOF 4
ENDMDL
MODEL 7
REMARK VINA RESULT:    -5.217      3.205      5.601
REMARK INTER + INTRA:          -6.865
REMARK INTER:                  -6.404
REMARK INTRA:                  -0.461
REMARK UNBOUND:                -0.580
REMARK  Name = 
REMARK  4 active torsions:
REMARK  status: ('A' for Active; 'I' for Inactive)
REMARK    1  A    between atoms: N_1  and  C_2
REMARK    2  A    between atoms: C_2  and  C_3
REMARK    3  A    between atoms: C_6  and  C_7
REMARK    4  A    between atoms: C_7  and  N_8
REMARK                            x       y       z     vdW  Elec       q    Type
REMARK                         _______ _______ _______ _____ _____    ______ ____
ROOT
ATOM      1  C   UNL     1      44.468   4.158  11.270  0.00  0.00    +0.000 A 
ATOM      2  C   UNL     1      44.400   4.426  12.643  0.00  0.00    +0.000 A 
ATOM      3  C   UNL     1      44.891   5.625  13.166  0.00  0.00    +0.000 A 
ATOM      4  C   UNL     1      45.488   6.577  12.328  0.00  0.00    +0.000 A 
ATOM      5  C   UNL     1      45.557   6.309  10.954  0.00  0.00    +0.000 A 
ATOM      6  C   UNL     1      45.049   5.116  10.430  0.00  0.00    +0.000 A 
ENDROOT
BRANCH   1   7
ATOM      7  C   UNL     1      43.953   2.853  10.718  0.00  0.00    +0.000 C 
BRANCH   7   8
ATOM      8  N   UNL     1      43.039   2.195  11.645  0.00  0.00    +0.000 NA
ATOM      9  H   UNL     1      42.275   2.829  11.867  0.00  0.00    +0.000 HD
ATOM     10  H   UNL     1      43.531   2.018  12.520  0.00  0.00    +0.000 HD
ENDBRANCH   7   8
ENDBRANCH   1   7
BRANCH   4  11
ATOM     11  C   UNL     1      46.036   7.869  12.881  0.00  0.00    +0.000 C 
BRANCH  11  12
ATOM     12  N   UNL     1      47.485   7.991  12.718  0.00  0.00    +0.000 N 
ATOM     13  C   UNL     1      48.378   6.973  12.961  0.00  0.00    +0.000 A 
ATOM     14  C   UNL     1      49.620   7.373  12.512  0.00  0.00    +0.000 A 
ATOM     15  C   UNL     1      49.478   8.675  11.960  0.00  0.00    +0.000 A 
ATOM     16  C   UNL     1      50.357   9.562  11.324  0.00  0.00    +0.000 A 
ATOM     17  N   UNL     1      49.923  10.761  10.866  0.00  0.00    +0.000 NA
ATOM     18  C   UNL     1      48.629  11.092  11.049  0.00  0.00    +0.000 A 
ATOM     19  C   UNL     1      47.681  10.294  11.674  0.00  0.00    +0.000 A 
ATOM     20  C   UNL     1      48.140   9.051  12.120  0.00  0.00    +0.000 A 
ENDBRANCH  11  12
ENDBRANCH   4  11
TORSDOF 4
ENDMDL
MODEL 8
REMARK VINA RESULT:    -5.087      3.208      5.335
REMARK INTER + INTRA:          -6.708
REMARK INTER:                  -6.141
REMARK INTRA:                  -0.567
REMARK UNBOUND:                -0.580
REMARK  Name = 
REMARK  4 active torsions:
REMARK  status: ('A' for Active; 'I' for Inactive)
REMARK    1  A    between atoms: N_1  and  C_2
REMARK    2  A    between atoms: C_2  and  C_3
REMARK    3  A    between atoms: C_6  and  C_7
REMARK    4  A    between atoms: C_7  and  N_8
REMARK                            x       y       z     vdW  Elec       q    Type
REMARK                         _______ _______ _______ _____ _____    ______ ____
ROOT
ATOM      1  C   UNL     1      44.452   4.197  11.226  0.00  0.00    +0.000 A 
ATOM      2  C   UNL     1      44.162   4.601  12.536  0.00  0.00    +0.000 A 
ATOM      3  C   UNL     1      44.628   5.822  13.030  0.00  0.00    +0.000 A 
ATOM      4  C   UNL     1      45.420   6.659  12.232  0.00  0.00    +0.000 A 
ATOM      5  C   UNL     1      45.711   6.254  10.922  0.00  0.00    +0.000 A 
ATOM      6  C   UNL     1      45.229   5.040  10.423  0.00  0.00    +0.000 A 
ENDROOT
BRANCH   1   7
ATOM      7  C   UNL     1      43.961   2.868  10.709  0.00  0.00    +0.000 C 
BRANCH   7   8
ATOM      8  N   UNL     1      43.049   2.224  11.648  0.00  0.00    +0.000 NA
ATOM      9  H   UNL     1      43.526   2.087  12.535  0.00  0.00    +0.000 HD
ATOM     10  H   UNL     1      42.820   1.295  11.296  0.00  0.00    +0.000 HD
ENDBRANCH   7   8
ENDBRANCH   1   7
BRANCH   4  11
ATOM     11  C   UNL     1      45.942   7.973  12.757  0.00  0.00    +0.000 C 
BRANCH  11  12
ATOM     12  N   UNL     1      47.403   8.041  12.774  0.00  0.00    +0.000 N 
ATOM     13  C   UNL     1      48.151   8.819  11.921  0.00  0.00    +0.000 A 
ATOM     14  C   UNL     1      49.462   8.793  12.351  0.00  0.00    +0.000 A 
ATOM     15  C   UNL     1      49.514   7.985  13.519  0.00  0.00    +0.000 A 
ATOM     16  C   UNL     1      50.537   7.630  14.409  0.00  0.00    +0.000 A 
ATOM     17  N   UNL     1      50.281   6.841  15.481  0.00  0.00    +0.000 NA
ATOM     18  C   UNL     1      49.023   6.390  15.666  0.00  0.00    +0.000 A 
ATOM     19  C   UNL     1      47.945   6.673  14.840  0.00  0.00    +0.000 A 
ATOM     20  C   UNL     1      48.221   7.507  13.753  0.00  0.00    +0.000 A 
ENDBRANCH  11  12
ENDBRANCH   4  11
TORSDOF 4
ENDMDL
MODEL 9
REMARK VINA RESULT:    -5.039      4.591      7.701
REMARK INTER + INTRA:          -6.649
REMARK INTER:                  -6.089
REMARK INTRA:                  -0.561
REMARK UNBOUND:                -0.580
REMARK  Name = 
REMARK  4 active torsions:
REMARK  status: ('A' for Active; 'I' for Inactive)
REMARK    1  A    between atoms: N_1  and  C_2
REMARK    2  A    between atoms: C_2  and  C_3
REMARK    3  A    between atoms: C_6  and  C_7
REMARK    4  A    between atoms: C_7  and  N_8
REMARK                            x       y       z     vdW  Elec       q    Type
REMARK                         _______ _______ _______ _____ _____    ______ ____
ROOT
ATOM      1  C   UNL     1      50.863   2.390  17.366  0.00  0.00    +0.000 A 
ATOM      2  C   UNL     1      50.769   3.746  17.706  0.00  0.00    +0.000 A 
ATOM      3  C   UNL     1      49.621   4.484  17.402  0.00  0.00    +0.000 A 
ATOM      4  C   UNL     1      48.548   3.888  16.725  0.00  0.00    +0.000 A 
ATOM      5  C   UNL     1      48.643   2.531  16.384  0.00  0.00    +0.000 A 
ATOM      6  C   UNL     1      49.785   1.790  16.705  0.00  0.00    +0.000 A 
ENDROOT
BRANCH   1   7
ATOM      7  C   UNL     1      52.114   1.608  17.681  0.00  0.00    +0.000 C 
BRANCH   7   8
ATOM      8  N   UNL     1      51.809   0.251  18.121  0.00  0.00    +0.000 NA
ATOM      9  H   UNL     1      51.142   0.292  18.888  0.00  0.00    +0.000 HD
ATOM     10  H   UNL     1      52.657  -0.170  18.497  0.00  0.00    +0.000 HD
ENDBRANCH   7   8
ENDBRANCH   1   7
BRANCH   4  11
ATOM     11  C   UNL     1      47.310   4.675  16.377  0.00  0.00    +0.000 C 
BRANCH  11  12
ATOM     12  N   UNL     1      47.180   4.932  14.944  0.00  0.00    +0.000 N 
ATOM     13  C   UNL     1      46.271   4.303  14.124  0.00  0.00    +0.000 A 
ATOM     14  C   UNL     1      46.292   4.930  12.896  0.00  0.00    +0.000 A 
ATOM     15  C   UNL     1      47.234   5.992  12.971  0.00  0.00    +0.000 A 
ATOM     16  C   UNL     1      47.650   6.986  12.076  0.00  0.00    +0.000 A 
ATOM     17  N   UNL     1      48.576   7.906  12.443  0.00  0.00    +0.000 NA
ATOM     18  C   UNL     1      49.101   7.837  13.683  0.00  0.00    +0.000 A 
ATOM     19  C   UNL     1      48.766   6.887  14.638  0.00  0.00    +0.000 A 
ATOM     20  C   UNL     1      47.794   5.960  14.253  0.00  0.00    +0.000 A 
ENDBRANCH  11  12
ENDBRANCH   4  11
TORSDOF 4
ENDMDL
