MODEL 1
REMARK VINA RESULT:    -8.563      0.000      0.000
REMARK INTER + INTRA:         -13.003
REMARK INTER:                 -11.817
REMARK INTRA:                  -1.186
REMARK UNBOUND:                -1.186
REMARK  Name = 
REMARK  8 active torsions:
REMARK  status: ('A' for Active; 'I' for Inactive)
REMARK    1  A    between atoms: C_1  and  C_2
REMARK    2  A    between atoms: C_2  and  C_3
REMARK    3  A    between atoms: C_7  and  C_8
REMARK    4  A    between atoms: C_8  and  C_9
REMARK    5  A    between atoms: C_9  and  N_10
REMARK    6  A    between atoms: N_10  and  C_11
REMARK    7  A    between atoms: C_14  and  C_15
REMARK    8  A    between atoms: C_23  and  O_24
REMARK                            x       y       z     vdW  Elec       q    Type
REMARK                         _______ _______ _______ _____ _____    ______ ____
ROOT
ATOM      1  C   UNL     1      43.214   5.043  12.438  0.00  0.00    +0.000 C 
ENDROOT
BRANCH   1   6
ATOM      2  C   UNL     1      46.529   6.880  13.009  0.00  0.00    +0.000 A 
ATOM      3  C   UNL     1      47.316   5.820  13.490  0.00  0.00    +0.000 A 
ATOM      4  C   UNL     1      46.806   4.522  13.577  0.00  0.00    +0.000 A 
ATOM      5  C   UNL     1      45.492   4.258  13.204  0.00  0.00    +0.000 A 
ATOM      6  C   UNL     1      44.672   5.294  12.748  0.00  0.00    +0.000 A 
ATOM      7  C   UNL     1      45.196   6.596  12.664  0.00  0.00    +0.000 A 
BRANCH   2   9
ATOM      8  C   UNL     1      45.907   9.239  12.578  0.00  0.00    +0.000 C 
ATOM      9  C   UNL     1      47.087   8.308  12.923  0.00  0.00    +0.000 C 
ATOM     10  C   UNL     1      48.215   8.466  11.871  0.00  0.00    +0.000 C 
ATOM     11  C   UNL     1      49.264   9.429  12.433  0.00  0.00    +0.000 C 
ATOM     12  C   UNL     1      48.822   9.793  13.842  0.00  0.00    +0.000 C 
ATOM     13  C   UNL     1      47.788   8.747  14.231  0.00  0.00    +0.000 C 
BRANCH  12  14
ATOM     14  O   UNL     1      48.271  11.101  13.905  0.00  0.00    +0.000 OA
ATOM     15  H   UNL     1      48.025  11.302  14.822  0.00  0.00    +0.000 HD
ENDBRANCH  12  14
ENDBRANCH   2   9
ENDBRANCH   1   6
BRANCH   1  16
ATOM     16  C   UNL     1      43.090   4.180  11.179  0.00  0.00    +0.000 C 
BRANCH  16  17
ATOM     17  N   UNL     1      43.718   4.824  10.019  0.00  0.00    +0.000 N 
ATOM     18  H   UNL     1      44.164   5.707  10.262  0.00  0.00    +0.000 HD
BRANCH  17  19
ATOM     19  C   UNL     1      44.577   4.015   9.249  0.00  0.00    +0.000 A 
ATOM     20  C   UNL     1      45.535   4.538   8.374  0.00  0.00    +0.000 A 
ATOM     21  C   UNL     1      46.404   3.706   7.662  0.00  0.00    +0.000 A 
ATOM     22  C   UNL     1      46.362   2.323   7.843  0.00  0.00    +0.000 A 
ATOM     23  C   UNL     1      45.441   1.782   8.744  0.00  0.00    +0.000 A 
ATOM     24  C   UNL     1      44.571   2.625   9.452  0.00  0.00    +0.000 A 
BRANCH  22  25
ATOM     25  C   UNL     1      47.307   1.491   7.055  0.00  0.00    +0.000 C 
ATOM     26  N   UNL     1      48.393   2.113   6.508  0.00  0.00    +0.000 N 
ATOM     27  O   UNL     1      47.104   0.299   6.857  0.00  0.00    +0.000 OA
ATOM     28  H   UNL     1      48.452   3.117   6.422  0.00  0.00    +0.000 HD
ATOM     29  H   UNL     1      48.942   1.553   5.866  0.00  0.00    +0.000 HD
ENDBRANCH  22  25
ENDBRANCH  17  19
ENDBRANCH  16  17
ENDBRANCH   1  16
TORSDOF 7
ENDMDL
MODEL 2
REMARK VINA RESULT:    -7.959      3.020      4.164
REMARK INTER + INTRA:         -12.170
REMARK INTER:                 -11.224
REMARK INTRA:                  -0.946
REMARK UNBOUND:                -1.186
REMARK  Name = 
REMARK  8 active torsions:
REMARK  status: ('A' for Active; 'I' for Inactive)
REMARK    1  A    between atoms: C_1  and  C_2
REMARK    2  A    between atoms: C_2  and  C_3
REMARK    3  A    between atoms: C_7  and  C_8
REMARK    4  A    between atoms: C_8  and  C_9
REMARK    5  A    between atoms: C_9  and  N_10
REMARK    6  A    between atoms: N_10  and  C_11
REMARK    7  A    between atoms: C_14  and  C_15
REMARK    8  A    between atoms: C_23  and  O_24
REMARK                            x       y       z     vdW  Elec       q    Type
REMARK                         _______ _______ _______ _____ _____    ______ ____
ROOT
ATOM      1  C   UNL     1      45.275   3.661  12.501  0.00  0.00    +0.000 C 
ENDROOT
BRANCH   1   6
ATOM      2  C   UNL     1      47.606   4.873  15.293  0.00  0.00    +0.000 A 
ATOM      3  C   UNL     1      48.077   6.064  14.717  0.00  0.00    +0.000 A 
ATOM      4  C   UNL     1      47.612   6.501  13.475  0.00  0.00    +0.000 A 
ATOM      5  C   UNL     1      46.679   5.746  12.770  0.00  0.00    +0.000 A 
ATOM      6  C   UNL     1      46.209   4.542  13.300  0.00  0.00    +0.000 A 
ATOM      7  C   UNL     1      46.684   4.112  14.552  0.00  0.00    +0.000 A 
BRANCH   2   9
ATOM      8  C   UNL     1      48.280   2.855  16.565  0.00  0.00    +0.000 C 
ATOM      9  C   UNL     1      48.125   4.388  16.654  0.00  0.00    +0.000 C 
ATOM     10  C   UNL     1      47.194   4.761  17.837  0.00  0.00    +0.000 C 
ATOM     11  C   UNL     1      48.068   5.128  19.039  0.00  0.00    +0.000 C 
ATOM     12  C   UNL     1      49.514   5.057  18.573  0.00  0.00    +0.000 C 
ATOM     13  C   UNL     1      49.457   5.067  17.052  0.00  0.00    +0.000 C 
BRANCH  12  14
ATOM     14  O   UNL     1      50.170   3.891  19.050  0.00  0.00    +0.000 OA
ATOM     15  H   UNL     1      51.004   3.771  18.570  0.00  0.00    +0.000 HD
ENDBRANCH  12  14
ENDBRANCH   2   9
ENDBRANCH   1   6
BRANCH   1  16
ATOM     16  C   UNL     1      44.260   4.525  11.749  0.00  0.00    +0.000 C 
BRANCH  16  17
ATOM     17  N   UNL     1      43.740   3.837  10.561  0.00  0.00    +0.000 N 
ATOM     18  H   UNL     1      42.963   4.337  10.133  0.00  0.00    +0.000 HD
BRANCH  17  19
ATOM     19  C   UNL     1      44.694   3.457   9.596  0.00  0.00    +0.000 A 
ATOM     20  C   UNL     1      45.004   2.122   9.316  0.00  0.00    +0.000 A 
ATOM     21  C   UNL     1      45.921   1.780   8.317  0.00  0.00    +0.000 A 
ATOM     22  C   UNL     1      46.521   2.772   7.542  0.00  0.00    +0.000 A 
ATOM     23  C   UNL     1      46.193   4.111   7.776  0.00  0.00    +0.000 A 
ATOM     24  C   UNL     1      45.274   4.444   8.783  0.00  0.00    +0.000 A 
BRANCH  22  25
ATOM     25  C   UNL     1      47.490   2.349   6.498  0.00  0.00    +0.000 C 
ATOM     26  N   UNL     1      47.495   3.041   5.321  0.00  0.00    +0.000 N 
ATOM     27  O   UNL     1      48.228   1.384   6.659  0.00  0.00    +0.000 OA
ATOM     28  H   UNL     1      46.738   3.653   5.053  0.00  0.00    +0.000 HD
ATOM     29  H   UNL     1      48.065   2.646   4.583  0.00  0.00    +0.000 HD
ENDBRANCH  22  25
ENDBRANCH  17  19
ENDBRANCH  16  17
ENDBRANCH   1  16
TORSDOF 7
ENDMDL
MODEL 3
REMARK VINA RESULT:    -7.921      1.576      2.673
REMARK INTER + INTRA:         -12.117
REMARK INTER:                 -11.159
REMARK INTRA:                  -0.958
REMARK UNBOUND:                -1.186
REMARK  Name = 
REMARK  8 active torsions:
REMARK  status: ('A' for Active; 'I' for Inactive)
REMARK    1  A    between atoms: C_1  and  C_2
REMARK    2  A    between atoms: C_2  and  C_3
REMARK    3  A    between atoms: C_7  and  C_8
REMARK    4  A    between atoms: C_8  and  C_9
REMARK    5  A    between atoms: C_9  and  N_10
REMARK    6  A    between atoms: N_10  and  C_11
REMARK    7  A    between atoms: C_14  and  C_15
REMARK    8  A    between atoms: C_23  and  O_24
REMARK                            x       y       z     vdW  Elec       q    Type
REMARK                         _______ _______ _______ _____ _____    ______ ____
ROOT
ATOM      1  C   UNL     1      45.469   4.925  11.830  0.00  0.00    +0.000 C 
ENDROOT
BRANCH   1   6
ATOM      2  C   UNL     1      47.744   7.980  12.258  0.00  0.00    +0.000 A 
ATOM      3  C   UNL     1      46.780   9.002  12.266  0.00  0.00    +0.000 A 
ATOM      4  C   UNL     1      45.416   8.712  12.190  0.00  0.00    +0.000 A 
ATOM      5  C   UNL     1      44.985   7.393  12.085  0.00  0.00    +0.000 A 
ATOM      6  C   UNL     1      45.916   6.352  12.047  0.00  0.00    +0.000 A 
ATOM      7  C   UNL     1      47.287   6.657  12.124  0.00  0.00    +0.000 A 
BRANCH   2   9
ATOM      8  C   UNL     1      49.677   8.127  13.802  0.00  0.00    +0.000 C 
ATOM      9  C   UNL     1      49.244   8.301  12.331  0.00  0.00    +0.000 C 
ATOM     10  C   UNL     1      49.593   9.729  11.838  0.00  0.00    +0.000 C 
ATOM     11  C   UNL     1      50.919   9.663  11.075  0.00  0.00    +0.000 C 
ATOM     12  C   UNL     1      51.334   8.200  11.035  0.00  0.00    +0.000 C 
ATOM     13  C   UNL     1      50.083   7.408  11.387  0.00  0.00    +0.000 C 
BRANCH  12  14
ATOM     14  O   UNL     1      52.386   7.921  11.948  0.00  0.00    +0.000 OA
ATOM     15  H   UNL     1      53.061   7.382  11.506  0.00  0.00    +0.000 HD
ENDBRANCH  12  14
ENDBRANCH   2   9
ENDBRANCH   1   6
BRANCH   1  16
ATOM     16  C   UNL     1      43.979   4.894  11.477  0.00  0.00    +0.000 C 
BRANCH  16  17
ATOM     17  N   UNL     1      43.770   4.781  10.029  0.00  0.00    +0.000 N 
ATOM     18  H   UNL     1      43.687   5.691   9.578  0.00  0.00    +0.000 HD
BRANCH  17  19
ATOM     19  C   UNL     1      44.669   3.949   9.334  0.00  0.00    +0.000 A 
ATOM     20  C   UNL     1      44.654   2.554   9.442  0.00  0.00    +0.000 A 
ATOM     21  C   UNL     1      45.530   1.756   8.700  0.00  0.00    +0.000 A 
ATOM     22  C   UNL     1      46.418   2.337   7.795  0.00  0.00    +0.000 A 
ATOM     23  C   UNL     1      46.421   3.726   7.640  0.00  0.00    +0.000 A 
ATOM     24  C   UNL     1      45.540   4.519   8.391  0.00  0.00    +0.000 A 
BRANCH  22  25
ATOM     25  C   UNL     1      47.327   1.438   7.038  0.00  0.00    +0.000 C 
ATOM     26  N   UNL     1      48.374   2.011   6.374  0.00  0.00    +0.000 N 
ATOM     27  O   UNL     1      47.126   0.231   6.966  0.00  0.00    +0.000 OA
ATOM     28  H   UNL     1      48.417   3.002   6.190  0.00  0.00    +0.000 HD
ATOM     29  H   UNL     1      48.892   1.394   5.759  0.00  0.00    +0.000 HD
ENDBRANCH  22  25
ENDBRANCH  17  19
ENDBRANCH  16  17
ENDBRANCH   1  16
TORSDOF 7
ENDMDL
MODEL 4
REMARK VINA RESULT:    -7.586      2.337      3.216
REMARK INTER + INTRA:         -11.655
REMARK INTER:                 -10.613
REMARK INTRA:                  -1.042
REMARK UNBOUND:                -1.186
REMARK  Name = 
REMARK  8 active torsions:
REMARK  status: ('A' for Active; 'I' for Inactive)
REMARK    1  A    between atoms: C_1  and  C_2
REMARK    2  A    between atoms: C_2  and  C_3
REMARK    3  A    between atoms: C_7  and  C_8
REMARK    4  A    between atoms: C_8  and  C_9
REMARK    5  A    between atoms: C_9  and  N_10
REMARK    6  A    between atoms: N_10  and  C_11
REMARK    7  A    between atoms: C_14  and  C_15
REMARK    8  A    between atoms: C_23  and  O_24
REMARK                            x       y       z     vdW  Elec       q    Type
REMARK                         _______ _______ _______ _____ _____    ______ ____
ROOT
ATOM      1  C   UNL     1      45.628   5.154  12.230  0.00  0.00    +0.000 C 
ENDROOT
BRANCH   1   6
ATOM      2  C   UNL     1      48.434   7.023  14.053  0.00  0.00    +0.000 A 
ATOM      3  C   UNL     1      48.999   7.727  12.977  0.00  0.00    +0.000 A 
ATOM      4  C   UNL     1      48.453   7.646  11.693  0.00  0.00    +0.000 A 
ATOM      5  C   UNL     1      47.341   6.844  11.453  0.00  0.00    +0.000 A 
ATOM      6  C   UNL     1      46.770   6.109  12.495  0.00  0.00    +0.000 A 
ATOM      7  C   UNL     1      47.328   6.198  13.783  0.00  0.00    +0.000 A 
BRANCH   2   9
ATOM      8  C   UNL     1      48.545   8.420  16.098  0.00  0.00    +0.000 C 
ATOM      9  C   UNL     1      49.041   7.105  15.461  0.00  0.00    +0.000 C 
ATOM     10  C   UNL     1      50.591   7.061  15.468  0.00  0.00    +0.000 C 
ATOM     11  C   UNL     1      51.044   6.240  16.678  0.00  0.00    +0.000 C 
ATOM     12  C   UNL     1      49.785   5.722  17.357  0.00  0.00    +0.000 C 
ATOM     13  C   UNL     1      48.670   5.882  16.334  0.00  0.00    +0.000 C 
BRANCH  12  14
ATOM     14  O   UNL     1      49.490   6.439  18.547  0.00  0.00    +0.000 OA
ATOM     15  H   UNL     1      48.783   7.079  18.370  0.00  0.00    +0.000 HD
ENDBRANCH  12  14
ENDBRANCH   2   9
ENDBRANCH   1   6
BRANCH   1  16
ATOM     16  C   UNL     1      44.712   5.728  11.145  0.00  0.00    +0.000 C 
BRANCH  16  17
ATOM     17  N   UNL     1      44.068   4.665  10.365  0.00  0.00    +0.000 N 
ATOM     18  H   UNL     1      43.243   4.996   9.867  0.00  0.00    +0.000 HD
BRANCH  17  19
ATOM     19  C   UNL     1      44.910   3.920   9.517  0.00  0.00    +0.000 A 
ATOM     20  C   UNL     1      44.916   2.521   9.487  0.00  0.00    +0.000 A 
ATOM     21  C   UNL     1      45.730   1.814   8.597  0.00  0.00    +0.000 A 
ATOM     22  C   UNL     1      46.532   2.496   7.681  0.00  0.00    +0.000 A 
ATOM     23  C   UNL     1      46.509   3.894   7.665  0.00  0.00    +0.000 A 
ATOM     24  C   UNL     1      45.690   4.594   8.564  0.00  0.00    +0.000 A 
BRANCH  22  25
ATOM     25  C   UNL     1      47.379   1.691   6.764  0.00  0.00    +0.000 C 
ATOM     26  N   UNL     1      48.386   2.335   6.104  0.00  0.00    +0.000 N 
ATOM     27  O   UNL     1      47.160   0.502   6.562  0.00  0.00    +0.000 OA
ATOM     28  H   UNL     1      48.428   3.342   6.036  0.00  0.00    +0.000 HD
ATOM     29  H   UNL     1      48.855   1.796   5.386  0.00  0.00    +0.000 HD
ENDBRANCH  22  25
ENDBRANCH  17  19
ENDBRANCH  16  17
ENDBRANCH   1  16
TORSDOF 7
ENDMDL
MODEL 5
REMARK VINA RESULT:    -6.978      5.027      8.036
REMARK INTER + INTRA:         -10.816
REMARK INTER:                  -9.881
REMARK INTRA:                  -0.936
REMARK UNBOUND:                -1.186
REMARK  Name = 
REMARK  8 active torsions:
REMARK  status: ('A' for Active; 'I' for Inactive)
REMARK    1  A    between atoms: C_1  and  C_2
REMARK    2  A    between atoms: C_2  and  C_3
REMARK    3  A    between atoms: C_7  and  C_8
REMARK    4  A    between atoms: C_8  and  C_9
REMARK    5  A    between atoms: C_9  and  N_10
REMARK    6  A    between atoms: N_10  and  C_11
REMARK    7  A    between atoms: C_14  and  C_15
REMARK    8  A    between atoms: C_23  and  O_24
REMARK                            x       y       z     vdW  Elec       q    Type
REMARK                         _______ _______ _______ _____ _____    ______ ____
ROOT
ATOM      1  C   UNL     1      49.111   6.746  14.900  0.00  0.00    +0.000 C 
ENDROOT
BRANCH   1   6
ATOM      2  C   UNL     1      46.006   6.122  12.741  0.00  0.00    +0.000 A 
ATOM      3  C   UNL     1      45.537   7.438  12.602  0.00  0.00    +0.000 A 
ATOM      4  C   UNL     1      46.237   8.518  13.146  0.00  0.00    +0.000 A 
ATOM      5  C   UNL     1      47.413   8.303  13.859  0.00  0.00    +0.000 A 
ATOM      6  C   UNL     1      47.894   7.004  14.041  0.00  0.00    +0.000 A 
ATOM      7  C   UNL     1      47.181   5.925  13.488  0.00  0.00    +0.000 A 
BRANCH   2   9
ATOM      8  C   UNL     1      45.871   3.647  12.709  0.00  0.00    +0.000 C 
ATOM      9  C   UNL     1      45.230   4.935  12.151  0.00  0.00    +0.000 C 
ATOM     10  C   UNL     1      45.237   4.905  10.601  0.00  0.00    +0.000 C 
ATOM     11  C   UNL     1      43.862   4.429  10.123  0.00  0.00    +0.000 C 
ATOM     12  C   UNL     1      43.001   4.248  11.364  0.00  0.00    +0.000 C 
ATOM     13  C   UNL     1      43.718   4.999  12.476  0.00  0.00    +0.000 C 
BRANCH  12  14
ATOM     14  O   UNL     1      42.836   2.877  11.701  0.00  0.00    +0.000 OA
ATOM     15  H   UNL     1      41.895   2.692  11.842  0.00  0.00    +0.000 HD
ENDBRANCH  12  14
ENDBRANCH   2   9
ENDBRANCH   1   6
BRANCH   1  16
ATOM     16  C   UNL     1      48.739   6.867  16.380  0.00  0.00    +0.000 C 
BRANCH  16  17
ATOM     17  N   UNL     1      48.174   5.616  16.899  0.00  0.00    +0.000 N 
ATOM     18  H   UNL     1      47.372   5.299  16.356  0.00  0.00    +0.000 HD
BRANCH  17  19
ATOM     19  C   UNL     1      49.087   4.566  17.118  0.00  0.00    +0.000 A 
ATOM     20  C   UNL     1      48.781   3.224  16.863  0.00  0.00    +0.000 A 
ATOM     21  C   UNL     1      49.729   2.213  17.045  0.00  0.00    +0.000 A 
ATOM     22  C   UNL     1      51.027   2.527  17.449  0.00  0.00    +0.000 A 
ATOM     23  C   UNL     1      51.366   3.865  17.668  0.00  0.00    +0.000 A 
ATOM     24  C   UNL     1      50.407   4.874  17.486  0.00  0.00    +0.000 A 
BRANCH  22  25
ATOM     25  C   UNL     1      51.988   1.409  17.630  0.00  0.00    +0.000 C 
ATOM     26  N   UNL     1      51.504   0.234  18.129  0.00  0.00    +0.000 N 
ATOM     27  O   UNL     1      53.182   1.542  17.389  0.00  0.00    +0.000 OA
ATOM     28  H   UNL     1      50.604   0.171  18.583  0.00  0.00    +0.000 HD
ATOM     29  H   UNL     1      52.202  -0.460  18.370  0.00  0.00    +0.000 HD
ENDBRANCH  22  25
ENDBRANCH  17  19
ENDBRANCH  16  17
ENDBRANCH   1  16
TORSDOF 7
ENDMDL
MODEL 6
REMARK VINA RESULT:    -6.940      3.845      7.577
REMARK INTER + INTRA:         -10.763
REMARK INTER:                  -9.219
REMARK INTRA:                  -1.544
REMARK UNBOUND:                -1.186
REMARK  Name = 
REMARK  8 active torsions:
REMARK  status: ('A' for Active; 'I' for Inactive)
REMARK    1  A    between atoms: C_1  and  C_2
REMARK    2  A    between atoms: C_2  and  C_3
REMARK    3  A    between atoms: C_7  and  C_8
REMARK    4  A    between atoms: C_8  and  C_9
REMARK    5  A    between atoms: C_9  and  N_10
REMARK    6  A    between atoms: N_10  and  C_11
REMARK    7  A    between atoms: C_14  and  C_15
REMARK    8  A    between atoms: C_23  and  O_24
REMARK                            x       y       z     vdW  Elec       q    Type
REMARK                         _______ _______ _______ _____ _____    ______ ____
ROOT
ATOM      1  C   UNL     1      49.161   8.309  11.973  0.00  0.00    +0.000 C 
ENDROOT
BRANCH   1   6
ATOM      2  C   UNL     1      45.685   6.754  11.539  0.00  0.00    +0.000 A 
ATOM      3  C   UNL     1      44.891   7.773  12.090  0.00  0.00    +0.000 A 
ATOM      4  C   UNL     1      45.458   8.967  12.543  0.00  0.00    +0.000 A 
ATOM      5  C   UNL     1      46.835   9.160  12.474  0.00  0.00    +0.000 A 
ATOM      6  C   UNL     1      47.658   8.156  11.958  0.00  0.00    +0.000 A 
ATOM      7  C   UNL     1      47.076   6.959  11.504  0.00  0.00    +0.000 A 
BRANCH   2   9
ATOM      8  C   UNL     1      45.587   5.187   9.621  0.00  0.00    +0.000 C 
ATOM      9  C   UNL     1      45.062   5.438  11.050  0.00  0.00    +0.000 C 
ATOM     10  C   UNL     1      43.512   5.452  11.053  0.00  0.00    +0.000 C 
ATOM     11  C   UNL     1      43.020   4.070  11.489  0.00  0.00    +0.000 C 
ATOM     12  C   UNL     1      44.254   3.246  11.824  0.00  0.00    +0.000 C 
ATOM     13  C   UNL     1      45.386   4.249  11.986  0.00  0.00    +0.000 C 
BRANCH  12  14
ATOM     14  O   UNL     1      44.553   2.300  10.808  0.00  0.00    +0.000 OA
ATOM     15  H   UNL     1      45.224   1.679  11.134  0.00  0.00    +0.000 HD
ENDBRANCH  12  14
ENDBRANCH   2   9
ENDBRANCH   1   6
BRANCH   1  16
ATOM     16  C   UNL     1      49.772   7.350  12.998  0.00  0.00    +0.000 C 
BRANCH  16  17
ATOM     17  N   UNL     1      49.433   7.741  14.372  0.00  0.00    +0.000 N 
ATOM     18  H   UNL     1      48.839   8.568  14.402  0.00  0.00    +0.000 HD
BRANCH  17  19
ATOM     19  C   UNL     1      48.927   6.721  15.201  0.00  0.00    +0.000 A 
ATOM     20  C   UNL     1      47.946   5.815  14.782  0.00  0.00    +0.000 A 
ATOM     21  C   UNL     1      47.502   4.784  15.615  0.00  0.00    +0.000 A 
ATOM     22  C   UNL     1      48.065   4.607  16.879  0.00  0.00    +0.000 A 
ATOM     23  C   UNL     1      49.078   5.474  17.301  0.00  0.00    +0.000 A 
ATOM     24  C   UNL     1      49.514   6.509  16.459  0.00  0.00    +0.000 A 
BRANCH  22  25
ATOM     25  C   UNL     1      47.550   3.497  17.721  0.00  0.00    +0.000 C 
ATOM     26  N   UNL     1      48.297   3.123  18.801  0.00  0.00    +0.000 N 
ATOM     27  O   UNL     1      46.519   2.899  17.437  0.00  0.00    +0.000 OA
ATOM     28  H   UNL     1      49.262   3.400  18.911  0.00  0.00    +0.000 HD
ATOM     29  H   UNL     1      47.994   2.279  19.272  0.00  0.00    +0.000 HD
ENDBRANCH  22  25
ENDBRANCH  17  19
ENDBRANCH  16  17
ENDBRANCH   1  16
TORSDOF 7
ENDMDL
MODEL 7
REMARK VINA RESULT:    -6.823      3.782      6.125
REMARK INTER + INTRA:         -10.602
REMARK INTER:                  -9.255
REMARK INTRA:                  -1.347
REMARK UNBOUND:                -1.186
REMARK  Name = 
REMARK  8 active torsions:
REMARK  status: ('A' for Active; 'I' for Inactive)
REMARK    1  A    between atoms: C_1  and  C_2
REMARK    2  A    between atoms: C_2  and  C_3
REMARK    3  A    between atoms: C_7  and  C_8
REMARK    4  A    between atoms: C_8  and  C_9
REMARK    5  A    between atoms: C_9  and  N_10
REMARK    6  A    between atoms: N_10  and  C_11
REMARK    7  A    between atoms: C_14  and  C_15
REMARK    8  A    between atoms: C_23  and  O_24
REMARK                            x       y       z     vdW  Elec       q    Type
REMARK                         _______ _______ _______ _____ _____    ______ ____
ROOT
ATOM      1  C   UNL     1      49.924   8.034  13.542  0.00  0.00    +0.000 C 
ENDROOT
BRANCH   1   6
ATOM      2  C   UNL     1      48.689   6.669  16.904  0.00  0.00    +0.000 A 
ATOM      3  C   UNL     1      48.794   7.827  17.691  0.00  0.00    +0.000 A 
ATOM      4  C   UNL     1      49.202   9.044  17.139  0.00  0.00    +0.000 A 
ATOM      5  C   UNL     1      49.534   9.125  15.789  0.00  0.00    +0.000 A 
ATOM      6  C   UNL     1      49.468   7.986  14.982  0.00  0.00    +0.000 A 
ATOM      7  C   UNL     1      49.055   6.767  15.550  0.00  0.00    +0.000 A 
BRANCH   2   9
ATOM      8  C   UNL     1      47.383   5.653  18.749  0.00  0.00    +0.000 C 
ATOM      9  C   UNL     1      48.250   5.330  17.514  0.00  0.00    +0.000 C 
ATOM     10  C   UNL     1      49.438   4.420  17.921  0.00  0.00    +0.000 C 
ATOM     11  C   UNL     1      49.063   2.970  17.604  0.00  0.00    +0.000 C 
ATOM     12  C   UNL     1      47.695   3.002  16.938  0.00  0.00    +0.000 C 
ATOM     13  C   UNL     1      47.484   4.445  16.503  0.00  0.00    +0.000 C 
BRANCH  12  14
ATOM     14  O   UNL     1      46.665   2.580  17.820  0.00  0.00    +0.000 OA
ATOM     15  H   UNL     1      46.895   1.716  18.194  0.00  0.00    +0.000 HD
ENDBRANCH  12  14
ENDBRANCH   2   9
ENDBRANCH   1   6
BRANCH   1  16
ATOM     16  C   UNL     1      49.202   6.955  12.731  0.00  0.00    +0.000 C 
BRANCH  16  17
ATOM     17  N   UNL     1      47.891   7.419  12.262  0.00  0.00    +0.000 N 
ATOM     18  H   UNL     1      47.963   8.015  11.440  0.00  0.00    +0.000 HD
BRANCH  17  19
ATOM     19  C   UNL     1      46.908   6.425  12.085  0.00  0.00    +0.000 A 
ATOM     20  C   UNL     1      46.183   6.274  10.898  0.00  0.00    +0.000 A 
ATOM     21  C   UNL     1      45.248   5.246  10.740  0.00  0.00    +0.000 A 
ATOM     22  C   UNL     1      45.048   4.313  11.758  0.00  0.00    +0.000 A 
ATOM     23  C   UNL     1      45.793   4.420  12.937  0.00  0.00    +0.000 A 
ATOM     24  C   UNL     1      46.726   5.458  13.087  0.00  0.00    +0.000 A 
BRANCH  22  25
ATOM     25  C   UNL     1      44.039   3.246  11.534  0.00  0.00    +0.000 C 
ATOM     26  N   UNL     1      43.718   2.447  12.594  0.00  0.00    +0.000 N 
ATOM     27  O   UNL     1      43.543   3.050  10.431  0.00  0.00    +0.000 OA
ATOM     28  H   UNL     1      44.288   2.401  13.427  0.00  0.00    +0.000 HD
ATOM     29  H   UNL     1      43.136   1.646  12.379  0.00  0.00    +0.000 HD
ENDBRANCH  22  25
ENDBRANCH  17  19
ENDBRANCH  16  17
ENDBRANCH   1  16
TORSDOF 7
ENDMDL
MODEL 8
REMARK VINA RESULT:    -6.397      1.426      2.257
REMARK INTER + INTRA:         -10.014
REMARK INTER:                  -9.234
REMARK INTRA:                  -0.780
REMARK UNBOUND:                -1.186
REMARK  Name = 
REMARK  8 active torsions:
REMARK  status: ('A' for Active; 'I' for Inactive)
REMARK    1  A    between atoms: C_1  and  C_2
REMARK    2  A    between atoms: C_2  and  C_3
REMARK    3  A    between atoms: C_7  and  C_8
REMARK    4  A    between atoms: C_8  and  C_9
REMARK    5  A    between atoms: C_9  and  N_10
REMARK    6  A    between atoms: N_10  and  C_11
REMARK    7  A    between atoms: C_14  and  C_15
REMARK    8  A    between atoms: C_23  and  O_24
REMARK                            x       y       z     vdW  Elec       q    Type
REMARK                         _______ _______ _______ _____ _____    ______ ____
ROOT
ATOM      1  C   UNL     1      45.602   3.663  12.606  0.00  0.00    +0.000 C 
ENDROOT
BRANCH   1   6
ATOM      2  C   UNL     1      47.937   6.404  13.918  0.00  0.00    +0.000 A 
ATOM      3  C   UNL     1      48.152   5.937  15.225  0.00  0.00    +0.000 A 
ATOM      4  C   UNL     1      47.600   4.731  15.663  0.00  0.00    +0.000 A 
ATOM      5  C   UNL     1      46.804   3.973  14.808  0.00  0.00    +0.000 A 
ATOM      6  C   UNL     1      46.547   4.421  13.510  0.00  0.00    +0.000 A 
ATOM      7  C   UNL     1      47.108   5.637  13.081  0.00  0.00    +0.000 A 
BRANCH   2   9
ATOM      8  C   UNL     1      49.825   7.975  14.255  0.00  0.00    +0.000 C 
ATOM      9  C   UNL     1      48.536   7.736  13.442  0.00  0.00    +0.000 C 
ATOM     10  C   UNL     1      47.572   8.938  13.606  0.00  0.00    +0.000 C 
ATOM     11  C   UNL     1      47.747   9.864  12.399  0.00  0.00    +0.000 C 
ATOM     12  C   UNL     1      48.748   9.194  11.470  0.00  0.00    +0.000 C 
ATOM     13  C   UNL     1      48.820   7.743  11.921  0.00  0.00    +0.000 C 
BRANCH  12  14
ATOM     14  O   UNL     1      50.027   9.811  11.534  0.00  0.00    +0.000 OA
ATOM     15  H   UNL     1      50.707   9.166  11.285  0.00  0.00    +0.000 HD
ENDBRANCH  12  14
ENDBRANCH   2   9
ENDBRANCH   1   6
BRANCH   1  16
ATOM     16  C   UNL     1      44.254   4.385  12.539  0.00  0.00    +0.000 C 
BRANCH  16  17
ATOM     17  N   UNL     1      43.911   4.762  11.163  0.00  0.00    +0.000 N 
ATOM     18  H   UNL     1      43.922   5.771  11.024  0.00  0.00    +0.000 HD
BRANCH  17  19
ATOM     19  C   UNL     1      44.621   4.099  10.142  0.00  0.00    +0.000 A 
ATOM     20  C   UNL     1      44.510   2.725   9.906  0.00  0.00    +0.000 A 
ATOM     21  C   UNL     1      45.192   2.108   8.853  0.00  0.00    +0.000 A 
ATOM     22  C   UNL     1      45.974   2.866   7.980  0.00  0.00    +0.000 A 
ATOM     23  C   UNL     1      46.065   4.248   8.172  0.00  0.00    +0.000 A 
ATOM     24  C   UNL     1      45.378   4.857   9.234  0.00  0.00    +0.000 A 
BRANCH  22  25
ATOM     25  C   UNL     1      46.678   2.155   6.882  0.00  0.00    +0.000 C 
ATOM     26  N   UNL     1      47.165   0.907   7.148  0.00  0.00    +0.000 N 
ATOM     27  O   UNL     1      46.864   2.678   5.790  0.00  0.00    +0.000 OA
ATOM     28  H   UNL     1      47.269   0.558   8.090  0.00  0.00    +0.000 HD
ATOM     29  H   UNL     1      47.757   0.505   6.430  0.00  0.00    +0.000 HD
ENDBRANCH  22  25
ENDBRANCH  17  19
ENDBRANCH  16  17
ENDBRANCH   1  16
TORSDOF 7
ENDMDL
MODEL 9
REMARK VINA RESULT:    -6.113      5.973      8.700
REMARK INTER + INTRA:          -9.622
REMARK INTER:                  -8.884
REMARK INTRA:                  -0.738
REMARK UNBOUND:                -1.186
REMARK  Name = 
REMARK  8 active torsions:
REMARK  status: ('A' for Active; 'I' for Inactive)
REMARK    1  A    between atoms: C_1  and  C_2
REMARK    2  A    between atoms: C_2  and  C_3
REMARK    3  A    between atoms: C_7  and  C_8
REMARK    4  A    between atoms: C_8  and  C_9
REMARK    5  A    between atoms: C_9  and  N_10
REMARK    6  A    between atoms: N_10  and  C_11
REMARK    7  A    between atoms: C_14  and  C_15
REMARK    8  A    between atoms: C_23  and  O_24
REMARK                            x       y       z     vdW  Elec       q    Type
REMARK                         _______ _______ _______ _____ _____    ______ ____
ROOT
ATOM      1  C   UNL     1      47.146   4.039  16.226  0.00  0.00    +0.000 C 
ENDROOT
BRANCH   1   6
ATOM      2  C   UNL     1      46.126   5.148  12.701  0.00  0.00    +0.000 A 
ATOM      3  C   UNL     1      46.993   6.239  12.528  0.00  0.00    +0.000 A 
ATOM      4  C   UNL     1      47.931   6.581  13.506  0.00  0.00    +0.000 A 
ATOM      5  C   UNL     1      48.009   5.850  14.688  0.00  0.00    +0.000 A 
ATOM      6  C   UNL     1      47.143   4.776  14.906  0.00  0.00    +0.000 A 
ATOM      7  C   UNL     1      46.204   4.441  13.914  0.00  0.00    +0.000 A 
BRANCH   2   9
ATOM      8  C   UNL     1      43.782   5.518  11.986  0.00  0.00    +0.000 C 
ATOM      9  C   UNL     1      45.089   4.779  11.631  0.00  0.00    +0.000 C 
ATOM     10  C   UNL     1      44.828   3.254  11.526  0.00  0.00    +0.000 C 
ATOM     11  C   UNL     1      44.635   2.900  10.049  0.00  0.00    +0.000 C 
ATOM     12  C   UNL     1      44.854   4.178   9.255  0.00  0.00    +0.000 C 
ATOM     13  C   UNL     1      45.566   5.133  10.202  0.00  0.00    +0.000 C 
BRANCH  12  14
ATOM     14  O   UNL     1      43.631   4.735   8.795  0.00  0.00    +0.000 OA
ATOM     15  H   UNL     1      43.819   5.491   8.218  0.00  0.00    +0.000 HD
ENDBRANCH  12  14
ENDBRANCH   2   9
ENDBRANCH   1   6
BRANCH   1  16
ATOM     16  C   UNL     1      48.554   4.055  16.828  0.00  0.00    +0.000 C 
BRANCH  16  17
ATOM     17  N   UNL     1      49.069   2.696  17.033  0.00  0.00    +0.000 N 
ATOM     18  H   UNL     1      48.823   2.071  16.267  0.00  0.00    +0.000 HD
BRANCH  17  19
ATOM     19  C   UNL     1      50.436   2.592  17.356  0.00  0.00    +0.000 A 
ATOM     20  C   UNL     1      51.197   3.678  17.804  0.00  0.00    +0.000 A 
ATOM     21  C   UNL     1      52.540   3.528  18.163  0.00  0.00    +0.000 A 
ATOM     22  C   UNL     1      53.144   2.271  18.123  0.00  0.00    +0.000 A 
ATOM     23  C   UNL     1      52.390   1.166  17.719  0.00  0.00    +0.000 A 
ATOM     24  C   UNL     1      51.044   1.327  17.358  0.00  0.00    +0.000 A 
BRANCH  22  25
ATOM     25  C   UNL     1      54.575   2.175  18.512  0.00  0.00    +0.000 C 
ATOM     26  N   UNL     1      55.426   3.131  18.033  0.00  0.00    +0.000 N 
ATOM     27  O   UNL     1      54.996   1.251  19.196  0.00  0.00    +0.000 OA
ATOM     28  H   UNL     1      55.177   3.738  17.266  0.00  0.00    +0.000 HD
ATOM     29  H   UNL     1      56.411   2.963  18.200  0.00  0.00    +0.000 HD
ENDBRANCH  22  25
ENDBRANCH  17  19
ENDBRANCH  16  17
ENDBRANCH   1  16
TORSDOF 7
ENDMDL
