MODEL 1
REMARK VINA RESULT:    -8.950      0.000      0.000
REMARK INTER + INTRA:         -11.726
REMARK INTER:                 -11.043
REMARK INTRA:                  -0.684
REMARK UNBOUND:                -0.684
REMARK  Name = 
REMARK  4 active torsions:
REMARK  status: ('A' for Active; 'I' for Inactive)
REMARK    1  A    between atoms: C_2  and  C_4
REMARK    2  A    between atoms: N_8  and  C_9
REMARK    3  A    between atoms: C_9  and  C_10
REMARK    4  A    between atoms: C_14  and  N_15
REMARK                            x       y       z     vdW  Elec       q    Type
REMARK                         _______ _______ _______ _____ _____    ______ ____
ROOT
ATOM      1  C   UNL     1      46.427   2.275   7.700  0.00  0.00    +0.000 A 
ATOM      2  C   UNL     1      45.614   1.775   8.710  0.00  0.00    +0.000 A 
ATOM      3  C   UNL     1      44.757   2.639   9.387  0.00  0.00    +0.000 A 
ATOM      4  C   UNL     1      44.725   3.989   9.053  0.00  0.00    +0.000 A 
ATOM      5  N   UNL     1      43.839   4.886   9.611  0.00  0.00    +0.000 N 
ATOM      6  N   UNL     1      45.537   4.495   8.097  0.00  0.00    +0.000 NA
ATOM      7  C   UNL     1      46.374   3.639   7.450  0.00  0.00    +0.000 A 
ATOM      8  H   UNL     1      44.040   5.820   9.262  0.00  0.00    +0.000 HD
ENDROOT
BRANCH   1  10
ATOM      9  N   UNL     1      48.438   2.009   6.370  0.00  0.00    +0.000 N 
ATOM     10  C   UNL     1      47.323   1.417   6.902  0.00  0.00    +0.000 C 
ATOM     11  O   UNL     1      47.103   0.221   6.753  0.00  0.00    +0.000 OA
ATOM     12  H   UNL     1      49.100   1.394   5.914  0.00  0.00    +0.000 HD
ATOM     13  H   UNL     1      48.778   2.906   6.684  0.00  0.00    +0.000 HD
ENDBRANCH   1  10
BRANCH   5  14
ATOM     14  C   UNL     1      43.437   4.818  11.007  0.00  0.00    +0.000 C 
BRANCH  14  15
ATOM     15  C   UNL     1      44.559   4.934  12.004  0.00  0.00    +0.000 A 
ATOM     16  C   UNL     1      44.829   3.857  12.843  0.00  0.00    +0.000 A 
ATOM     17  N   UNL     1      45.838   3.823  13.735  0.00  0.00    +0.000 NA
ATOM     18  C   UNL     1      46.618   4.932  13.801  0.00  0.00    +0.000 A 
ATOM     19  C   UNL     1      46.455   6.093  13.039  0.00  0.00    +0.000 A 
ATOM     20  C   UNL     1      45.385   6.058  12.138  0.00  0.00    +0.000 A 
BRANCH  19  21
ATOM     21  N   UNL     1      47.284   7.186  13.149  0.00  0.00    +0.000 N 
ATOM     22  C   UNL     1      46.790   8.560  13.328  0.00  0.00    +0.000 C 
ATOM     23  C   UNL     1      47.315   9.467  12.206  0.00  0.00    +0.000 C 
ATOM     24  O   UNL     1      48.749   9.402  12.106  0.00  0.00    +0.000 OA
ATOM     25  C   UNL     1      49.168   8.055  11.830  0.00  0.00    +0.000 C 
ATOM     26  C   UNL     1      48.735   7.083  12.943  0.00  0.00    +0.000 C 
ENDBRANCH  19  21
ENDBRANCH  14  15
ENDBRANCH   5  14
TORSDOF 4
ENDMDL
MODEL 2
REMARK VINA RESULT:    -8.464      1.940      2.829
REMARK INTER + INTRA:         -11.126
REMARK INTER:                 -10.414
REMARK INTRA:                  -0.712
REMARK UNBOUND:                -0.684
REMARK  Name = 
REMARK  4 active torsions:
REMARK  status: ('A' for Active; 'I' for Inactive)
REMARK    1  A    between atoms: C_2  and  C_4
REMARK    2  A    between atoms: N_8  and  C_9
REMARK    3  A    between atoms: C_9  and  C_10
REMARK    4  A    between atoms: C_14  and  N_15
REMARK                            x       y       z     vdW  Elec       q    Type
REMARK                         _______ _______ _______ _____ _____    ______ ____
ROOT
ATOM      1  C   UNL     1      46.262   1.987   7.948  0.00  0.00    +0.000 A 
ATOM      2  C   UNL     1      45.496   1.707   9.074  0.00  0.00    +0.000 A 
ATOM      3  C   UNL     1      44.655   2.691   9.589  0.00  0.00    +0.000 A 
ATOM      4  C   UNL     1      44.592   3.940   8.980  0.00  0.00    +0.000 A 
ATOM      5  N   UNL     1      43.717   4.931   9.374  0.00  0.00    +0.000 N 
ATOM      6  N   UNL     1      45.358   4.237   7.906  0.00  0.00    +0.000 NA
ATOM      7  C   UNL     1      46.180   3.268   7.420  0.00  0.00    +0.000 A 
ATOM      8  H   UNL     1      43.891   5.770   8.828  0.00  0.00    +0.000 HD
ENDROOT
BRANCH   1  10
ATOM      9  N   UNL     1      46.904  -0.329   7.624  0.00  0.00    +0.000 N 
ATOM     10  C   UNL     1      47.136   0.984   7.312  0.00  0.00    +0.000 C 
ATOM     11  O   UNL     1      48.006   1.305   6.512  0.00  0.00    +0.000 OA
ATOM     12  H   UNL     1      47.437  -1.016   7.106  0.00  0.00    +0.000 HD
ATOM     13  H   UNL     1      46.049  -0.639   8.064  0.00  0.00    +0.000 HD
ENDBRANCH   1  10
BRANCH   5  14
ATOM     14  C   UNL     1      43.372   5.156  10.768  0.00  0.00    +0.000 C 
BRANCH  14  15
ATOM     15  C   UNL     1      44.391   5.927  11.564  0.00  0.00    +0.000 A 
ATOM     16  C   UNL     1      44.326   7.317  11.573  0.00  0.00    +0.000 A 
ATOM     17  N   UNL     1      45.147   8.111  12.289  0.00  0.00    +0.000 NA
ATOM     18  C   UNL     1      46.092   7.482  13.032  0.00  0.00    +0.000 A 
ATOM     19  C   UNL     1      46.289   6.100  13.105  0.00  0.00    +0.000 A 
ATOM     20  C   UNL     1      45.404   5.339  12.333  0.00  0.00    +0.000 A 
BRANCH  19  21
ATOM     21  N   UNL     1      47.266   5.521  13.882  0.00  0.00    +0.000 N 
ATOM     22  C   UNL     1      47.154   4.166  14.446  0.00  0.00    +0.000 C 
ATOM     23  C   UNL     1      47.298   4.211  15.974  0.00  0.00    +0.000 C 
ATOM     24  O   UNL     1      48.512   4.876  16.367  0.00  0.00    +0.000 OA
ATOM     25  C   UNL     1      48.521   6.225  15.875  0.00  0.00    +0.000 C 
ATOM     26  C   UNL     1      48.443   6.274  14.337  0.00  0.00    +0.000 C 
ENDBRANCH  19  21
ENDBRANCH  14  15
ENDBRANCH   5  14
TORSDOF 4
ENDMDL
MODEL 3
REMARK VINA RESULT:    -7.133      1.637      2.277
REMARK INTER + INTRA:          -9.484
REMARK INTER:                  -8.932
REMARK INTRA:                  -0.552
REMARK UNBOUND:                -0.684
REMARK  Name = 
REMARK  4 active torsions:
REMARK  status: ('A' for Active; 'I' for Inactive)
REMARK    1  A    between atoms: C_2  and  C_4
REMARK    2  A    between atoms: N_8  and  C_9
REMARK    3  A    between atoms: C_9  and  C_10
REMARK    4  A    between atoms: C_14  and  N_15
REMARK                            x       y       z     vdW  Elec       q    Type
REMARK                         _______ _______ _______ _____ _____    ______ ____
ROOT
ATOM      1  C   UNL     1      46.417   2.682   7.494  0.00  0.00    +0.000 A 
ATOM      2  C   UNL     1      46.244   4.039   7.743  0.00  0.00    +0.000 A 
ATOM      3  C   UNL     1      45.486   4.439   8.841  0.00  0.00    +0.000 A 
ATOM      4  C   UNL     1      44.907   3.486   9.672  0.00  0.00    +0.000 A 
ATOM      5  N   UNL     1      44.224   3.802  10.827  0.00  0.00    +0.000 N 
ATOM      6  N   UNL     1      45.039   2.163   9.420  0.00  0.00    +0.000 NA
ATOM      7  C   UNL     1      45.776   1.788   8.339  0.00  0.00    +0.000 A 
ATOM      8  H   UNL     1      43.842   2.953  11.235  0.00  0.00    +0.000 HD
ENDROOT
BRANCH   1  10
ATOM      9  N   UNL     1      47.282   2.934   5.242  0.00  0.00    +0.000 N 
ATOM     10  C   UNL     1      47.247   2.178   6.384  0.00  0.00    +0.000 C 
ATOM     11  O   UNL     1      47.906   1.151   6.489  0.00  0.00    +0.000 OA
ATOM     12  H   UNL     1      47.933   2.638   4.526  0.00  0.00    +0.000 HD
ATOM     13  H   UNL     1      46.969   3.893   5.217  0.00  0.00    +0.000 HD
ENDBRANCH   1  10
BRANCH   5  14
ATOM     14  C   UNL     1      43.378   4.980  10.934  0.00  0.00    +0.000 C 
BRANCH  14  15
ATOM     15  C   UNL     1      44.088   6.244  11.338  0.00  0.00    +0.000 A 
ATOM     16  C   UNL     1      43.520   7.471  11.005  0.00  0.00    +0.000 A 
ATOM     17  N   UNL     1      44.033   8.666  11.358  0.00  0.00    +0.000 NA
ATOM     18  C   UNL     1      45.184   8.636  12.076  0.00  0.00    +0.000 A 
ATOM     19  C   UNL     1      45.877   7.485  12.463  0.00  0.00    +0.000 A 
ATOM     20  C   UNL     1      45.289   6.282  12.058  0.00  0.00    +0.000 A 
BRANCH  19  21
ATOM     21  N   UNL     1      47.041   7.520  13.196  0.00  0.00    +0.000 N 
ATOM     22  C   UNL     1      47.437   8.664  14.032  0.00  0.00    +0.000 C 
ATOM     23  C   UNL     1      48.812   9.192  13.599  0.00  0.00    +0.000 C 
ATOM     24  O   UNL     1      49.798   8.143  13.593  0.00  0.00    +0.000 OA
ATOM     25  C   UNL     1      49.409   7.101  12.684  0.00  0.00    +0.000 C 
ATOM     26  C   UNL     1      48.062   6.469  13.081  0.00  0.00    +0.000 C 
ENDBRANCH  19  21
ENDBRANCH  14  15
ENDBRANCH   5  14
TORSDOF 4
ENDMDL
MODEL 4
REMARK VINA RESULT:    -7.004      3.041      7.535
REMARK INTER + INTRA:          -9.326
REMARK INTER:                  -8.907
REMARK INTRA:                  -0.419
REMARK UNBOUND:                -0.684
REMARK  Name = 
REMARK  4 active torsions:
REMARK  status: ('A' for Active; 'I' for Inactive)
REMARK    1  A    between atoms: C_2  and  C_4
REMARK    2  A    between atoms: N_8  and  C_9
REMARK    3  A    between atoms: C_9  and  C_10
REMARK    4  A    between atoms: C_14  and  N_15
REMARK                            x       y       z     vdW  Elec       q    Type
REMARK                         _______ _______ _______ _____ _____    ______ ____
ROOT
ATOM      1  C   UNL     1      48.557   4.402  16.964  0.00  0.00    +0.000 A 
ATOM      2  C   UNL     1      47.364   3.884  16.475  0.00  0.00    +0.000 A 
ATOM      3  C   UNL     1      46.830   4.396  15.295  0.00  0.00    +0.000 A 
ATOM      4  C   UNL     1      47.488   5.420  14.620  0.00  0.00    +0.000 A 
ATOM      5  N   UNL     1      47.074   5.912  13.402  0.00  0.00    +0.000 N 
ATOM      6  N   UNL     1      48.631   5.957  15.105  0.00  0.00    +0.000 NA
ATOM      7  C   UNL     1      49.136   5.451  16.263  0.00  0.00    +0.000 A 
ATOM      8  H   UNL     1      47.669   6.691  13.133  0.00  0.00    +0.000 HD
ENDROOT
BRANCH   1  10
ATOM      9  N   UNL     1      48.395   3.489  19.205  0.00  0.00    +0.000 N 
ATOM     10  C   UNL     1      49.213   3.880  18.177  0.00  0.00    +0.000 C 
ATOM     11  O   UNL     1      50.430   3.764  18.251  0.00  0.00    +0.000 OA
ATOM     12  H   UNL     1      48.845   3.036  19.990  0.00  0.00    +0.000 HD
ATOM     13  H   UNL     1      47.407   3.330  19.080  0.00  0.00    +0.000 HD
ENDBRANCH   1  10
BRANCH   5  14
ATOM     14  C   UNL     1      45.668   6.056  13.057  0.00  0.00    +0.000 C 
BRANCH  14  15
ATOM     15  C   UNL     1      45.045   4.857  12.394  0.00  0.00    +0.000 A 
ATOM     16  C   UNL     1      44.128   4.092  13.110  0.00  0.00    +0.000 A 
ATOM     17  N   UNL     1      43.467   3.031  12.607  0.00  0.00    +0.000 NA
ATOM     18  C   UNL     1      43.742   2.709  11.318  0.00  0.00    +0.000 A 
ATOM     19  C   UNL     1      44.651   3.370  10.486  0.00  0.00    +0.000 A 
ATOM     20  C   UNL     1      45.304   4.458  11.076  0.00  0.00    +0.000 A 
BRANCH  19  21
ATOM     21  N   UNL     1      44.884   2.996   9.182  0.00  0.00    +0.000 N 
ATOM     22  C   UNL     1      45.074   1.599   8.762  0.00  0.00    +0.000 C 
ATOM     23  C   UNL     1      46.426   1.433   8.054  0.00  0.00    +0.000 C 
ATOM     24  O   UNL     1      46.563   2.363   6.963  0.00  0.00    +0.000 OA
ATOM     25  C   UNL     1      46.471   3.712   7.446  0.00  0.00    +0.000 C 
ATOM     26  C   UNL     1      45.114   3.987   8.121  0.00  0.00    +0.000 C 
ENDBRANCH  19  21
ENDBRANCH  14  15
ENDBRANCH   5  14
TORSDOF 4
ENDMDL
MODEL 5
REMARK VINA RESULT:    -6.631      1.946      6.859
REMARK INTER + INTRA:          -8.865
REMARK INTER:                  -8.173
REMARK INTRA:                  -0.692
REMARK UNBOUND:                -0.684
REMARK  Name = 
REMARK  4 active torsions:
REMARK  status: ('A' for Active; 'I' for Inactive)
REMARK    1  A    between atoms: C_2  and  C_4
REMARK    2  A    between atoms: N_8  and  C_9
REMARK    3  A    between atoms: C_9  and  C_10
REMARK    4  A    between atoms: C_14  and  N_15
REMARK                            x       y       z     vdW  Elec       q    Type
REMARK                         _______ _______ _______ _____ _____    ______ ____
ROOT
ATOM      1  C   UNL     1      50.524   8.308  12.350  0.00  0.00    +0.000 A 
ATOM      2  C   UNL     1      49.510   8.640  11.459  0.00  0.00    +0.000 A 
ATOM      3  C   UNL     1      48.182   8.464  11.841  0.00  0.00    +0.000 A 
ATOM      4  C   UNL     1      47.882   7.954  13.100  0.00  0.00    +0.000 A 
ATOM      5  N   UNL     1      46.596   7.838  13.584  0.00  0.00    +0.000 N 
ATOM      6  N   UNL     1      48.860   7.593  13.962  0.00  0.00    +0.000 NA
ATOM      7  C   UNL     1      50.152   7.765  13.571  0.00  0.00    +0.000 A 
ATOM      8  H   UNL     1      46.618   7.388  14.495  0.00  0.00    +0.000 HD
ENDROOT
BRANCH   1  10
ATOM      9  N   UNL     1      52.589   7.513  11.358  0.00  0.00    +0.000 N 
ATOM     10  C   UNL     1      51.951   8.514  12.041  0.00  0.00    +0.000 C 
ATOM     11  O   UNL     1      52.532   9.548  12.346  0.00  0.00    +0.000 OA
ATOM     12  H   UNL     1      53.537   7.705  11.059  0.00  0.00    +0.000 HD
ATOM     13  H   UNL     1      52.088   6.782  10.874  0.00  0.00    +0.000 HD
ENDBRANCH   1  10
BRANCH   5  14
ATOM     14  C   UNL     1      45.475   7.470  12.735  0.00  0.00    +0.000 C 
BRANCH  14  15
ATOM     15  C   UNL     1      45.374   6.004  12.406  0.00  0.00    +0.000 A 
ATOM     16  C   UNL     1      45.312   5.083  13.447  0.00  0.00    +0.000 A 
ATOM     17  N   UNL     1      45.168   3.754  13.279  0.00  0.00    +0.000 NA
ATOM     18  C   UNL     1      45.089   3.318  11.996  0.00  0.00    +0.000 A 
ATOM     19  C   UNL     1      45.157   4.120  10.853  0.00  0.00    +0.000 A 
ATOM     20  C   UNL     1      45.312   5.488  11.104  0.00  0.00    +0.000 A 
BRANCH  19  21
ATOM     21  N   UNL     1      45.067   3.617   9.576  0.00  0.00    +0.000 N 
ATOM     22  C   UNL     1      44.859   2.190   9.280  0.00  0.00    +0.000 C 
ATOM     23  C   UNL     1      45.992   1.659   8.391  0.00  0.00    +0.000 C 
ATOM     24  O   UNL     1      46.142   2.454   7.201  0.00  0.00    +0.000 OA
ATOM     25  C   UNL     1      46.444   3.815   7.549  0.00  0.00    +0.000 C 
ATOM     26  C   UNL     1      45.324   4.451   8.394  0.00  0.00    +0.000 C 
ENDBRANCH  19  21
ENDBRANCH  14  15
ENDBRANCH   5  14
TORSDOF 4
ENDMDL
MODEL 6
REMARK VINA RESULT:    -6.409      5.043      8.284
REMARK INTER + INTRA:          -8.591
REMARK INTER:                  -8.019
REMARK INTRA:                  -0.572
REMARK UNBOUND:                -0.684
REMARK  Name = 
REMARK  4 active torsions:
REMARK  status: ('A' for Active; 'I' for Inactive)
REMARK    1  A    between atoms: C_2  and  C_4
REMARK    2  A    between atoms: N_8  and  C_9
REMARK    3  A    between atoms: C_9  and  C_10
REMARK    4  A    between atoms: C_14  and  N_15
REMARK                            x       y       z     vdW  Elec       q    Type
REMARK                         _______ _______ _______ _____ _____    ______ ____
ROOT
ATOM      1  C   UNL     1      51.966   2.560  17.770  0.00  0.00    +0.000 A 
ATOM      2  C   UNL     1      51.325   3.680  18.286  0.00  0.00    +0.000 A 
ATOM      3  C   UNL     1      49.966   3.862  18.041  0.00  0.00    +0.000 A 
ATOM      4  C   UNL     1      49.265   2.929  17.283  0.00  0.00    +0.000 A 
ATOM      5  N   UNL     1      47.903   2.991  17.077  0.00  0.00    +0.000 N 
ATOM      6  N   UNL     1      49.885   1.854  16.746  0.00  0.00    +0.000 NA
ATOM      7  C   UNL     1      51.215   1.695  16.988  0.00  0.00    +0.000 A 
ATOM      8  H   UNL     1      47.624   2.243  16.448  0.00  0.00    +0.000 HD
ENDROOT
BRANCH   1  10
ATOM      9  N   UNL     1      53.666   1.247  18.897  0.00  0.00    +0.000 N 
ATOM     10  C   UNL     1      53.389   2.269  18.027  0.00  0.00    +0.000 C 
ATOM     11  O   UNL     1      54.283   2.886  17.462  0.00  0.00    +0.000 OA
ATOM     12  H   UNL     1      54.640   0.986  18.988  0.00  0.00    +0.000 HD
ATOM     13  H   UNL     1      52.974   0.566  19.171  0.00  0.00    +0.000 HD
ENDBRANCH   1  10
BRANCH   5  14
ATOM     14  C   UNL     1      47.198   4.250  16.900  0.00  0.00    +0.000 C 
BRANCH  14  15
ATOM     15  C   UNL     1      47.267   4.833  15.513  0.00  0.00    +0.000 A 
ATOM     16  C   UNL     1      48.279   5.740  15.214  0.00  0.00    +0.000 A 
ATOM     17  N   UNL     1      48.474   6.286  13.997  0.00  0.00    +0.000 NA
ATOM     18  C   UNL     1      47.604   5.912  13.026  0.00  0.00    +0.000 A 
ATOM     19  C   UNL     1      46.531   5.030  13.184  0.00  0.00    +0.000 A 
ATOM     20  C   UNL     1      46.386   4.506  14.473  0.00  0.00    +0.000 A 
BRANCH  19  21
ATOM     21  N   UNL     1      45.684   4.686  12.156  0.00  0.00    +0.000 N 
ATOM     22  C   UNL     1      45.115   5.663  11.214  0.00  0.00    +0.000 C 
ATOM     23  C   UNL     1      43.581   5.596  11.235  0.00  0.00    +0.000 C 
ATOM     24  O   UNL     1      43.113   4.256  10.993  0.00  0.00    +0.000 OA
ATOM     25  C   UNL     1      43.616   3.364  12.000  0.00  0.00    +0.000 C 
ATOM     26  C   UNL     1      45.156   3.322  12.008  0.00  0.00    +0.000 C 
ENDBRANCH  19  21
ENDBRANCH  14  15
ENDBRANCH   5  14
TORSDOF 4
ENDMDL
MODEL 7
REMARK VINA RESULT:    -6.280      2.216      7.184
REMARK INTER + INTRA:          -8.432
REMARK INTER:                  -7.839
REMARK INTRA:                  -0.593
REMARK UNBOUND:                -0.684
REMARK  Name = 
REMARK  4 active torsions:
REMARK  status: ('A' for Active; 'I' for Inactive)
REMARK    1  A    between atoms: C_2  and  C_4
REMARK    2  A    between atoms: N_8  and  C_9
REMARK    3  A    between atoms: C_9  and  C_10
REMARK    4  A    between atoms: C_14  and  N_15
REMARK                            x       y       z     vdW  Elec       q    Type
REMARK                         _______ _______ _______ _____ _____    ______ ____
ROOT
ATOM      1  C   UNL     1      49.710   7.391  14.590  0.00  0.00    +0.000 A 
ATOM      2  C   UNL     1      48.705   6.462  14.828  0.00  0.00    +0.000 A 
ATOM      3  C   UNL     1      47.586   6.439  13.998  0.00  0.00    +0.000 A 
ATOM      4  C   UNL     1      47.482   7.344  12.947  0.00  0.00    +0.000 A 
ATOM      5  N   UNL     1      46.454   7.323  12.029  0.00  0.00    +0.000 N 
ATOM      6  N   UNL     1      48.437   8.276  12.727  0.00  0.00    +0.000 NA
ATOM      7  C   UNL     1      49.519   8.290  13.551  0.00  0.00    +0.000 A 
ATOM      8  H   UNL     1      46.554   8.109  11.392  0.00  0.00    +0.000 HD
ENDROOT
BRANCH   1  10
ATOM      9  N   UNL     1      52.105   7.754  14.724  0.00  0.00    +0.000 N 
ATOM     10  C   UNL     1      50.948   7.446  15.390  0.00  0.00    +0.000 C 
ATOM     11  O   UNL     1      50.939   7.262  16.601  0.00  0.00    +0.000 OA
ATOM     12  H   UNL     1      52.930   7.892  15.294  0.00  0.00    +0.000 HD
ATOM     13  H   UNL     1      52.107   8.157  13.798  0.00  0.00    +0.000 HD
ENDBRANCH   1  10
BRANCH   5  14
ATOM     14  C   UNL     1      45.087   6.991  12.398  0.00  0.00    +0.000 C 
BRANCH  14  15
ATOM     15  C   UNL     1      44.631   5.613  11.996  0.00  0.00    +0.000 A 
ATOM     16  C   UNL     1      43.868   4.869  12.890  0.00  0.00    +0.000 A 
ATOM     17  N   UNL     1      43.359   3.650  12.624  0.00  0.00    +0.000 NA
ATOM     18  C   UNL     1      43.635   3.140  11.397  0.00  0.00    +0.000 A 
ATOM     19  C   UNL     1      44.401   3.761  10.407  0.00  0.00    +0.000 A 
ATOM     20  C   UNL     1      44.901   5.021  10.755  0.00  0.00    +0.000 A 
BRANCH  19  21
ATOM     21  N   UNL     1      44.643   3.193   9.177  0.00  0.00    +0.000 N 
ATOM     22  C   UNL     1      44.782   1.743   8.968  0.00  0.00    +0.000 C 
ATOM     23  C   UNL     1      46.138   1.423   8.324  0.00  0.00    +0.000 C 
ATOM     24  O   UNL     1      46.335   2.178   7.115  0.00  0.00    +0.000 OA
ATOM     25  C   UNL     1      46.291   3.586   7.395  0.00  0.00    +0.000 C 
ATOM     26  C   UNL     1      44.934   4.008   7.989  0.00  0.00    +0.000 C 
ENDBRANCH  19  21
ENDBRANCH  14  15
ENDBRANCH   5  14
TORSDOF 4
ENDMDL
MODEL 8
REMARK VINA RESULT:    -5.992      4.132      8.239
REMARK INTER + INTRA:          -8.076
REMARK INTER:                  -7.638
REMARK INTRA:                  -0.439
REMARK UNBOUND:                -0.684
REMARK  Name = 
REMARK  4 active torsions:
REMARK  status: ('A' for Active; 'I' for Inactive)
REMARK    1  A    between atoms: C_2  and  C_4
REMARK    2  A    between atoms: N_8  and  C_9
REMARK    3  A    between atoms: C_9  and  C_10
REMARK    4  A    between atoms: C_14  and  N_15
REMARK                            x       y       z     vdW  Elec       q    Type
REMARK                         _______ _______ _______ _____ _____    ______ ____
ROOT
ATOM      1  C   UNL     1      50.780   4.690  17.746  0.00  0.00    +0.000 A 
ATOM      2  C   UNL     1      50.997   5.908  17.112  0.00  0.00    +0.000 A 
ATOM      3  C   UNL     1      50.029   6.405  16.242  0.00  0.00    +0.000 A 
ATOM      4  C   UNL     1      48.863   5.682  16.011  0.00  0.00    +0.000 A 
ATOM      5  N   UNL     1      47.822   6.151  15.239  0.00  0.00    +0.000 N 
ATOM      6  N   UNL     1      48.658   4.479  16.593  0.00  0.00    +0.000 NA
ATOM      7  C   UNL     1      49.616   4.003  17.435  0.00  0.00    +0.000 A 
ATOM      8  H   UNL     1      47.108   5.431  15.164  0.00  0.00    +0.000 HD
ENDROOT
BRANCH   1  10
ATOM      9  N   UNL     1      52.149   2.834  18.498  0.00  0.00    +0.000 N 
ATOM     10  C   UNL     1      51.731   4.120  18.719  0.00  0.00    +0.000 C 
ATOM     11  O   UNL     1      52.159   4.777  19.660  0.00  0.00    +0.000 OA
ATOM     12  H   UNL     1      52.879   2.487  19.108  0.00  0.00    +0.000 HD
ATOM     13  H   UNL     1      52.023   2.368  17.612  0.00  0.00    +0.000 HD
ENDBRANCH   1  10
BRANCH   5  14
ATOM     14  C   UNL     1      48.037   6.942  14.038  0.00  0.00    +0.000 C 
BRANCH  14  15
ATOM     15  C   UNL     1      46.820   7.138  13.173  0.00  0.00    +0.000 A 
ATOM     16  C   UNL     1      46.517   8.417  12.717  0.00  0.00    +0.000 A 
ATOM     17  N   UNL     1      45.489   8.708  11.895  0.00  0.00    +0.000 NA
ATOM     18  C   UNL     1      44.713   7.662  11.514  0.00  0.00    +0.000 A 
ATOM     19  C   UNL     1      44.883   6.331  11.907  0.00  0.00    +0.000 A 
ATOM     20  C   UNL     1      45.966   6.105  12.764  0.00  0.00    +0.000 A 
BRANCH  19  21
ATOM     21  N   UNL     1      44.062   5.312  11.483  0.00  0.00    +0.000 N 
ATOM     22  C   UNL     1      43.151   4.580  12.377  0.00  0.00    +0.000 C 
ATOM     23  C   UNL     1      43.454   3.076  12.335  0.00  0.00    +0.000 C 
ATOM     24  O   UNL     1      43.428   2.573  10.987  0.00  0.00    +0.000 OA
ATOM     25  C   UNL     1      44.408   3.252  10.185  0.00  0.00    +0.000 C 
ATOM     26  C   UNL     1      44.142   4.768  10.119  0.00  0.00    +0.000 C 
ENDBRANCH  19  21
ENDBRANCH  14  15
ENDBRANCH   5  14
TORSDOF 4
ENDMDL
