MODEL 1
REMARK VINA RESULT:    -9.402      0.000      0.000
REMARK INTER + INTRA:         -13.094
REMARK INTER:                 -12.150
REMARK INTRA:                  -0.943
REMARK UNBOUND:                -0.943
REMARK  Name = 
REMARK  5 active torsions:
REMARK  status: ('A' for Active; 'I' for Inactive)
REMARK    1  A    between atoms: C_2  and  C_4
REMARK    2  A    between atoms: C_7  and  O_8
REMARK    3  A    between atoms: O_8  and  C_9
REMARK    4  A    between atoms: C_9  and  C_10
REMARK    5  A    between atoms: C_14  and  C_15
REMARK                            x       y       z     vdW  Elec       q    Type
REMARK                         _______ _______ _______ _____ _____    ______ ____
ROOT
ATOM      1  C   UNL     1      43.951   4.832  11.448  0.00  0.00    +0.000 C 
ATOM      2  C   UNL     1      42.694   4.905  12.303  0.00  0.00    +0.000 C 
ATOM      3  C   UNL     1      42.955   5.964  11.286  0.00  0.00    +0.000 C 
ENDROOT
BRANCH   1   4
ATOM      4  C   UNL     1      45.323   5.119  12.031  0.00  0.00    +0.000 A 
ATOM      5  C   UNL     1      46.070   6.217  11.585  0.00  0.00    +0.000 A 
ATOM      6  C   UNL     1      47.235   6.614  12.237  0.00  0.00    +0.000 A 
ATOM      7  C   UNL     1      47.665   5.929  13.376  0.00  0.00    +0.000 A 
ATOM      8  C   UNL     1      46.957   4.824  13.870  0.00  0.00    +0.000 A 
ATOM      9  C   UNL     1      45.822   4.407  13.145  0.00  0.00    +0.000 A 
BRANCH   8  10
ATOM     10  C   UNL     1      47.324   4.174  15.148  0.00  0.00    +0.000 A 
ATOM     11  C   UNL     1      47.050   4.774  16.382  0.00  0.00    +0.000 A 
ATOM     12  C   UNL     1      47.382   4.114  17.561  0.00  0.00    +0.000 A 
ATOM     13  C   UNL     1      47.979   2.862  17.487  0.00  0.00    +0.000 A 
ATOM     14  C   UNL     1      48.206   2.325  16.232  0.00  0.00    +0.000 A 
ATOM     15  N   UNL     1      47.889   2.943  15.071  0.00  0.00    +0.000 NA
ENDBRANCH   8  10
ENDBRANCH   1   4
BRANCH   1  16
ATOM     16  O   UNL     1      43.877   3.655  10.610  0.00  0.00    +0.000 OA
BRANCH  16  20
ATOM     17  C   UNL     1      46.486   2.717   7.514  0.00  0.00    +0.000 A 
ATOM     18  C   UNL     1      46.159   4.063   7.717  0.00  0.00    +0.000 A 
ATOM     19  C   UNL     1      45.314   4.427   8.775  0.00  0.00    +0.000 A 
ATOM     20  C   UNL     1      44.790   3.451   9.615  0.00  0.00    +0.000 A 
ATOM     21  C   UNL     1      45.154   2.113   9.438  0.00  0.00    +0.000 A 
ATOM     22  C   UNL     1      45.988   1.742   8.384  0.00  0.00    +0.000 A 
BRANCH  17  24
ATOM     23  N   UNL     1      47.243   3.046   5.225  0.00  0.00    +0.000 N 
ATOM     24  C   UNL     1      47.295   2.277   6.352  0.00  0.00    +0.000 C 
ATOM     25  O   UNL     1      47.993   1.273   6.395  0.00  0.00    +0.000 OA
ATOM     26  H   UNL     1      47.846   2.771   4.465  0.00  0.00    +0.000 HD
ATOM     27  H   UNL     1      46.864   3.984   5.218  0.00  0.00    +0.000 HD
ENDBRANCH  17  24
ENDBRANCH  16  20
ENDBRANCH   1  16
TORSDOF 5
ENDMDL
MODEL 2
REMARK VINA RESULT:    -7.945      2.284      3.882
REMARK INTER + INTRA:         -11.211
REMARK INTER:                 -10.850
REMARK INTRA:                  -0.361
REMARK UNBOUND:                -0.943
REMARK  Name = 
REMARK  5 active torsions:
REMARK  status: ('A' for Active; 'I' for Inactive)
REMARK    1  A    between atoms: C_2  and  C_4
REMARK    2  A    between atoms: C_7  and  O_8
REMARK    3  A    between atoms: O_8  and  C_9
REMARK    4  A    between atoms: C_9  and  C_10
REMARK    5  A    between atoms: C_14  and  C_15
REMARK                            x       y       z     vdW  Elec       q    Type
REMARK                         _______ _______ _______ _____ _____    ______ ____
ROOT
ATOM      1  C   UNL     1      43.728   5.086  11.222  0.00  0.00    +0.000 C 
ATOM      2  C   UNL     1      42.726   4.026  11.657  0.00  0.00    +0.000 C 
ATOM      3  C   UNL     1      42.403   5.469  11.850  0.00  0.00    +0.000 C 
ENDROOT
BRANCH   1   4
ATOM      4  C   UNL     1      45.017   5.320  11.991  0.00  0.00    +0.000 A 
ATOM      5  C   UNL     1      45.597   4.286  12.739  0.00  0.00    +0.000 A 
ATOM      6  C   UNL     1      46.871   4.416  13.287  0.00  0.00    +0.000 A 
ATOM      7  C   UNL     1      47.606   5.584  13.074  0.00  0.00    +0.000 A 
ATOM      8  C   UNL     1      47.078   6.651  12.334  0.00  0.00    +0.000 A 
ATOM      9  C   UNL     1      45.760   6.514  11.853  0.00  0.00    +0.000 A 
BRANCH   8  10
ATOM     10  C   UNL     1      47.895   7.836  11.987  0.00  0.00    +0.000 A 
ATOM     11  C   UNL     1      47.371   9.131  12.045  0.00  0.00    +0.000 A 
ATOM     12  C   UNL     1      48.183  10.220  11.742  0.00  0.00    +0.000 A 
ATOM     13  C   UNL     1      49.508   9.995  11.389  0.00  0.00    +0.000 A 
ATOM     14  C   UNL     1      49.959   8.687  11.368  0.00  0.00    +0.000 A 
ATOM     15  N   UNL     1      49.194   7.613  11.662  0.00  0.00    +0.000 NA
ENDBRANCH   8  10
ENDBRANCH   1   4
BRANCH   1  16
ATOM     16  O   UNL     1      43.878   5.026   9.784  0.00  0.00    +0.000 OA
BRANCH  16  20
ATOM     17  C   UNL     1      46.357   2.204   8.007  0.00  0.00    +0.000 A 
ATOM     18  C   UNL     1      46.614   3.557   7.761  0.00  0.00    +0.000 A 
ATOM     19  C   UNL     1      45.826   4.542   8.372  0.00  0.00    +0.000 A 
ATOM     20  C   UNL     1      44.782   4.177   9.214  0.00  0.00    +0.000 A 
ATOM     21  C   UNL     1      44.556   2.826   9.494  0.00  0.00    +0.000 A 
ATOM     22  C   UNL     1      45.329   1.840   8.884  0.00  0.00    +0.000 A 
BRANCH  17  24
ATOM     23  N   UNL     1      46.815  -0.160   7.659  0.00  0.00    +0.000 N 
ATOM     24  C   UNL     1      47.099   1.128   7.308  0.00  0.00    +0.000 C 
ATOM     25  O   UNL     1      47.927   1.374   6.441  0.00  0.00    +0.000 OA
ATOM     26  H   UNL     1      47.280  -0.883   7.132  0.00  0.00    +0.000 HD
ATOM     27  H   UNL     1      45.998  -0.414   8.198  0.00  0.00    +0.000 HD
ENDBRANCH  17  24
ENDBRANCH  16  20
ENDBRANCH   1  16
TORSDOF 5
ENDMDL
MODEL 3
REMARK VINA RESULT:    -7.863      2.639      3.533
REMARK INTER + INTRA:         -11.105
REMARK INTER:                 -11.030
REMARK INTRA:                  -0.076
REMARK UNBOUND:                -0.943
REMARK  Name = 
REMARK  5 active torsions:
REMARK  status: ('A' for Active; 'I' for Inactive)
REMARK    1  A    between atoms: C_2  and  C_4
REMARK    2  A    between atoms: C_7  and  O_8
REMARK    3  A    between atoms: O_8  and  C_9
REMARK    4  A    between atoms: C_9  and  C_10
REMARK    5  A    between atoms: C_14  and  C_15
REMARK                            x       y       z     vdW  Elec       q    Type
REMARK                         _______ _______ _______ _____ _____    ______ ____
ROOT
ATOM      1  C   UNL     1      44.338   4.449  11.567  0.00  0.00    +0.000 C 
ATOM      2  C   UNL     1      45.081   3.323  12.272  0.00  0.00    +0.000 C 
ATOM      3  C   UNL     1      43.852   3.896  12.891  0.00  0.00    +0.000 C 
ENDROOT
BRANCH   1   4
ATOM      4  C   UNL     1      44.907   5.856  11.505  0.00  0.00    +0.000 A 
ATOM      5  C   UNL     1      44.056   6.961  11.369  0.00  0.00    +0.000 A 
ATOM      6  C   UNL     1      44.533   8.262  11.508  0.00  0.00    +0.000 A 
ATOM      7  C   UNL     1      45.877   8.484  11.815  0.00  0.00    +0.000 A 
ATOM      8  C   UNL     1      46.775   7.418  11.965  0.00  0.00    +0.000 A 
ATOM      9  C   UNL     1      46.274   6.117  11.748  0.00  0.00    +0.000 A 
BRANCH   8  10
ATOM     10  C   UNL     1      48.166   7.630  12.421  0.00  0.00    +0.000 A 
ATOM     11  C   UNL     1      49.213   7.837  11.517  0.00  0.00    +0.000 A 
ATOM     12  C   UNL     1      50.501   8.067  11.990  0.00  0.00    +0.000 A 
ATOM     13  C   UNL     1      50.721   8.089  13.362  0.00  0.00    +0.000 A 
ATOM     14  C   UNL     1      49.635   7.890  14.195  0.00  0.00    +0.000 A 
ATOM     15  N   UNL     1      48.373   7.671  13.762  0.00  0.00    +0.000 NA
ENDBRANCH   8  10
ENDBRANCH   1   4
BRANCH   1  16
ATOM     16  O   UNL     1      43.810   3.948  10.316  0.00  0.00    +0.000 OA
BRANCH  16  20
ATOM     17  C   UNL     1      46.558   2.652   7.481  0.00  0.00    +0.000 A 
ATOM     18  C   UNL     1      45.899   1.688   8.251  0.00  0.00    +0.000 A 
ATOM     19  C   UNL     1      44.935   2.079   9.191  0.00  0.00    +0.000 A 
ATOM     20  C   UNL     1      44.643   3.427   9.368  0.00  0.00    +0.000 A 
ATOM     21  C   UNL     1      45.269   4.385   8.566  0.00  0.00    +0.000 A 
ATOM     22  C   UNL     1      46.234   4.004   7.635  0.00  0.00    +0.000 A 
BRANCH  17  24
ATOM     23  N   UNL     1      47.775   3.037   5.410  0.00  0.00    +0.000 N 
ATOM     24  C   UNL     1      47.652   2.292   6.547  0.00  0.00    +0.000 C 
ATOM     25  O   UNL     1      48.425   1.374   6.783  0.00  0.00    +0.000 OA
ATOM     26  H   UNL     1      48.561   2.823   4.815  0.00  0.00    +0.000 HD
ATOM     27  H   UNL     1      47.310   3.926   5.283  0.00  0.00    +0.000 HD
ENDBRANCH  17  24
ENDBRANCH  16  20
ENDBRANCH   1  16
TORSDOF 5
ENDMDL
MODEL 4
REMARK VINA RESULT:    -7.526      2.619      7.597
REMARK INTER + INTRA:         -10.669
REMARK INTER:                  -9.712
REMARK INTRA:                  -0.956
REMARK UNBOUND:                -0.943
REMARK  Name = 
REMARK  5 active torsions:
REMARK  status: ('A' for Active; 'I' for Inactive)
REMARK    1  A    between atoms: C_2  and  C_4
REMARK    2  A    between atoms: C_7  and  O_8
REMARK    3  A    between atoms: O_8  and  C_9
REMARK    4  A    between atoms: C_9  and  C_10
REMARK    5  A    between atoms: C_14  and  C_15
REMARK                            x       y       z     vdW  Elec       q    Type
REMARK                         _______ _______ _______ _____ _____    ______ ____
ROOT
ATOM      1  C   UNL     1      46.379   7.260  12.513  0.00  0.00    +0.000 C 
ATOM      2  C   UNL     1      46.632   8.647  11.939  0.00  0.00    +0.000 C 
ATOM      3  C   UNL     1      45.813   8.500  13.177  0.00  0.00    +0.000 C 
ENDROOT
BRANCH   1   4
ATOM      4  C   UNL     1      45.441   6.280  11.831  0.00  0.00    +0.000 A 
ATOM      5  C   UNL     1      44.052   6.416  11.963  0.00  0.00    +0.000 A 
ATOM      6  C   UNL     1      43.175   5.656  11.194  0.00  0.00    +0.000 A 
ATOM      7  C   UNL     1      43.674   4.756  10.250  0.00  0.00    +0.000 A 
ATOM      8  C   UNL     1      45.053   4.578  10.073  0.00  0.00    +0.000 A 
ATOM      9  C   UNL     1      45.913   5.312  10.916  0.00  0.00    +0.000 A 
BRANCH   8  10
ATOM     10  C   UNL     1      45.595   3.731   8.987  0.00  0.00    +0.000 A 
ATOM     11  C   UNL     1      45.604   2.335   9.080  0.00  0.00    +0.000 A 
ATOM     12  C   UNL     1      46.092   1.575   8.021  0.00  0.00    +0.000 A 
ATOM     13  C   UNL     1      46.561   2.223   6.885  0.00  0.00    +0.000 A 
ATOM     14  C   UNL     1      46.507   3.606   6.860  0.00  0.00    +0.000 A 
ATOM     15  N   UNL     1      46.033   4.368   7.871  0.00  0.00    +0.000 NA
ENDBRANCH   8  10
ENDBRANCH   1   4
BRANCH   1  16
ATOM     16  O   UNL     1      47.640   6.698  12.946  0.00  0.00    +0.000 OA
BRANCH  16  20
ATOM     17  C   UNL     1      47.999   4.670  16.556  0.00  0.00    +0.000 A 
ATOM     18  C   UNL     1      48.678   5.884  16.410  0.00  0.00    +0.000 A 
ATOM     19  C   UNL     1      48.553   6.621  15.224  0.00  0.00    +0.000 A 
ATOM     20  C   UNL     1      47.764   6.139  14.186  0.00  0.00    +0.000 A 
ATOM     21  C   UNL     1      47.050   4.948  14.350  0.00  0.00    +0.000 A 
ATOM     22  C   UNL     1      47.176   4.207  15.524  0.00  0.00    +0.000 A 
BRANCH  17  24
ATOM     23  N   UNL     1      47.233   2.857  17.986  0.00  0.00    +0.000 N 
ATOM     24  C   UNL     1      48.180   3.812  17.752  0.00  0.00    +0.000 C 
ATOM     25  O   UNL     1      49.141   3.940  18.497  0.00  0.00    +0.000 OA
ATOM     26  H   UNL     1      47.402   2.240  18.766  0.00  0.00    +0.000 HD
ATOM     27  H   UNL     1      46.556   2.574  17.291  0.00  0.00    +0.000 HD
ENDBRANCH  17  24
ENDBRANCH  16  20
ENDBRANCH   1  16
TORSDOF 5
ENDMDL
MODEL 5
REMARK VINA RESULT:    -6.869      2.820      4.472
REMARK INTER + INTRA:          -9.821
REMARK INTER:                  -8.864
REMARK INTRA:                  -0.956
REMARK UNBOUND:                -0.943
REMARK  Name = 
REMARK  5 active torsions:
REMARK  status: ('A' for Active; 'I' for Inactive)
REMARK    1  A    between atoms: C_2  and  C_4
REMARK    2  A    between atoms: C_7  and  O_8
REMARK    3  A    between atoms: O_8  and  C_9
REMARK    4  A    between atoms: C_9  and  C_10
REMARK    5  A    between atoms: C_14  and  C_15
REMARK                            x       y       z     vdW  Elec       q    Type
REMARK                         _______ _______ _______ _____ _____    ______ ____
ROOT
ATOM      1  C   UNL     1      47.881   8.018  12.638  0.00  0.00    +0.000 C 
ATOM      2  C   UNL     1      48.383   9.145  11.748  0.00  0.00    +0.000 C 
ATOM      3  C   UNL     1      48.888   7.759  11.537  0.00  0.00    +0.000 C 
ENDROOT
BRANCH   1   4
ATOM      4  C   UNL     1      48.312   7.905  14.090  0.00  0.00    +0.000 A 
ATOM      5  C   UNL     1      48.318   9.033  14.921  0.00  0.00    +0.000 A 
ATOM      6  C   UNL     1      48.517   8.920  16.295  0.00  0.00    +0.000 A 
ATOM      7  C   UNL     1      48.689   7.661  16.873  0.00  0.00    +0.000 A 
ATOM      8  C   UNL     1      48.691   6.495  16.093  0.00  0.00    +0.000 A 
ATOM      9  C   UNL     1      48.557   6.652  14.698  0.00  0.00    +0.000 A 
BRANCH   8  10
ATOM     10  C   UNL     1      48.736   5.149  16.706  0.00  0.00    +0.000 A 
ATOM     11  C   UNL     1      47.582   4.374  16.860  0.00  0.00    +0.000 A 
ATOM     12  C   UNL     1      47.674   3.099  17.411  0.00  0.00    +0.000 A 
ATOM     13  C   UNL     1      48.921   2.619  17.796  0.00  0.00    +0.000 A 
ATOM     14  C   UNL     1      50.019   3.438  17.599  0.00  0.00    +0.000 A 
ATOM     15  N   UNL     1      49.958   4.677  17.062  0.00  0.00    +0.000 NA
ENDBRANCH   8  10
ENDBRANCH   1   4
BRANCH   1  16
ATOM     16  O   UNL     1      46.464   7.835  12.405  0.00  0.00    +0.000 OA
BRANCH  16  20
ATOM     17  C   UNL     1      44.760   4.226  11.249  0.00  0.00    +0.000 A 
ATOM     18  C   UNL     1      45.251   5.074  10.250  0.00  0.00    +0.000 A 
ATOM     19  C   UNL     1      45.869   6.283  10.599  0.00  0.00    +0.000 A 
ATOM     20  C   UNL     1      45.984   6.646  11.936  0.00  0.00    +0.000 A 
ATOM     21  C   UNL     1      45.534   5.777  12.934  0.00  0.00    +0.000 A 
ATOM     22  C   UNL     1      44.912   4.576  12.595  0.00  0.00    +0.000 A 
BRANCH  17  24
ATOM     23  N   UNL     1      44.525   2.186   9.944  0.00  0.00    +0.000 N 
ATOM     24  C   UNL     1      44.013   2.987  10.924  0.00  0.00    +0.000 C 
ATOM     25  O   UNL     1      42.985   2.681  11.511  0.00  0.00    +0.000 OA
ATOM     26  H   UNL     1      44.043   1.316   9.778  0.00  0.00    +0.000 HD
ATOM     27  H   UNL     1      45.469   2.282   9.595  0.00  0.00    +0.000 HD
ENDBRANCH  17  24
ENDBRANCH  16  20
ENDBRANCH   1  16
TORSDOF 5
ENDMDL
MODEL 6
REMARK VINA RESULT:    -6.539      3.499      8.355
REMARK INTER + INTRA:          -9.394
REMARK INTER:                  -8.526
REMARK INTRA:                  -0.868
REMARK UNBOUND:                -0.943
REMARK  Name = 
REMARK  5 active torsions:
REMARK  status: ('A' for Active; 'I' for Inactive)
REMARK    1  A    between atoms: C_2  and  C_4
REMARK    2  A    between atoms: C_7  and  O_8
REMARK    3  A    between atoms: O_8  and  C_9
REMARK    4  A    between atoms: C_9  and  C_10
REMARK    5  A    between atoms: C_14  and  C_15
REMARK                            x       y       z     vdW  Elec       q    Type
REMARK                         _______ _______ _______ _____ _____    ______ ____
ROOT
ATOM      1  C   UNL     1      48.457   7.378  13.555  0.00  0.00    +0.000 C 
ATOM      2  C   UNL     1      49.645   7.915  12.770  0.00  0.00    +0.000 C 
ATOM      3  C   UNL     1      49.056   8.735  13.867  0.00  0.00    +0.000 C 
ENDROOT
BRANCH   1   4
ATOM      4  C   UNL     1      47.072   7.295  12.938  0.00  0.00    +0.000 A 
ATOM      5  C   UNL     1      46.224   8.410  12.939  0.00  0.00    +0.000 A 
ATOM      6  C   UNL     1      45.037   8.419  12.211  0.00  0.00    +0.000 A 
ATOM      7  C   UNL     1      44.685   7.310  11.439  0.00  0.00    +0.000 A 
ATOM      8  C   UNL     1      45.494   6.165  11.397  0.00  0.00    +0.000 A 
ATOM      9  C   UNL     1      46.652   6.164  12.202  0.00  0.00    +0.000 A 
BRANCH   8  10
ATOM     10  C   UNL     1      45.203   5.040  10.481  0.00  0.00    +0.000 A 
ATOM     11  C   UNL     1      45.597   5.065   9.139  0.00  0.00    +0.000 A 
ATOM     12  C   UNL     1      45.333   3.971   8.320  0.00  0.00    +0.000 A 
ATOM     13  C   UNL     1      44.681   2.868   8.859  0.00  0.00    +0.000 A 
ATOM     14  C   UNL     1      44.334   2.910  10.198  0.00  0.00    +0.000 A 
ATOM     15  N   UNL     1      44.584   3.957  11.016  0.00  0.00    +0.000 NA
ENDBRANCH   8  10
ENDBRANCH   1   4
BRANCH   1  16
ATOM     16  O   UNL     1      48.873   6.199  14.284  0.00  0.00    +0.000 OA
BRANCH  16  20
ATOM     17  C   UNL     1      48.233   5.541  18.336  0.00  0.00    +0.000 A 
ATOM     18  C   UNL     1      49.014   6.639  17.961  0.00  0.00    +0.000 A 
ATOM     19  C   UNL     1      49.222   6.921  16.604  0.00  0.00    +0.000 A 
ATOM     20  C   UNL     1      48.663   6.102  15.629  0.00  0.00    +0.000 A 
ATOM     21  C   UNL     1      47.846   5.031  16.006  0.00  0.00    +0.000 A 
ATOM     22  C   UNL     1      47.641   4.741  17.353  0.00  0.00    +0.000 A 
BRANCH  17  24
ATOM     23  N   UNL     1      46.987   5.650  20.423  0.00  0.00    +0.000 N 
ATOM     24  C   UNL     1      48.068   5.149  19.757  0.00  0.00    +0.000 C 
ATOM     25  O   UNL     1      48.856   4.398  20.315  0.00  0.00    +0.000 OA
ATOM     26  H   UNL     1      46.852   5.325  21.368  0.00  0.00    +0.000 HD
ATOM     27  H   UNL     1      46.205   6.085  19.952  0.00  0.00    +0.000 HD
ENDBRANCH  17  24
ENDBRANCH  16  20
ENDBRANCH   1  16
TORSDOF 5
ENDMDL
