MODEL 1
REMARK VINA RESULT:    -7.898      0.000      0.000
REMARK INTER + INTRA:         -12.269
REMARK INTER:                 -11.592
REMARK INTRA:                  -0.677
REMARK UNBOUND:                -0.677
REMARK  Name = 
REMARK  9 active torsions:
REMARK  status: ('A' for Active; 'I' for Inactive)
REMARK    1  A    between atoms: N_1  and  C_2
REMARK    2  A    between atoms: C_2  and  C_3
REMARK    3  A    between atoms: C_6  and  N_7
REMARK    4  A    between atoms: N_7  and  C_8
REMARK    5  A    between atoms: C_8  and  C_9
REMARK    6  A    between atoms: C_13  and  O_14
REMARK    7  A    between atoms: O_14  and  C_15
REMARK    8  A    between atoms: C_15  and  C_16
REMARK    9  A    between atoms: C_16  and  O_17
REMARK                            x       y       z     vdW  Elec       q    Type
REMARK                         _______ _______ _______ _____ _____    ______ ____
ROOT
ATOM      1  N   UNL     1      43.796   4.843   9.822  0.00  0.00    +0.000 N 
ATOM      2  H   UNL     1      42.912   5.006   9.343  0.00  0.00    +0.000 HD
ENDROOT
BRANCH   1   6
ATOM      3  C   UNL     1      46.336   2.095   7.811  0.00  0.00    +0.000 A 
ATOM      4  C   UNL     1      45.408   1.637   8.750  0.00  0.00    +0.000 A 
ATOM      5  C   UNL     1      44.557   2.526   9.413  0.00  0.00    +0.000 A 
ATOM      6  C   UNL     1      44.576   3.899   9.137  0.00  0.00    +0.000 A 
ATOM      7  C   UNL     1      45.520   4.354   8.205  0.00  0.00    +0.000 A 
ATOM      8  C   UNL     1      46.388   3.467   7.547  0.00  0.00    +0.000 A 
BRANCH   3   9
ATOM      9  C   UNL     1      47.273   1.126   7.139  0.00  0.00    +0.000 C 
BRANCH   9  10
ATOM     10  N   UNL     1      48.307   1.820   6.378  0.00  0.00    +0.000 NA
ATOM     11  H   UNL     1      49.182   1.305   6.452  0.00  0.00    +0.000 HD
ATOM     12  H   UNL     1      48.469   2.731   6.804  0.00  0.00    +0.000 HD
ENDBRANCH   9  10
ENDBRANCH   3   9
ENDBRANCH   1   6
BRANCH   1  13
ATOM     13  C   UNL     1      43.658   4.711  11.266  0.00  0.00    +0.000 C 
BRANCH  13  14
ATOM     14  C   UNL     1      44.963   4.948  11.973  0.00  0.00    +0.000 A 
ATOM     15  C   UNL     1      45.656   6.141  11.790  0.00  0.00    +0.000 A 
ATOM     16  N   UNL     1      46.769   6.484  12.470  0.00  0.00    +0.000 NA
ATOM     17  C   UNL     1      47.210   5.592  13.390  0.00  0.00    +0.000 A 
ATOM     18  C   UNL     1      46.616   4.361  13.643  0.00  0.00    +0.000 A 
ATOM     19  C   UNL     1      45.469   4.041  12.918  0.00  0.00    +0.000 A 
BRANCH  18  20
ATOM     20  O   UNL     1      47.183   3.605  14.629  0.00  0.00    +0.000 OA
BRANCH  20  21
ATOM     21  C   UNL     1      47.302   4.233  15.911  0.00  0.00    +0.000 C 
BRANCH  21  22
ATOM     22  C   UNL     1      47.675   3.156  16.926  0.00  0.00    +0.000 C 
BRANCH  22  23
ATOM     23  O   UNL     1      46.533   2.784  17.697  0.00  0.00    +0.000 OA
ATOM     24  H   UNL     1      46.804   2.846  18.632  0.00  0.00    +0.000 HD
ENDBRANCH  22  23
ENDBRANCH  21  22
ENDBRANCH  20  21
ENDBRANCH  18  20
ENDBRANCH  13  14
ENDBRANCH   1  13
TORSDOF 9
ENDMDL
MODEL 2
REMARK VINA RESULT:    -7.196      2.164      2.751
REMARK INTER + INTRA:         -11.238
REMARK INTER:                 -10.498
REMARK INTRA:                  -0.741
REMARK UNBOUND:                -0.677
REMARK  Name = 
REMARK  9 active torsions:
REMARK  status: ('A' for Active; 'I' for Inactive)
REMARK    1  A    between atoms: N_1  and  C_2
REMARK    2  A    between atoms: C_2  and  C_3
REMARK    3  A    between atoms: C_6  and  N_7
REMARK    4  A    between atoms: N_7  and  C_8
REMARK    5  A    between atoms: C_8  and  C_9
REMARK    6  A    between atoms: C_13  and  O_14
REMARK    7  A    between atoms: O_14  and  C_15
REMARK    8  A    between atoms: C_15  and  C_16
REMARK    9  A    between atoms: C_16  and  O_17
REMARK                            x       y       z     vdW  Elec       q    Type
REMARK                         _______ _______ _______ _____ _____    ______ ____
ROOT
ATOM      1  N   UNL     1      43.811   4.557   9.519  0.00  0.00    +0.000 N 
ATOM      2  H   UNL     1      43.041   4.829   8.911  0.00  0.00    +0.000 HD
ENDROOT
BRANCH   1   6
ATOM      3  C   UNL     1      46.721   2.156   7.565  0.00  0.00    +0.000 A 
ATOM      4  C   UNL     1      45.764   1.566   8.395  0.00  0.00    +0.000 A 
ATOM      5  C   UNL     1      44.793   2.339   9.037  0.00  0.00    +0.000 A 
ATOM      6  C   UNL     1      44.718   3.725   8.846  0.00  0.00    +0.000 A 
ATOM      7  C   UNL     1      45.691   4.313   8.025  0.00  0.00    +0.000 A 
ATOM      8  C   UNL     1      46.679   3.543   7.389  0.00  0.00    +0.000 A 
BRANCH   3   9
ATOM      9  C   UNL     1      47.786   1.311   6.917  0.00  0.00    +0.000 C 
BRANCH   9  10
ATOM     10  N   UNL     1      48.353   1.969   5.745  0.00  0.00    +0.000 NA
ATOM     11  H   UNL     1      47.658   2.597   5.343  0.00  0.00    +0.000 HD
ATOM     12  H   UNL     1      48.550   1.264   5.037  0.00  0.00    +0.000 HD
ENDBRANCH   9  10
ENDBRANCH   3   9
ENDBRANCH   1   6
BRANCH   1  13
ATOM     13  C   UNL     1      43.386   4.177  10.859  0.00  0.00    +0.000 C 
BRANCH  13  14
ATOM     14  C   UNL     1      44.424   4.518  11.890  0.00  0.00    +0.000 A 
ATOM     15  C   UNL     1      45.090   3.507  12.578  0.00  0.00    +0.000 A 
ATOM     16  N   UNL     1      46.113   3.718  13.432  0.00  0.00    +0.000 NA
ATOM     17  C   UNL     1      46.499   5.006  13.601  0.00  0.00    +0.000 A 
ATOM     18  C   UNL     1      45.896   6.097  12.988  0.00  0.00    +0.000 A 
ATOM     19  C   UNL     1      44.840   5.840  12.115  0.00  0.00    +0.000 A 
BRANCH  18  20
ATOM     20  O   UNL     1      46.440   7.320  13.255  0.00  0.00    +0.000 OA
BRANCH  20  21
ATOM     21  C   UNL     1      47.782   7.314  13.757  0.00  0.00    +0.000 C 
BRANCH  21  22
ATOM     22  C   UNL     1      48.720   7.612  12.589  0.00  0.00    +0.000 C 
BRANCH  22  23
ATOM     23  O   UNL     1      49.767   6.645  12.534  0.00  0.00    +0.000 OA
ATOM     24  H   UNL     1      50.055   6.608  11.602  0.00  0.00    +0.000 HD
ENDBRANCH  22  23
ENDBRANCH  21  22
ENDBRANCH  20  21
ENDBRANCH  18  20
ENDBRANCH  13  14
ENDBRANCH   1  13
TORSDOF 9
ENDMDL
MODEL 3
REMARK VINA RESULT:    -6.630      1.925      2.444
REMARK INTER + INTRA:         -10.408
REMARK INTER:                  -9.717
REMARK INTRA:                  -0.692
REMARK UNBOUND:                -0.677
REMARK  Name = 
REMARK  9 active torsions:
REMARK  status: ('A' for Active; 'I' for Inactive)
REMARK    1  A    between atoms: N_1  and  C_2
REMARK    2  A    between atoms: C_2  and  C_3
REMARK    3  A    between atoms: C_6  and  N_7
REMARK    4  A    between atoms: N_7  and  C_8
REMARK    5  A    between atoms: C_8  and  C_9
REMARK    6  A    between atoms: C_13  and  O_14
REMARK    7  A    between atoms: O_14  and  C_15
REMARK    8  A    between atoms: C_15  and  C_16
REMARK    9  A    between atoms: C_16  and  O_17
REMARK                            x       y       z     vdW  Elec       q    Type
REMARK                         _______ _______ _______ _____ _____    ______ ____
ROOT
ATOM      1  N   UNL     1      43.774   4.044  10.339  0.00  0.00    +0.000 N 
ATOM      2  H   UNL     1      42.795   3.818  10.174  0.00  0.00    +0.000 HD
ENDROOT
BRANCH   1   6
ATOM      3  C   UNL     1      46.443   2.330   7.513  0.00  0.00    +0.000 A 
ATOM      4  C   UNL     1      45.787   1.519   8.443  0.00  0.00    +0.000 A 
ATOM      5  C   UNL     1      44.898   2.065   9.373  0.00  0.00    +0.000 A 
ATOM      6  C   UNL     1      44.602   3.434   9.385  0.00  0.00    +0.000 A 
ATOM      7  C   UNL     1      45.275   4.244   8.460  0.00  0.00    +0.000 A 
ATOM      8  C   UNL     1      46.182   3.704   7.533  0.00  0.00    +0.000 A 
BRANCH   3   9
ATOM      9  C   UNL     1      47.430   1.729   6.547  0.00  0.00    +0.000 C 
BRANCH   9  10
ATOM     10  N   UNL     1      48.626   2.555   6.420  0.00  0.00    +0.000 NA
ATOM     11  H   UNL     1      49.376   2.150   6.978  0.00  0.00    +0.000 HD
ATOM     12  H   UNL     1      48.433   3.473   6.817  0.00  0.00    +0.000 HD
ENDBRANCH   9  10
ENDBRANCH   3   9
ENDBRANCH   1   6
BRANCH   1  13
ATOM     13  C   UNL     1      44.158   3.967  11.741  0.00  0.00    +0.000 C 
BRANCH  13  14
ATOM     14  C   UNL     1      45.063   5.100  12.133  0.00  0.00    +0.000 A 
ATOM     15  C   UNL     1      44.699   6.416  11.863  0.00  0.00    +0.000 A 
ATOM     16  N   UNL     1      45.392   7.496  12.281  0.00  0.00    +0.000 NA
ATOM     17  C   UNL     1      46.503   7.249  13.015  0.00  0.00    +0.000 A 
ATOM     18  C   UNL     1      46.977   5.981  13.328  0.00  0.00    +0.000 A 
ATOM     19  C   UNL     1      46.236   4.890  12.877  0.00  0.00    +0.000 A 
BRANCH  18  20
ATOM     20  O   UNL     1      48.098   5.927  14.105  0.00  0.00    +0.000 OA
BRANCH  20  21
ATOM     21  C   UNL     1      48.499   7.160  14.715  0.00  0.00    +0.000 C 
BRANCH  21  22
ATOM     22  C   UNL     1      49.953   7.422  14.328  0.00  0.00    +0.000 C 
BRANCH  22  23
ATOM     23  O   UNL     1      50.142   7.200  12.931  0.00  0.00    +0.000 OA
ATOM     24  H   UNL     1      49.983   8.058  12.495  0.00  0.00    +0.000 HD
ENDBRANCH  22  23
ENDBRANCH  21  22
ENDBRANCH  20  21
ENDBRANCH  18  20
ENDBRANCH  13  14
ENDBRANCH   1  13
TORSDOF 9
ENDMDL
MODEL 4
REMARK VINA RESULT:    -6.305      2.968      3.779
REMARK INTER + INTRA:          -9.931
REMARK INTER:                  -9.400
REMARK INTRA:                  -0.531
REMARK UNBOUND:                -0.677
REMARK  Name = 
REMARK  9 active torsions:
REMARK  status: ('A' for Active; 'I' for Inactive)
REMARK    1  A    between atoms: N_1  and  C_2
REMARK    2  A    between atoms: C_2  and  C_3
REMARK    3  A    between atoms: C_6  and  N_7
REMARK    4  A    between atoms: N_7  and  C_8
REMARK    5  A    between atoms: C_8  and  C_9
REMARK    6  A    between atoms: C_13  and  O_14
REMARK    7  A    between atoms: O_14  and  C_15
REMARK    8  A    between atoms: C_15  and  C_16
REMARK    9  A    between atoms: C_16  and  O_17
REMARK                            x       y       z     vdW  Elec       q    Type
REMARK                         _______ _______ _______ _____ _____    ______ ____
ROOT
ATOM      1  N   UNL     1      44.128   2.261  10.113  0.00  0.00    +0.000 N 
ATOM      2  H   UNL     1      43.816   1.294  10.176  0.00  0.00    +0.000 HD
ENDROOT
BRANCH   1   6
ATOM      3  C   UNL     1      46.693   2.624   6.745  0.00  0.00    +0.000 A 
ATOM      4  C   UNL     1      45.845   3.677   7.101  0.00  0.00    +0.000 A 
ATOM      5  C   UNL     1      45.003   3.579   8.212  0.00  0.00    +0.000 A 
ATOM      6  C   UNL     1      45.002   2.442   9.030  0.00  0.00    +0.000 A 
ATOM      7  C   UNL     1      45.843   1.383   8.659  0.00  0.00    +0.000 A 
ATOM      8  C   UNL     1      46.680   1.470   7.535  0.00  0.00    +0.000 A 
BRANCH   3   9
ATOM      9  C   UNL     1      47.561   2.733   5.520  0.00  0.00    +0.000 C 
BRANCH   9  10
ATOM     10  N   UNL     1      48.593   1.702   5.501  0.00  0.00    +0.000 NA
ATOM     11  H   UNL     1      49.426   2.051   5.971  0.00  0.00    +0.000 HD
ATOM     12  H   UNL     1      48.859   1.522   4.534  0.00  0.00    +0.000 HD
ENDBRANCH   9  10
ENDBRANCH   3   9
ENDBRANCH   1   6
BRANCH   1  13
ATOM     13  C   UNL     1      44.490   2.839  11.400  0.00  0.00    +0.000 C 
BRANCH  13  14
ATOM     14  C   UNL     1      44.428   4.340  11.372  0.00  0.00    +0.000 A 
ATOM     15  C   UNL     1      43.207   4.991  11.221  0.00  0.00    +0.000 A 
ATOM     16  N   UNL     1      43.046   6.328  11.301  0.00  0.00    +0.000 NA
ATOM     17  C   UNL     1      44.161   7.054  11.555  0.00  0.00    +0.000 A 
ATOM     18  C   UNL     1      45.434   6.519  11.702  0.00  0.00    +0.000 A 
ATOM     19  C   UNL     1      45.562   5.133  11.609  0.00  0.00    +0.000 A 
BRANCH  18  20
ATOM     20  O   UNL     1      46.436   7.403  11.984  0.00  0.00    +0.000 OA
BRANCH  20  21
ATOM     21  C   UNL     1      46.037   8.614  12.637  0.00  0.00    +0.000 C 
BRANCH  21  22
ATOM     22  C   UNL     1      47.227   9.571  12.614  0.00  0.00    +0.000 C 
BRANCH  22  23
ATOM     23  O   UNL     1      48.281   9.033  11.818  0.00  0.00    +0.000 OA
ATOM     24  H   UNL     1      48.260   9.519  10.972  0.00  0.00    +0.000 HD
ENDBRANCH  22  23
ENDBRANCH  21  22
ENDBRANCH  20  21
ENDBRANCH  18  20
ENDBRANCH  13  14
ENDBRANCH   1  13
TORSDOF 9
ENDMDL
MODEL 5
REMARK VINA RESULT:    -6.176      3.562      7.061
REMARK INTER + INTRA:          -9.741
REMARK INTER:                  -9.379
REMARK INTRA:                  -0.362
REMARK UNBOUND:                -0.677
REMARK  Name = 
REMARK  9 active torsions:
REMARK  status: ('A' for Active; 'I' for Inactive)
REMARK    1  A    between atoms: N_1  and  C_2
REMARK    2  A    between atoms: C_2  and  C_3
REMARK    3  A    between atoms: C_6  and  N_7
REMARK    4  A    between atoms: N_7  and  C_8
REMARK    5  A    between atoms: C_8  and  C_9
REMARK    6  A    between atoms: C_13  and  O_14
REMARK    7  A    between atoms: O_14  and  C_15
REMARK    8  A    between atoms: C_15  and  C_16
REMARK    9  A    between atoms: C_16  and  O_17
REMARK                            x       y       z     vdW  Elec       q    Type
REMARK                         _______ _______ _______ _____ _____    ______ ____
ROOT
ATOM      1  N   UNL     1      44.810   6.801  11.084  0.00  0.00    +0.000 N 
ATOM      2  H   UNL     1      45.130   7.073  10.156  0.00  0.00    +0.000 HD
ENDROOT
BRANCH   1   6
ATOM      3  C   UNL     1      47.889   7.015  14.004  0.00  0.00    +0.000 A 
ATOM      4  C   UNL     1      47.310   5.785  13.681  0.00  0.00    +0.000 A 
ATOM      5  C   UNL     1      46.304   5.695  12.715  0.00  0.00    +0.000 A 
ATOM      6  C   UNL     1      45.864   6.823  12.010  0.00  0.00    +0.000 A 
ATOM      7  C   UNL     1      46.437   8.056  12.350  0.00  0.00    +0.000 A 
ATOM      8  C   UNL     1      47.437   8.155  13.331  0.00  0.00    +0.000 A 
BRANCH   3   9
ATOM      9  C   UNL     1      48.941   7.097  15.078  0.00  0.00    +0.000 C 
BRANCH   9  10
ATOM     10  N   UNL     1      50.286   7.087  14.511  0.00  0.00    +0.000 NA
ATOM     11  H   UNL     1      50.487   7.999  14.106  0.00  0.00    +0.000 HD
ATOM     12  H   UNL     1      50.312   6.416  13.745  0.00  0.00    +0.000 HD
ENDBRANCH   9  10
ENDBRANCH   3   9
ENDBRANCH   1   6
BRANCH   1  13
ATOM     13  C   UNL     1      43.918   5.650  11.075  0.00  0.00    +0.000 C 
BRANCH  13  14
ATOM     14  C   UNL     1      44.443   4.546  10.201  0.00  0.00    +0.000 A 
ATOM     15  C   UNL     1      44.030   3.233  10.404  0.00  0.00    +0.000 A 
ATOM     16  N   UNL     1      44.359   2.202   9.598  0.00  0.00    +0.000 NA
ATOM     17  C   UNL     1      45.133   2.499   8.527  0.00  0.00    +0.000 A 
ATOM     18  C   UNL     1      45.623   3.766   8.236  0.00  0.00    +0.000 A 
ATOM     19  C   UNL     1      45.265   4.806   9.093  0.00  0.00    +0.000 A 
BRANCH  18  20
ATOM     20  O   UNL     1      46.364   3.883   7.095  0.00  0.00    +0.000 OA
BRANCH  20  21
ATOM     21  C   UNL     1      46.599   2.668   6.372  0.00  0.00    +0.000 C 
BRANCH  21  22
ATOM     22  C   UNL     1      48.061   2.278   6.574  0.00  0.00    +0.000 C 
BRANCH  22  23
ATOM     23  O   UNL     1      48.620   1.798   5.352  0.00  0.00    +0.000 OA
ATOM     24  H   UNL     1      49.496   2.220   5.270  0.00  0.00    +0.000 HD
ENDBRANCH  22  23
ENDBRANCH  21  22
ENDBRANCH  20  21
ENDBRANCH  18  20
ENDBRANCH  13  14
ENDBRANCH   1  13
TORSDOF 9
ENDMDL
MODEL 6
REMARK VINA RESULT:    -5.749      3.648      7.061
REMARK INTER + INTRA:          -9.115
REMARK INTER:                  -8.457
REMARK INTRA:                  -0.658
REMARK UNBOUND:                -0.677
REMARK  Name = 
REMARK  9 active torsions:
REMARK  status: ('A' for Active; 'I' for Inactive)
REMARK    1  A    between atoms: N_1  and  C_2
REMARK    2  A    between atoms: C_2  and  C_3
REMARK    3  A    between atoms: C_6  and  N_7
REMARK    4  A    between atoms: N_7  and  C_8
REMARK    5  A    between atoms: C_8  and  C_9
REMARK    6  A    between atoms: C_13  and  O_14
REMARK    7  A    between atoms: O_14  and  C_15
REMARK    8  A    between atoms: C_15  and  C_16
REMARK    9  A    between atoms: C_16  and  O_17
REMARK                            x       y       z     vdW  Elec       q    Type
REMARK                         _______ _______ _______ _____ _____    ______ ____
ROOT
ATOM      1  N   UNL     1      45.996   6.004  13.460  0.00  0.00    +0.000 N 
ATOM      2  H   UNL     1      46.032   5.896  14.472  0.00  0.00    +0.000 HD
ENDROOT
BRANCH   1   6
ATOM      3  C   UNL     1      48.482   9.117  11.983  0.00  0.00    +0.000 A 
ATOM      4  C   UNL     1      47.209   9.409  12.482  0.00  0.00    +0.000 A 
ATOM      5  C   UNL     1      46.383   8.399  12.981  0.00  0.00    +0.000 A 
ATOM      6  C   UNL     1      46.810   7.066  13.036  0.00  0.00    +0.000 A 
ATOM      7  C   UNL     1      48.081   6.777  12.519  0.00  0.00    +0.000 A 
ATOM      8  C   UNL     1      48.909   7.786  12.002  0.00  0.00    +0.000 A 
BRANCH   3   9
ATOM      9  C   UNL     1      49.340  10.214  11.410  0.00  0.00    +0.000 C 
BRANCH   9  10
ATOM     10  N   UNL     1      48.563  11.117  10.567  0.00  0.00    +0.000 NA
ATOM     11  H   UNL     1      48.648  12.067  10.923  0.00  0.00    +0.000 HD
ATOM     12  H   UNL     1      47.578  10.866  10.641  0.00  0.00    +0.000 HD
ENDBRANCH   9  10
ENDBRANCH   3   9
ENDBRANCH   1   6
BRANCH   1  13
ATOM     13  C   UNL     1      44.652   5.899  12.912  0.00  0.00    +0.000 C 
BRANCH  13  14
ATOM     14  C   UNL     1      44.592   4.927  11.767  0.00  0.00    +0.000 A 
ATOM     15  C   UNL     1      43.801   3.785  11.855  0.00  0.00    +0.000 A 
ATOM     16  N   UNL     1      43.598   2.923  10.837  0.00  0.00    +0.000 NA
ATOM     17  C   UNL     1      44.210   3.222   9.665  0.00  0.00    +0.000 A 
ATOM     18  C   UNL     1      45.040   4.319   9.466  0.00  0.00    +0.000 A 
ATOM     19  C   UNL     1      45.228   5.185  10.542  0.00  0.00    +0.000 A 
BRANCH  18  20
ATOM     20  O   UNL     1      45.546   4.476   8.208  0.00  0.00    +0.000 OA
BRANCH  20  21
ATOM     21  C   UNL     1      45.654   3.283   7.421  0.00  0.00    +0.000 C 
BRANCH  21  22
ATOM     22  C   UNL     1      47.103   3.158   6.957  0.00  0.00    +0.000 C 
BRANCH  22  23
ATOM     23  O   UNL     1      47.216   3.517   5.581  0.00  0.00    +0.000 OA
ATOM     24  H   UNL     1      47.479   2.704   5.109  0.00  0.00    +0.000 HD
ENDBRANCH  22  23
ENDBRANCH  21  22
ENDBRANCH  20  21
ENDBRANCH  18  20
ENDBRANCH  13  14
ENDBRANCH   1  13
TORSDOF 9
ENDMDL
MODEL 7
REMARK VINA RESULT:    -5.503      2.849      4.502
REMARK INTER + INTRA:          -8.754
REMARK INTER:                  -8.087
REMARK INTRA:                  -0.667
REMARK UNBOUND:                -0.677
REMARK  Name = 
REMARK  9 active torsions:
REMARK  status: ('A' for Active; 'I' for Inactive)
REMARK    1  A    between atoms: N_1  and  C_2
REMARK    2  A    between atoms: C_2  and  C_3
REMARK    3  A    between atoms: C_6  and  N_7
REMARK    4  A    between atoms: N_7  and  C_8
REMARK    5  A    between atoms: C_8  and  C_9
REMARK    6  A    between atoms: C_13  and  O_14
REMARK    7  A    between atoms: O_14  and  C_15
REMARK    8  A    between atoms: C_15  and  C_16
REMARK    9  A    between atoms: C_16  and  O_17
REMARK                            x       y       z     vdW  Elec       q    Type
REMARK                         _______ _______ _______ _____ _____    ______ ____
ROOT
ATOM      1  N   UNL     1      45.974   7.674  13.155  0.00  0.00    +0.000 N 
ATOM      2  H   UNL     1      45.579   7.732  14.092  0.00  0.00    +0.000 HD
ENDROOT
BRANCH   1   6
ATOM      3  C   UNL     1      44.605   4.091  11.328  0.00  0.00    +0.000 A 
ATOM      4  C   UNL     1      44.974   5.186  10.541  0.00  0.00    +0.000 A 
ATOM      5  C   UNL     1      45.437   6.368  11.125  0.00  0.00    +0.000 A 
ATOM      6  C   UNL     1      45.583   6.489  12.513  0.00  0.00    +0.000 A 
ATOM      7  C   UNL     1      45.197   5.393  13.297  0.00  0.00    +0.000 A 
ATOM      8  C   UNL     1      44.716   4.208  12.717  0.00  0.00    +0.000 A 
BRANCH   3   9
ATOM      9  C   UNL     1      44.069   2.841  10.681  0.00  0.00    +0.000 C 
BRANCH   9  10
ATOM     10  N   UNL     1      43.031   2.220  11.497  0.00  0.00    +0.000 NA
ATOM     11  H   UNL     1      42.246   1.960  10.903  0.00  0.00    +0.000 HD
ATOM     12  H   UNL     1      42.678   2.910  12.159  0.00  0.00    +0.000 HD
ENDBRANCH   9  10
ENDBRANCH   3   9
ENDBRANCH   1   6
BRANCH   1  13
ATOM     13  C   UNL     1      47.374   8.068  13.091  0.00  0.00    +0.000 C 
BRANCH  13  14
ATOM     14  C   UNL     1      48.087   7.806  14.387  0.00  0.00    +0.000 A 
ATOM     15  C   UNL     1      48.339   8.849  15.274  0.00  0.00    +0.000 A 
ATOM     16  N   UNL     1      48.867   8.686  16.505  0.00  0.00    +0.000 NA
ATOM     17  C   UNL     1      49.149   7.413  16.875  0.00  0.00    +0.000 A 
ATOM     18  C   UNL     1      48.962   6.298  16.068  0.00  0.00    +0.000 A 
ATOM     19  C   UNL     1      48.418   6.506  14.802  0.00  0.00    +0.000 A 
BRANCH  18  20
ATOM     20  O   UNL     1      49.275   5.090  16.621  0.00  0.00    +0.000 OA
BRANCH  20  21
ATOM     21  C   UNL     1      48.312   4.549  17.534  0.00  0.00    +0.000 C 
BRANCH  21  22
ATOM     22  C   UNL     1      47.530   3.462  16.799  0.00  0.00    +0.000 C 
BRANCH  22  23
ATOM     23  O   UNL     1      46.559   2.878  17.666  0.00  0.00    +0.000 OA
ATOM     24  H   UNL     1      45.733   3.379  17.526  0.00  0.00    +0.000 HD
ENDBRANCH  22  23
ENDBRANCH  21  22
ENDBRANCH  20  21
ENDBRANCH  18  20
ENDBRANCH  13  14
ENDBRANCH   1  13
TORSDOF 9
ENDMDL
MODEL 8
REMARK VINA RESULT:    -5.473      3.319      7.602
REMARK INTER + INTRA:          -8.710
REMARK INTER:                  -8.209
REMARK INTRA:                  -0.501
REMARK UNBOUND:                -0.677
REMARK  Name = 
REMARK  9 active torsions:
REMARK  status: ('A' for Active; 'I' for Inactive)
REMARK    1  A    between atoms: N_1  and  C_2
REMARK    2  A    between atoms: C_2  and  C_3
REMARK    3  A    between atoms: C_6  and  N_7
REMARK    4  A    between atoms: N_7  and  C_8
REMARK    5  A    between atoms: C_8  and  C_9
REMARK    6  A    between atoms: C_13  and  O_14
REMARK    7  A    between atoms: O_14  and  C_15
REMARK    8  A    between atoms: C_15  and  C_16
REMARK    9  A    between atoms: C_16  and  O_17
REMARK                            x       y       z     vdW  Elec       q    Type
REMARK                         _______ _______ _______ _____ _____    ______ ____
ROOT
ATOM      1  N   UNL     1      47.241   6.240  13.112  0.00  0.00    +0.000 N 
ATOM      2  H   UNL     1      47.610   5.613  12.400  0.00  0.00    +0.000 HD
ENDROOT
BRANCH   1   6
ATOM      3  C   UNL     1      48.379   4.742  16.922  0.00  0.00    +0.000 A 
ATOM      4  C   UNL     1      48.889   5.960  16.464  0.00  0.00    +0.000 A 
ATOM      5  C   UNL     1      48.517   6.472  15.218  0.00  0.00    +0.000 A 
ATOM      6  C   UNL     1      47.595   5.808  14.400  0.00  0.00    +0.000 A 
ATOM      7  C   UNL     1      47.099   4.579  14.858  0.00  0.00    +0.000 A 
ATOM      8  C   UNL     1      47.481   4.051  16.102  0.00  0.00    +0.000 A 
BRANCH   3   9
ATOM      9  C   UNL     1      48.826   4.186  18.248  0.00  0.00    +0.000 C 
BRANCH   9  10
ATOM     10  N   UNL     1      47.916   3.151  18.728  0.00  0.00    +0.000 NA
ATOM     11  H   UNL     1      47.039   3.210  18.214  0.00  0.00    +0.000 HD
ATOM     12  H   UNL     1      47.693   3.339  19.705  0.00  0.00    +0.000 HD
ENDBRANCH   9  10
ENDBRANCH   3   9
ENDBRANCH   1   6
BRANCH   1  13
ATOM     13  C   UNL     1      45.864   6.646  12.871  0.00  0.00    +0.000 C 
BRANCH  13  14
ATOM     14  C   UNL     1      45.205   5.787  11.829  0.00  0.00    +0.000 A 
ATOM     15  C   UNL     1      43.910   5.314  12.024  0.00  0.00    +0.000 A 
ATOM     16  N   UNL     1      43.203   4.637  11.095  0.00  0.00    +0.000 NA
ATOM     17  C   UNL     1      43.817   4.428   9.906  0.00  0.00    +0.000 A 
ATOM     18  C   UNL     1      45.112   4.831   9.606  0.00  0.00    +0.000 A 
ATOM     19  C   UNL     1      45.813   5.526  10.591  0.00  0.00    +0.000 A 
BRANCH  18  20
ATOM     20  O   UNL     1      45.555   4.560   8.343  0.00  0.00    +0.000 OA
BRANCH  20  21
ATOM     21  C   UNL     1      45.633   3.174   7.990  0.00  0.00    +0.000 C 
BRANCH  21  22
ATOM     22  C   UNL     1      46.754   3.013   6.966  0.00  0.00    +0.000 C 
BRANCH  22  23
ATOM     23  O   UNL     1      46.866   4.189   6.166  0.00  0.00    +0.000 OA
ATOM     24  H   UNL     1      47.550   3.998   5.497  0.00  0.00    +0.000 HD
ENDBRANCH  22  23
ENDBRANCH  21  22
ENDBRANCH  20  21
ENDBRANCH  18  20
ENDBRANCH  13  14
ENDBRANCH   1  13
TORSDOF 9
ENDMDL
MODEL 9
REMARK VINA RESULT:    -4.964      3.435      6.994
REMARK INTER + INTRA:          -7.963
REMARK INTER:                  -7.284
REMARK INTRA:                  -0.679
REMARK UNBOUND:                -0.677
REMARK  Name = 
REMARK  9 active torsions:
REMARK  status: ('A' for Active; 'I' for Inactive)
REMARK    1  A    between atoms: N_1  and  C_2
REMARK    2  A    between atoms: C_2  and  C_3
REMARK    3  A    between atoms: C_6  and  N_7
REMARK    4  A    between atoms: N_7  and  C_8
REMARK    5  A    between atoms: C_8  and  C_9
REMARK    6  A    between atoms: C_13  and  O_14
REMARK    7  A    between atoms: O_14  and  C_15
REMARK    8  A    between atoms: C_15  and  C_16
REMARK    9  A    between atoms: C_16  and  O_17
REMARK                            x       y       z     vdW  Elec       q    Type
REMARK                         _______ _______ _______ _____ _____    ______ ____
ROOT
ATOM      1  N   UNL     1      46.798   6.186  11.970  0.00  0.00    +0.000 N 
ATOM      2  H   UNL     1      47.813   6.239  11.903  0.00  0.00    +0.000 HD
ENDROOT
BRANCH   1   6
ATOM      3  C   UNL     1      45.212  10.119  11.711  0.00  0.00    +0.000 A 
ATOM      4  C   UNL     1      44.416   9.016  11.387  0.00  0.00    +0.000 A 
ATOM      5  C   UNL     1      44.919   7.715  11.477  0.00  0.00    +0.000 A 
ATOM      6  C   UNL     1      46.221   7.464  11.928  0.00  0.00    +0.000 A 
ATOM      7  C   UNL     1      47.019   8.575  12.236  0.00  0.00    +0.000 A 
ATOM      8  C   UNL     1      46.525   9.885  12.133  0.00  0.00    +0.000 A 
BRANCH   3   9
ATOM      9  C   UNL     1      44.666  11.515  11.566  0.00  0.00    +0.000 C 
BRANCH   9  10
ATOM     10  N   UNL     1      43.244  11.502  11.235  0.00  0.00    +0.000 NA
ATOM     11  H   UNL     1      43.135  11.417  10.227  0.00  0.00    +0.000 HD
ATOM     12  H   UNL     1      42.840  12.399  11.497  0.00  0.00    +0.000 HD
ENDBRANCH   9  10
ENDBRANCH   3   9
ENDBRANCH   1   6
BRANCH   1  13
ATOM     13  C   UNL     1      46.332   5.247  12.980  0.00  0.00    +0.000 C 
BRANCH  13  14
ATOM     14  C   UNL     1      45.365   4.249  12.408  0.00  0.00    +0.000 A 
ATOM     15  C   UNL     1      44.296   3.790  13.171  0.00  0.00    +0.000 A 
ATOM     16  N   UNL     1      43.318   2.987  12.701  0.00  0.00    +0.000 NA
ATOM     17  C   UNL     1      43.408   2.631  11.397  0.00  0.00    +0.000 A 
ATOM     18  C   UNL     1      44.440   3.008  10.546  0.00  0.00    +0.000 A 
ATOM     19  C   UNL     1      45.433   3.835  11.068  0.00  0.00    +0.000 A 
BRANCH  18  20
ATOM     20  O   UNL     1      44.348   2.578   9.254  0.00  0.00    +0.000 OA
BRANCH  20  21
ATOM     21  C   UNL     1      45.590   2.353   8.577  0.00  0.00    +0.000 C 
BRANCH  21  22
ATOM     22  C   UNL     1      45.634   3.273   7.360  0.00  0.00    +0.000 C 
BRANCH  22  23
ATOM     23  O   UNL     1      46.429   4.425   7.637  0.00  0.00    +0.000 OA
ATOM     24  H   UNL     1      47.305   4.092   7.910  0.00  0.00    +0.000 HD
ENDBRANCH  22  23
ENDBRANCH  21  22
ENDBRANCH  20  21
ENDBRANCH  18  20
ENDBRANCH  13  14
ENDBRANCH   1  13
TORSDOF 9
ENDMDL
