MODEL 1
REMARK VINA RESULT:    -8.612      0.000      0.000
REMARK INTER + INTRA:         -11.849
REMARK INTER:                 -11.130
REMARK INTRA:                  -0.719
REMARK UNBOUND:                -0.719
REMARK  Name = 
REMARK  5 active torsions:
REMARK  status: ('A' for Active; 'I' for Inactive)
REMARK    1  A    between atoms: C_2  and  C_4
REMARK    2  A    between atoms: C_7  and  N_8
REMARK    3  A    between atoms: N_8  and  C_9
REMARK    4  A    between atoms: C_9  and  C_10
REMARK    5  A    between atoms: C_14  and  C_15
REMARK                            x       y       z     vdW  Elec       q    Type
REMARK                         _______ _______ _______ _____ _____    ______ ____
ROOT
ATOM      1  C   UNL     1      43.659   4.457  11.243  0.00  0.00    +0.000 C 
ENDROOT
BRANCH   1   2
ATOM      2  C   UNL     1      44.935   4.881  11.931  0.00  0.00    +0.000 A 
ATOM      3  C   UNL     1      45.533   4.039  12.874  0.00  0.00    +0.000 A 
ATOM      4  C   UNL     1      46.698   4.453  13.489  0.00  0.00    +0.000 A 
ATOM      5  N   UNL     1      47.301   5.634  13.235  0.00  0.00    +0.000 NA
ATOM      6  C   UNL     1      46.734   6.454  12.313  0.00  0.00    +0.000 A 
ATOM      7  C   UNL     1      45.555   6.103  11.648  0.00  0.00    +0.000 A 
BRANCH   6   8
ATOM      8  C   UNL     1      47.422   7.745  12.099  0.00  0.00    +0.000 A 
ATOM      9  C   UNL     1      46.729   8.964  12.255  0.00  0.00    +0.000 A 
ATOM     10  C   UNL     1      47.344  10.198  12.017  0.00  0.00    +0.000 A 
ATOM     11  C   UNL     1      48.676  10.242  11.624  0.00  0.00    +0.000 A 
ATOM     12  C   UNL     1      49.380   9.052  11.487  0.00  0.00    +0.000 A 
ATOM     13  F   UNL     1      50.666   9.088  11.113  0.00  0.00    +0.000 F 
ATOM     14  C   UNL     1      48.774   7.820  11.723  0.00  0.00    +0.000 A 
ENDBRANCH   6   8
ENDBRANCH   1   2
BRANCH   1  15
ATOM     15  N   UNL     1      43.765   4.797   9.830  0.00  0.00    +0.000 N 
ATOM     16  H   UNL     1      43.963   5.781   9.682  0.00  0.00    +0.000 HD
BRANCH  15  20
ATOM     17  C   UNL     1      46.313   2.296   7.805  0.00  0.00    +0.000 A 
ATOM     18  C   UNL     1      46.301   3.655   7.542  0.00  0.00    +0.000 A 
ATOM     19  N   UNL     1      45.436   4.512   8.151  0.00  0.00    +0.000 NA
ATOM     20  C   UNL     1      44.577   3.977   9.042  0.00  0.00    +0.000 A 
ATOM     21  C   UNL     1      44.590   2.592   9.274  0.00  0.00    +0.000 A 
ATOM     22  N   UNL     1      45.438   1.716   8.669  0.00  0.00    +0.000 NA
BRANCH  17  24
ATOM     23  N   UNL     1      48.372   2.076   6.546  0.00  0.00    +0.000 N 
ATOM     24  C   UNL     1      47.338   1.427   7.165  0.00  0.00    +0.000 C 
ATOM     25  O   UNL     1      47.260   0.205   7.179  0.00  0.00    +0.000 OA
ATOM     26  H   UNL     1      49.083   1.537   6.073  0.00  0.00    +0.000 HD
ATOM     27  H   UNL     1      48.409   3.090   6.540  0.00  0.00    +0.000 HD
ENDBRANCH  17  24
ENDBRANCH  15  20
ENDBRANCH   1  15
TORSDOF 5
ENDMDL
MODEL 2
REMARK VINA RESULT:    -8.538      2.705      3.959
REMARK INTER + INTRA:         -11.753
REMARK INTER:                 -11.169
REMARK INTRA:                  -0.584
REMARK UNBOUND:                -0.719
REMARK  Name = 
REMARK  5 active torsions:
REMARK  status: ('A' for Active; 'I' for Inactive)
REMARK    1  A    between atoms: C_2  and  C_4
REMARK    2  A    between atoms: C_7  and  N_8
REMARK    3  A    between atoms: N_8  and  C_9
REMARK    4  A    between atoms: C_9  and  C_10
REMARK    5  A    between atoms: C_14  and  C_15
REMARK                            x       y       z     vdW  Elec       q    Type
REMARK                         _______ _______ _______ _____ _____    ______ ____
ROOT
ATOM      1  C   UNL     1      43.913   4.741  11.302  0.00  0.00    +0.000 C 
ENDROOT
BRANCH   1   2
ATOM      2  C   UNL     1      45.154   5.359  11.903  0.00  0.00    +0.000 A 
ATOM      3  C   UNL     1      45.845   6.355  11.208  0.00  0.00    +0.000 A 
ATOM      4  C   UNL     1      46.977   6.901  11.780  0.00  0.00    +0.000 A 
ATOM      5  N   UNL     1      47.464   6.526  12.982  0.00  0.00    +0.000 NA
ATOM      6  C   UNL     1      46.795   5.565  13.670  0.00  0.00    +0.000 A 
ATOM      7  C   UNL     1      45.640   4.968  13.156  0.00  0.00    +0.000 A 
BRANCH   6   8
ATOM      8  C   UNL     1      47.392   5.174  14.965  0.00  0.00    +0.000 A 
ATOM      9  C   UNL     1      48.363   5.989  15.584  0.00  0.00    +0.000 A 
ATOM     10  C   UNL     1      48.974   5.621  16.788  0.00  0.00    +0.000 A 
ATOM     11  C   UNL     1      48.621   4.429  17.407  0.00  0.00    +0.000 A 
ATOM     12  C   UNL     1      47.651   3.625  16.822  0.00  0.00    +0.000 A 
ATOM     13  F   UNL     1      47.303   2.475  17.416  0.00  0.00    +0.000 F 
ATOM     14  C   UNL     1      47.037   3.985  15.624  0.00  0.00    +0.000 A 
ENDBRANCH   6   8
ENDBRANCH   1   2
BRANCH   1  15
ATOM     15  N   UNL     1      43.951   4.945   9.860  0.00  0.00    +0.000 N 
ATOM     16  H   UNL     1      44.204   5.894   9.609  0.00  0.00    +0.000 HD
BRANCH  15  20
ATOM     17  C   UNL     1      46.182   2.083   7.941  0.00  0.00    +0.000 A 
ATOM     18  C   UNL     1      46.295   3.418   7.591  0.00  0.00    +0.000 A 
ATOM     19  N   UNL     1      45.536   4.392   8.164  0.00  0.00    +0.000 NA
ATOM     20  C   UNL     1      44.656   4.001   9.108  0.00  0.00    +0.000 A 
ATOM     21  C   UNL     1      44.542   2.639   9.429  0.00  0.00    +0.000 A 
ATOM     22  N   UNL     1      45.281   1.648   8.862  0.00  0.00    +0.000 NA
BRANCH  17  24
ATOM     23  N   UNL     1      46.845  -0.229   7.647  0.00  0.00    +0.000 N 
ATOM     24  C   UNL     1      47.098   1.079   7.335  0.00  0.00    +0.000 C 
ATOM     25  O   UNL     1      48.031   1.400   6.609  0.00  0.00    +0.000 OA
ATOM     26  H   UNL     1      47.451  -0.952   7.285  0.00  0.00    +0.000 HD
ATOM     27  H   UNL     1      46.072  -0.469   8.258  0.00  0.00    +0.000 HD
ENDBRANCH  17  24
ENDBRANCH  15  20
ENDBRANCH   1  15
TORSDOF 5
ENDMDL
MODEL 3
REMARK VINA RESULT:    -8.280      3.671      6.814
REMARK INTER + INTRA:         -11.419
REMARK INTER:                 -10.670
REMARK INTRA:                  -0.749
REMARK UNBOUND:                -0.719
REMARK  Name = 
REMARK  5 active torsions:
REMARK  status: ('A' for Active; 'I' for Inactive)
REMARK    1  A    between atoms: C_2  and  C_4
REMARK    2  A    between atoms: C_7  and  N_8
REMARK    3  A    between atoms: N_8  and  C_9
REMARK    4  A    between atoms: C_9  and  C_10
REMARK    5  A    between atoms: C_14  and  C_15
REMARK                            x       y       z     vdW  Elec       q    Type
REMARK                         _______ _______ _______ _____ _____    ______ ____
ROOT
ATOM      1  C   UNL     1      43.310   6.338  11.341  0.00  0.00    +0.000 C 
ENDROOT
BRANCH   1   2
ATOM      2  C   UNL     1      43.571   4.891  10.992  0.00  0.00    +0.000 A 
ATOM      3  C   UNL     1      42.991   3.874  11.756  0.00  0.00    +0.000 A 
ATOM      4  C   UNL     1      43.248   2.560  11.415  0.00  0.00    +0.000 A 
ATOM      5  N   UNL     1      44.034   2.194  10.382  0.00  0.00    +0.000 NA
ATOM      6  C   UNL     1      44.594   3.174   9.627  0.00  0.00    +0.000 A 
ATOM      7  C   UNL     1      44.379   4.527   9.909  0.00  0.00    +0.000 A 
BRANCH   6   8
ATOM      8  C   UNL     1      45.469   2.714   8.528  0.00  0.00    +0.000 A 
ATOM      9  C   UNL     1      45.900   3.610   7.528  0.00  0.00    +0.000 A 
ATOM     10  C   UNL     1      46.694   3.191   6.455  0.00  0.00    +0.000 A 
ATOM     11  C   UNL     1      47.082   1.861   6.360  0.00  0.00    +0.000 A 
ATOM     12  C   UNL     1      46.684   0.968   7.347  0.00  0.00    +0.000 A 
ATOM     13  F   UNL     1      47.059  -0.316   7.264  0.00  0.00    +0.000 F 
ATOM     14  C   UNL     1      45.895   1.379   8.420  0.00  0.00    +0.000 A 
ENDBRANCH   6   8
ENDBRANCH   1   2
BRANCH   1  15
ATOM     15  N   UNL     1      43.894   6.608  12.648  0.00  0.00    +0.000 N 
ATOM     16  H   UNL     1      43.526   5.999  13.370  0.00  0.00    +0.000 HD
BRANCH  15  20
ATOM     17  C   UNL     1      47.955   6.898  13.168  0.00  0.00    +0.000 A 
ATOM     18  C   UNL     1      47.253   7.900  12.518  0.00  0.00    +0.000 A 
ATOM     19  N   UNL     1      45.916   7.820  12.277  0.00  0.00    +0.000 NA
ATOM     20  C   UNL     1      45.287   6.707  12.708  0.00  0.00    +0.000 A 
ATOM     21  C   UNL     1      46.023   5.695  13.342  0.00  0.00    +0.000 A 
ATOM     22  N   UNL     1      47.361   5.748  13.583  0.00  0.00    +0.000 NA
BRANCH  17  24
ATOM     23  N   UNL     1      50.208   7.354  12.401  0.00  0.00    +0.000 N 
ATOM     24  C   UNL     1      49.400   7.085  13.472  0.00  0.00    +0.000 C 
ATOM     25  O   UNL     1      49.846   6.992  14.609  0.00  0.00    +0.000 OA
ATOM     26  H   UNL     1      51.202   7.465  12.544  0.00  0.00    +0.000 HD
ATOM     27  H   UNL     1      49.816   7.417  11.467  0.00  0.00    +0.000 HD
ENDBRANCH  17  24
ENDBRANCH  15  20
ENDBRANCH   1  15
TORSDOF 5
ENDMDL
MODEL 4
REMARK VINA RESULT:    -8.273      3.538      6.804
REMARK INTER + INTRA:         -11.411
REMARK INTER:                 -10.608
REMARK INTRA:                  -0.802
REMARK UNBOUND:                -0.719
REMARK  Name = 
REMARK  5 active torsions:
REMARK  status: ('A' for Active; 'I' for Inactive)
REMARK    1  A    between atoms: C_2  and  C_4
REMARK    2  A    between atoms: C_7  and  N_8
REMARK    3  A    between atoms: N_8  and  C_9
REMARK    4  A    between atoms: C_9  and  C_10
REMARK    5  A    between atoms: C_14  and  C_15
REMARK                            x       y       z     vdW  Elec       q    Type
REMARK                         _______ _______ _______ _____ _____    ______ ____
ROOT
ATOM      1  C   UNL     1      43.332   6.363  11.343  0.00  0.00    +0.000 C 
ENDROOT
BRANCH   1   2
ATOM      2  C   UNL     1      43.588   4.912  11.010  0.00  0.00    +0.000 A 
ATOM      3  C   UNL     1      43.003   3.905  11.783  0.00  0.00    +0.000 A 
ATOM      4  C   UNL     1      43.256   2.586  11.457  0.00  0.00    +0.000 A 
ATOM      5  N   UNL     1      44.042   2.207  10.429  0.00  0.00    +0.000 NA
ATOM      6  C   UNL     1      44.607   3.177   9.665  0.00  0.00    +0.000 A 
ATOM      7  C   UNL     1      44.397   4.533   9.933  0.00  0.00    +0.000 A 
BRANCH   6   8
ATOM      8  C   UNL     1      45.483   2.702   8.573  0.00  0.00    +0.000 A 
ATOM      9  C   UNL     1      45.939   3.591   7.578  0.00  0.00    +0.000 A 
ATOM     10  C   UNL     1      46.733   3.159   6.510  0.00  0.00    +0.000 A 
ATOM     11  C   UNL     1      47.098   1.822   6.416  0.00  0.00    +0.000 A 
ATOM     12  C   UNL     1      46.675   0.936   7.400  0.00  0.00    +0.000 A 
ATOM     13  F   UNL     1      47.028  -0.355   7.318  0.00  0.00    +0.000 F 
ATOM     14  C   UNL     1      45.886   1.359   8.467  0.00  0.00    +0.000 A 
ENDBRANCH   6   8
ENDBRANCH   1   2
BRANCH   1  15
ATOM     15  N   UNL     1      43.855   6.628  12.677  0.00  0.00    +0.000 N 
ATOM     16  H   UNL     1      43.504   5.973  13.368  0.00  0.00    +0.000 HD
BRANCH  15  20
ATOM     17  C   UNL     1      47.918   7.212  12.662  0.00  0.00    +0.000 A 
ATOM     18  C   UNL     1      47.379   6.015  13.104  0.00  0.00    +0.000 A 
ATOM     19  N   UNL     1      46.037   5.799  13.176  0.00  0.00    +0.000 NA
ATOM     20  C   UNL     1      45.236   6.813  12.788  0.00  0.00    +0.000 A 
ATOM     21  C   UNL     1      45.805   8.024  12.366  0.00  0.00    +0.000 A 
ATOM     22  N   UNL     1      47.142   8.267  12.297  0.00  0.00    +0.000 NA
BRANCH  17  24
ATOM     23  N   UNL     1      50.103   7.349  13.701  0.00  0.00    +0.000 N 
ATOM     24  C   UNL     1      49.394   7.354  12.530  0.00  0.00    +0.000 C 
ATOM     25  O   UNL     1      49.944   7.481  11.443  0.00  0.00    +0.000 OA
ATOM     26  H   UNL     1      51.106   7.468  13.673  0.00  0.00    +0.000 HD
ATOM     27  H   UNL     1      49.623   7.252  14.589  0.00  0.00    +0.000 HD
ENDBRANCH  17  24
ENDBRANCH  15  20
ENDBRANCH   1  15
TORSDOF 5
ENDMDL
MODEL 5
REMARK VINA RESULT:    -8.215      3.885      7.258
REMARK INTER + INTRA:         -11.335
REMARK INTER:                 -10.946
REMARK INTRA:                  -0.390
REMARK UNBOUND:                -0.719
REMARK  Name = 
REMARK  5 active torsions:
REMARK  status: ('A' for Active; 'I' for Inactive)
REMARK    1  A    between atoms: C_2  and  C_4
REMARK    2  A    between atoms: C_7  and  N_8
REMARK    3  A    between atoms: N_8  and  C_9
REMARK    4  A    between atoms: C_9  and  C_10
REMARK    5  A    between atoms: C_14  and  C_15
REMARK                            x       y       z     vdW  Elec       q    Type
REMARK                         _______ _______ _______ _____ _____    ______ ____
ROOT
ATOM      1  C   UNL     1      45.814   7.023  12.464  0.00  0.00    +0.000 C 
ENDROOT
BRANCH   1   2
ATOM      2  C   UNL     1      45.080   6.054  11.566  0.00  0.00    +0.000 A 
ATOM      3  C   UNL     1      43.698   5.892  11.696  0.00  0.00    +0.000 A 
ATOM      4  C   UNL     1      43.053   4.999  10.863  0.00  0.00    +0.000 A 
ATOM      5  N   UNL     1      43.683   4.263   9.923  0.00  0.00    +0.000 NA
ATOM      6  C   UNL     1      45.024   4.421   9.781  0.00  0.00    +0.000 A 
ATOM      7  C   UNL     1      45.745   5.308  10.587  0.00  0.00    +0.000 A 
BRANCH   6   8
ATOM      8  C   UNL     1      45.662   3.568   8.757  0.00  0.00    +0.000 A 
ATOM      9  C   UNL     1      46.260   4.141   7.614  0.00  0.00    +0.000 A 
ATOM     10  C   UNL     1      46.834   3.354   6.610  0.00  0.00    +0.000 A 
ATOM     11  C   UNL     1      46.830   1.970   6.728  0.00  0.00    +0.000 A 
ATOM     12  C   UNL     1      46.265   1.390   7.857  0.00  0.00    +0.000 A 
ATOM     13  F   UNL     1      46.262   0.055   7.980  0.00  0.00    +0.000 F 
ATOM     14  C   UNL     1      45.693   2.167   8.862  0.00  0.00    +0.000 A 
ENDBRANCH   6   8
ENDBRANCH   1   2
BRANCH   1  15
ATOM     15  N   UNL     1      47.175   6.538  12.648  0.00  0.00    +0.000 N 
ATOM     16  H   UNL     1      47.865   7.277  12.562  0.00  0.00    +0.000 HD
BRANCH  15  20
ATOM     17  C   UNL     1      47.535   4.186  15.993  0.00  0.00    +0.000 A 
ATOM     18  C   UNL     1      48.201   5.397  15.907  0.00  0.00    +0.000 A 
ATOM     19  N   UNL     1      48.153   6.183  14.796  0.00  0.00    +0.000 NA
ATOM     20  C   UNL     1      47.412   5.730  13.763  0.00  0.00    +0.000 A 
ATOM     21  C   UNL     1      46.766   4.488  13.864  0.00  0.00    +0.000 A 
ATOM     22  N   UNL     1      46.809   3.682  14.960  0.00  0.00    +0.000 NA
BRANCH  17  24
ATOM     23  N   UNL     1      48.708   3.525  18.007  0.00  0.00    +0.000 N 
ATOM     24  C   UNL     1      47.563   3.416  17.266  0.00  0.00    +0.000 C 
ATOM     25  O   UNL     1      46.626   2.715  17.626  0.00  0.00    +0.000 OA
ATOM     26  H   UNL     1      48.793   3.003  18.868  0.00  0.00    +0.000 HD
ATOM     27  H   UNL     1      49.475   4.104  17.682  0.00  0.00    +0.000 HD
ENDBRANCH  17  24
ENDBRANCH  15  20
ENDBRANCH   1  15
TORSDOF 5
ENDMDL
MODEL 6
REMARK VINA RESULT:    -7.728      3.604      6.977
REMARK INTER + INTRA:         -10.706
REMARK INTER:                  -9.960
REMARK INTRA:                  -0.746
REMARK UNBOUND:                -0.719
REMARK  Name = 
REMARK  5 active torsions:
REMARK  status: ('A' for Active; 'I' for Inactive)
REMARK    1  A    between atoms: C_2  and  C_4
REMARK    2  A    between atoms: C_7  and  N_8
REMARK    3  A    between atoms: N_8  and  C_9
REMARK    4  A    between atoms: C_9  and  C_10
REMARK    5  A    between atoms: C_14  and  C_15
REMARK                            x       y       z     vdW  Elec       q    Type
REMARK                         _______ _______ _______ _____ _____    ______ ____
ROOT
ATOM      1  C   UNL     1      44.679   5.851  12.958  0.00  0.00    +0.000 C 
ENDROOT
BRANCH   1   2
ATOM      2  C   UNL     1      44.396   4.647  12.091  0.00  0.00    +0.000 A 
ATOM      3  C   UNL     1      43.399   3.739  12.459  0.00  0.00    +0.000 A 
ATOM      4  C   UNL     1      43.163   2.647  11.648  0.00  0.00    +0.000 A 
ATOM      5  N   UNL     1      43.844   2.397  10.510  0.00  0.00    +0.000 NA
ATOM      6  C   UNL     1      44.808   3.278  10.137  0.00  0.00    +0.000 A 
ATOM      7  C   UNL     1      45.103   4.408  10.907  0.00  0.00    +0.000 A 
BRANCH   6   8
ATOM      8  C   UNL     1      45.541   2.936   8.900  0.00  0.00    +0.000 A 
ATOM      9  C   UNL     1      45.900   3.941   7.977  0.00  0.00    +0.000 A 
ATOM     10  C   UNL     1      46.557   3.640   6.778  0.00  0.00    +0.000 A 
ATOM     11  C   UNL     1      46.878   2.322   6.477  0.00  0.00    +0.000 A 
ATOM     12  C   UNL     1      46.550   1.322   7.385  0.00  0.00    +0.000 A 
ATOM     13  F   UNL     1      46.860   0.050   7.103  0.00  0.00    +0.000 F 
ATOM     14  C   UNL     1      45.898   1.615   8.581  0.00  0.00    +0.000 A 
ENDBRANCH   6   8
ENDBRANCH   1   2
BRANCH   1  15
ATOM     15  N   UNL     1      45.973   5.660  13.600  0.00  0.00    +0.000 N 
ATOM     16  H   UNL     1      46.285   4.696  13.564  0.00  0.00    +0.000 HD
BRANCH  15  20
ATOM     17  C   UNL     1      48.848   8.255  12.241  0.00  0.00    +0.000 A 
ATOM     18  C   UNL     1      49.204   7.056  12.837  0.00  0.00    +0.000 A 
ATOM     19  N   UNL     1      48.286   6.191  13.349  0.00  0.00    +0.000 NA
ATOM     20  C   UNL     1      46.989   6.552  13.248  0.00  0.00    +0.000 A 
ATOM     21  C   UNL     1      46.655   7.783  12.663  0.00  0.00    +0.000 A 
ATOM     22  N   UNL     1      47.556   8.667  12.154  0.00  0.00    +0.000 NA
BRANCH  17  24
ATOM     23  N   UNL     1      49.465  10.306  11.107  0.00  0.00    +0.000 N 
ATOM     24  C   UNL     1      49.896   9.116  11.629  0.00  0.00    +0.000 C 
ATOM     25  O   UNL     1      51.073   8.779  11.581  0.00  0.00    +0.000 OA
ATOM     26  H   UNL     1      50.129  10.919  10.656  0.00  0.00    +0.000 HD
ATOM     27  H   UNL     1      48.484  10.557  11.151  0.00  0.00    +0.000 HD
ENDBRANCH  17  24
ENDBRANCH  15  20
ENDBRANCH   1  15
TORSDOF 5
ENDMDL
MODEL 7
REMARK VINA RESULT:    -7.533      4.251      7.713
REMARK INTER + INTRA:         -10.454
REMARK INTER:                  -9.857
REMARK INTRA:                  -0.597
REMARK UNBOUND:                -0.719
REMARK  Name = 
REMARK  5 active torsions:
REMARK  status: ('A' for Active; 'I' for Inactive)
REMARK    1  A    between atoms: C_2  and  C_4
REMARK    2  A    between atoms: C_7  and  N_8
REMARK    3  A    between atoms: N_8  and  C_9
REMARK    4  A    between atoms: C_9  and  C_10
REMARK    5  A    between atoms: C_14  and  C_15
REMARK                            x       y       z     vdW  Elec       q    Type
REMARK                         _______ _______ _______ _____ _____    ______ ____
ROOT
ATOM      1  C   UNL     1      45.911   6.528  12.996  0.00  0.00    +0.000 C 
ENDROOT
BRANCH   1   2
ATOM      2  C   UNL     1      45.132   5.774  11.944  0.00  0.00    +0.000 A 
ATOM      3  C   UNL     1      43.734   5.788  11.967  0.00  0.00    +0.000 A 
ATOM      4  C   UNL     1      43.047   5.088  10.994  0.00  0.00    +0.000 A 
ATOM      5  N   UNL     1      43.648   4.384  10.013  0.00  0.00    +0.000 NA
ATOM      6  C   UNL     1      45.006   4.373   9.974  0.00  0.00    +0.000 A 
ATOM      7  C   UNL     1      45.770   5.058  10.924  0.00  0.00    +0.000 A 
BRANCH   6   8
ATOM      8  C   UNL     1      45.607   3.561   8.896  0.00  0.00    +0.000 A 
ATOM      9  C   UNL     1      46.131   4.175   7.739  0.00  0.00    +0.000 A 
ATOM     10  C   UNL     1      46.668   3.427   6.686  0.00  0.00    +0.000 A 
ATOM     11  C   UNL     1      46.700   2.041   6.768  0.00  0.00    +0.000 A 
ATOM     12  C   UNL     1      46.208   1.420   7.909  0.00  0.00    +0.000 A 
ATOM     13  F   UNL     1      46.240   0.083   7.997  0.00  0.00    +0.000 F 
ATOM     14  C   UNL     1      45.674   2.158   8.963  0.00  0.00    +0.000 A 
ENDBRANCH   6   8
ENDBRANCH   1   2
BRANCH   1  15
ATOM     15  N   UNL     1      47.188   5.854  13.192  0.00  0.00    +0.000 N 
ATOM     16  H   UNL     1      47.964   6.371  12.793  0.00  0.00    +0.000 HD
BRANCH  15  20
ATOM     17  C   UNL     1      48.351   4.528  16.898  0.00  0.00    +0.000 A 
ATOM     18  C   UNL     1      47.535   3.750  16.094  0.00  0.00    +0.000 A 
ATOM     19  N   UNL     1      47.082   4.173  14.882  0.00  0.00    +0.000 NA
ATOM     20  C   UNL     1      47.471   5.402  14.483  0.00  0.00    +0.000 A 
ATOM     21  C   UNL     1      48.278   6.182  15.326  0.00  0.00    +0.000 A 
ATOM     22  N   UNL     1      48.733   5.784  16.545  0.00  0.00    +0.000 NA
BRANCH  17  24
ATOM     23  N   UNL     1      49.596   2.813  18.073  0.00  0.00    +0.000 N 
ATOM     24  C   UNL     1      48.877   3.973  18.175  0.00  0.00    +0.000 C 
ATOM     25  O   UNL     1      48.672   4.512  19.255  0.00  0.00    +0.000 OA
ATOM     26  H   UNL     1      49.955   2.377  18.911  0.00  0.00    +0.000 HD
ATOM     27  H   UNL     1      49.744   2.380  17.168  0.00  0.00    +0.000 HD
ENDBRANCH  17  24
ENDBRANCH  15  20
ENDBRANCH   1  15
TORSDOF 5
ENDMDL
MODEL 8
REMARK VINA RESULT:    -6.847      4.120      7.647
REMARK INTER + INTRA:          -9.567
REMARK INTER:                  -8.962
REMARK INTRA:                  -0.605
REMARK UNBOUND:                -0.719
REMARK  Name = 
REMARK  5 active torsions:
REMARK  status: ('A' for Active; 'I' for Inactive)
REMARK    1  A    between atoms: C_2  and  C_4
REMARK    2  A    between atoms: C_7  and  N_8
REMARK    3  A    between atoms: N_8  and  C_9
REMARK    4  A    between atoms: C_9  and  C_10
REMARK    5  A    between atoms: C_14  and  C_15
REMARK                            x       y       z     vdW  Elec       q    Type
REMARK                         _______ _______ _______ _____ _____    ______ ____
ROOT
ATOM      1  C   UNL     1      48.463   7.326  13.876  0.00  0.00    +0.000 C 
ENDROOT
BRANCH   1   2
ATOM      2  C   UNL     1      47.220   7.300  13.017  0.00  0.00    +0.000 A 
ATOM      3  C   UNL     1      46.351   8.395  13.014  0.00  0.00    +0.000 A 
ATOM      4  C   UNL     1      45.221   8.343  12.220  0.00  0.00    +0.000 A 
ATOM      5  N   UNL     1      44.900   7.289  11.442  0.00  0.00    +0.000 NA
ATOM      6  C   UNL     1      45.742   6.224  11.431  0.00  0.00    +0.000 A 
ATOM      7  C   UNL     1      46.906   6.204  12.206  0.00  0.00    +0.000 A 
BRANCH   6   8
ATOM      8  C   UNL     1      45.323   5.087  10.584  0.00  0.00    +0.000 A 
ATOM      9  C   UNL     1      44.565   4.028  11.125  0.00  0.00    +0.000 A 
ATOM     10  C   UNL     1      44.191   2.921  10.356  0.00  0.00    +0.000 A 
ATOM     11  C   UNL     1      44.562   2.850   9.019  0.00  0.00    +0.000 A 
ATOM     12  C   UNL     1      45.291   3.894   8.464  0.00  0.00    +0.000 A 
ATOM     13  F   UNL     1      45.648   3.835   7.174  0.00  0.00    +0.000 F 
ATOM     14  C   UNL     1      45.665   5.001   9.223  0.00  0.00    +0.000 A 
ENDBRANCH   6   8
ENDBRANCH   1   2
BRANCH   1  15
ATOM     15  N   UNL     1      48.064   7.155  15.267  0.00  0.00    +0.000 N 
ATOM     16  H   UNL     1      47.058   7.209  15.391  0.00  0.00    +0.000 HD
BRANCH  15  20
ATOM     17  C   UNL     1      49.932   3.960  17.041  0.00  0.00    +0.000 A 
ATOM     18  C   UNL     1      48.627   3.854  16.590  0.00  0.00    +0.000 A 
ATOM     19  N   UNL     1      47.952   4.902  16.044  0.00  0.00    +0.000 NA
ATOM     20  C   UNL     1      48.618   6.073  15.954  0.00  0.00    +0.000 A 
ATOM     21  C   UNL     1      49.931   6.163  16.440  0.00  0.00    +0.000 A 
ATOM     22  N   UNL     1      50.621   5.132  16.999  0.00  0.00    +0.000 NA
BRANCH  17  24
ATOM     23  N   UNL     1      51.575   2.976  18.526  0.00  0.00    +0.000 N 
ATOM     24  C   UNL     1      50.640   2.755  17.552  0.00  0.00    +0.000 C 
ATOM     25  O   UNL     1      50.411   1.631  17.120  0.00  0.00    +0.000 OA
ATOM     26  H   UNL     1      52.104   2.197  18.892  0.00  0.00    +0.000 HD
ATOM     27  H   UNL     1      51.752   3.917  18.860  0.00  0.00    +0.000 HD
ENDBRANCH  17  24
ENDBRANCH  15  20
ENDBRANCH   1  15
TORSDOF 5
ENDMDL
MODEL 9
REMARK VINA RESULT:    -6.350      5.618      8.556
REMARK INTER + INTRA:          -8.925
REMARK INTER:                  -8.285
REMARK INTRA:                  -0.640
REMARK UNBOUND:                -0.719
REMARK  Name = 
REMARK  5 active torsions:
REMARK  status: ('A' for Active; 'I' for Inactive)
REMARK    1  A    between atoms: C_2  and  C_4
REMARK    2  A    between atoms: C_7  and  N_8
REMARK    3  A    between atoms: N_8  and  C_9
REMARK    4  A    between atoms: C_9  and  C_10
REMARK    5  A    between atoms: C_14  and  C_15
REMARK                            x       y       z     vdW  Elec       q    Type
REMARK                         _______ _______ _______ _____ _____    ______ ____
ROOT
ATOM      1  C   UNL     1      47.833   4.176  16.970  0.00  0.00    +0.000 C 
ENDROOT
BRANCH   1   2
ATOM      2  C   UNL     1      47.655   4.905  15.659  0.00  0.00    +0.000 A 
ATOM      3  C   UNL     1      48.386   6.069  15.403  0.00  0.00    +0.000 A 
ATOM      4  C   UNL     1      48.202   6.716  14.197  0.00  0.00    +0.000 A 
ATOM      5  N   UNL     1      47.350   6.291  13.240  0.00  0.00    +0.000 NA
ATOM      6  C   UNL     1      46.644   5.155  13.475  0.00  0.00    +0.000 A 
ATOM      7  C   UNL     1      46.777   4.444  14.672  0.00  0.00    +0.000 A 
BRANCH   6   8
ATOM      8  C   UNL     1      45.705   4.755  12.405  0.00  0.00    +0.000 A 
ATOM      9  C   UNL     1      45.664   5.460  11.184  0.00  0.00    +0.000 A 
ATOM     10  C   UNL     1      44.757   5.128  10.171  0.00  0.00    +0.000 A 
ATOM     11  C   UNL     1      43.870   4.074  10.355  0.00  0.00    +0.000 A 
ATOM     12  C   UNL     1      43.912   3.356  11.543  0.00  0.00    +0.000 A 
ATOM     13  F   UNL     1      43.063   2.335  11.724  0.00  0.00    +0.000 F 
ATOM     14  C   UNL     1      44.814   3.679  12.555  0.00  0.00    +0.000 A 
ENDBRANCH   6   8
ENDBRANCH   1   2
BRANCH   1  15
ATOM     15  N   UNL     1      48.417   2.870  16.694  0.00  0.00    +0.000 N 
ATOM     16  H   UNL     1      48.334   2.608  15.718  0.00  0.00    +0.000 HD
BRANCH  15  20
ATOM     17  C   UNL     1      52.303   2.422  17.937  0.00  0.00    +0.000 A 
ATOM     18  C   UNL     1      51.625   1.369  17.345  0.00  0.00    +0.000 A 
ATOM     19  N   UNL     1      50.320   1.457  16.967  0.00  0.00    +0.000 NA
ATOM     20  C   UNL     1      49.701   2.635  17.191  0.00  0.00    +0.000 A 
ATOM     21  C   UNL     1      50.401   3.680  17.814  0.00  0.00    +0.000 A 
ATOM     22  N   UNL     1      51.701   3.610  18.210  0.00  0.00    +0.000 NA
BRANCH  17  24
ATOM     23  N   UNL     1      54.068   2.174  19.579  0.00  0.00    +0.000 N 
ATOM     24  C   UNL     1      53.751   2.286  18.252  0.00  0.00    +0.000 C 
ATOM     25  O   UNL     1      54.612   2.285  17.381  0.00  0.00    +0.000 OA
ATOM     26  H   UNL     1      55.038   2.105  19.852  0.00  0.00    +0.000 HD
ATOM     27  H   UNL     1      53.338   2.187  20.282  0.00  0.00    +0.000 HD
ENDBRANCH  17  24
ENDBRANCH  15  20
ENDBRANCH   1  15
TORSDOF 5
ENDMDL
