MODEL 1
REMARK VINA RESULT:    -9.103      0.000      0.000
REMARK INTER + INTRA:         -13.941
REMARK INTER:                 -12.828
REMARK INTRA:                  -1.112
REMARK UNBOUND:                -1.112
REMARK  Name = 
REMARK  7 active torsions:
REMARK  status: ('A' for Active; 'I' for Inactive)
REMARK    1  A    between atoms: C_2  and  C_4
REMARK    2  A    between atoms: C_7  and  N_8
REMARK    3  A    between atoms: N_8  and  C_9
REMARK    4  A    between atoms: C_9  and  C_10
REMARK    5  A    between atoms: C_10  and  C_13
REMARK    6  A    between atoms: C_18  and  O_19
REMARK    7  A    between atoms: O_19  and  C_20
REMARK                            x       y       z     vdW  Elec       q    Type
REMARK                         _______ _______ _______ _____ _____    ______ ____
ROOT
ATOM      1  C   UNL     1      43.832   4.725  12.515  0.00  0.00    +0.000 C 
ATOM      2  F   UNL     1      42.913   5.520  13.138  0.00  0.00    +0.000 F 
ATOM      3  F   UNL     1      43.683   3.489  13.086  0.00  0.00    +0.000 F 
ENDROOT
BRANCH   1   4
ATOM      4  C   UNL     1      45.240   5.261  12.677  0.00  0.00    +0.000 A 
ATOM      5  C   UNL     1      45.794   6.143  11.738  0.00  0.00    +0.000 A 
ATOM      6  C   UNL     1      47.090   6.632  11.915  0.00  0.00    +0.000 A 
ATOM      7  C   UNL     1      47.843   6.243  13.025  0.00  0.00    +0.000 A 
ATOM      8  F   UNL     1      49.068   6.760  13.170  0.00  0.00    +0.000 F 
ATOM      9  C   UNL     1      47.314   5.358  13.963  0.00  0.00    +0.000 A 
ATOM     10  C   UNL     1      46.017   4.873  13.782  0.00  0.00    +0.000 A 
BRANCH   9  11
ATOM     11  O   UNL     1      47.917   4.921  15.114  0.00  0.00    +0.000 OA
BRANCH  11  12
ATOM     12  C   UNL     1      47.177   4.128  16.065  0.00  0.00    +0.000 C 
ATOM     13  C   UNL     1      47.160   4.589  17.537  0.00  0.00    +0.000 C 
ATOM     14  N   UNL     1      47.627   3.265  17.977  0.00  0.00    +0.000 NA
ATOM     15  C   UNL     1      47.955   2.901  16.592  0.00  0.00    +0.000 C 
ATOM     16  H   UNL     1      46.898   2.684  18.392  0.00  0.00    +0.000 HD
ENDBRANCH  11  12
ENDBRANCH   9  11
ENDBRANCH   1   4
BRANCH   1  17
ATOM     17  C   UNL     1      43.465   4.604  11.015  0.00  0.00    +0.000 C 
BRANCH  17  18
ATOM     18  N   UNL     1      43.780   3.283  10.451  0.00  0.00    +0.000 N 
ATOM     19  H   UNL     1      43.723   2.513  11.117  0.00  0.00    +0.000 HD
BRANCH  18  23
ATOM     20  C   UNL     1      46.617   2.657   7.400  0.00  0.00    +0.000 A 
ATOM     21  C   UNL     1      46.175   3.953   7.671  0.00  0.00    +0.000 A 
ATOM     22  C   UNL     1      45.250   4.177   8.696  0.00  0.00    +0.000 A 
ATOM     23  C   UNL     1      44.771   3.127   9.488  0.00  0.00    +0.000 A 
ATOM     24  C   UNL     1      45.215   1.830   9.192  0.00  0.00    +0.000 A 
ATOM     25  C   UNL     1      46.124   1.592   8.155  0.00  0.00    +0.000 A 
BRANCH  20  27
ATOM     26  N   UNL     1      47.510   3.199   5.203  0.00  0.00    +0.000 N 
ATOM     27  C   UNL     1      47.565   2.376   6.292  0.00  0.00    +0.000 C 
ATOM     28  O   UNL     1      48.385   1.468   6.359  0.00  0.00    +0.000 OA
ATOM     29  H   UNL     1      48.228   3.061   4.502  0.00  0.00    +0.000 HD
ATOM     30  H   UNL     1      47.036   4.091   5.221  0.00  0.00    +0.000 HD
ENDBRANCH  20  27
ENDBRANCH  18  23
ENDBRANCH  17  18
ENDBRANCH   1  17
TORSDOF 7
ENDMDL
MODEL 2
REMARK VINA RESULT:    -7.934      1.587      1.992
REMARK INTER + INTRA:         -12.292
REMARK INTER:                 -11.408
REMARK INTRA:                  -0.884
REMARK UNBOUND:                -1.112
REMARK  Name = 
REMARK  7 active torsions:
REMARK  status: ('A' for Active; 'I' for Inactive)
REMARK    1  A    between atoms: C_2  and  C_4
REMARK    2  A    between atoms: C_7  and  N_8
REMARK    3  A    between atoms: N_8  and  C_9
REMARK    4  A    between atoms: C_9  and  C_10
REMARK    5  A    between atoms: C_10  and  C_13
REMARK    6  A    between atoms: C_18  and  O_19
REMARK    7  A    between atoms: O_19  and  C_20
REMARK                            x       y       z     vdW  Elec       q    Type
REMARK                         _______ _______ _______ _____ _____    ______ ____
ROOT
ATOM      1  C   UNL     1      44.140   5.232  12.457  0.00  0.00    +0.000 C 
ATOM      2  F   UNL     1      43.087   5.617  13.238  0.00  0.00    +0.000 F 
ATOM      3  F   UNL     1      44.460   3.970  12.882  0.00  0.00    +0.000 F 
ENDROOT
BRANCH   1   4
ATOM      4  C   UNL     1      45.310   6.188  12.583  0.00  0.00    +0.000 A 
ATOM      5  C   UNL     1      45.272   7.462  11.999  0.00  0.00    +0.000 A 
ATOM      6  C   UNL     1      46.358   8.330  12.138  0.00  0.00    +0.000 A 
ATOM      7  C   UNL     1      47.489   7.931  12.854  0.00  0.00    +0.000 A 
ATOM      8  F   UNL     1      48.493   8.805  12.986  0.00  0.00    +0.000 F 
ATOM      9  C   UNL     1      47.550   6.664  13.431  0.00  0.00    +0.000 A 
ATOM     10  C   UNL     1      46.460   5.802  13.291  0.00  0.00    +0.000 A 
BRANCH   9  11
ATOM     11  O   UNL     1      48.571   6.154  14.190  0.00  0.00    +0.000 OA
BRANCH  11  12
ATOM     12  C   UNL     1      48.923   6.774  15.444  0.00  0.00    +0.000 C 
ATOM     13  C   UNL     1      50.413   7.056  15.723  0.00  0.00    +0.000 C 
ATOM     14  N   UNL     1      50.332   6.330  17.000  0.00  0.00    +0.000 NA
ATOM     15  C   UNL     1      49.022   5.781  16.625  0.00  0.00    +0.000 C 
ATOM     16  H   UNL     1      50.303   6.935  17.821  0.00  0.00    +0.000 HD
ENDBRANCH  11  12
ENDBRANCH   9  11
ENDBRANCH   1   4
BRANCH   1  17
ATOM     17  C   UNL     1      43.672   5.136  10.984  0.00  0.00    +0.000 C 
BRANCH  17  18
ATOM     18  N   UNL     1      43.654   3.756  10.475  0.00  0.00    +0.000 N 
ATOM     19  H   UNL     1      43.475   3.045  11.185  0.00  0.00    +0.000 HD
BRANCH  18  23
ATOM     20  C   UNL     1      46.471   2.662   7.540  0.00  0.00    +0.000 A 
ATOM     21  C   UNL     1      45.894   1.674   8.340  0.00  0.00    +0.000 A 
ATOM     22  C   UNL     1      44.941   2.022   9.304  0.00  0.00    +0.000 A 
ATOM     23  C   UNL     1      44.522   3.347   9.469  0.00  0.00    +0.000 A 
ATOM     24  C   UNL     1      45.122   4.328   8.666  0.00  0.00    +0.000 A 
ATOM     25  C   UNL     1      46.092   3.994   7.714  0.00  0.00    +0.000 A 
BRANCH  20  27
ATOM     26  N   UNL     1      47.562   3.113   5.413  0.00  0.00    +0.000 N 
ATOM     27  C   UNL     1      47.516   2.337   6.537  0.00  0.00    +0.000 C 
ATOM     28  O   UNL     1      48.326   1.436   6.717  0.00  0.00    +0.000 OA
ATOM     29  H   UNL     1      48.341   2.949   4.788  0.00  0.00    +0.000 HD
ATOM     30  H   UNL     1      47.089   4.004   5.350  0.00  0.00    +0.000 HD
ENDBRANCH  20  27
ENDBRANCH  18  23
ENDBRANCH  17  18
ENDBRANCH   1  17
TORSDOF 7
ENDMDL
MODEL 3
REMARK VINA RESULT:    -7.858      1.632      2.162
REMARK INTER + INTRA:         -12.185
REMARK INTER:                 -11.770
REMARK INTRA:                  -0.415
REMARK UNBOUND:                -1.112
REMARK  Name = 
REMARK  7 active torsions:
REMARK  status: ('A' for Active; 'I' for Inactive)
REMARK    1  A    between atoms: C_2  and  C_4
REMARK    2  A    between atoms: C_7  and  N_8
REMARK    3  A    between atoms: N_8  and  C_9
REMARK    4  A    between atoms: C_9  and  C_10
REMARK    5  A    between atoms: C_10  and  C_13
REMARK    6  A    between atoms: C_18  and  O_19
REMARK    7  A    between atoms: O_19  and  C_20
REMARK                            x       y       z     vdW  Elec       q    Type
REMARK                         _______ _______ _______ _____ _____    ______ ____
ROOT
ATOM      1  C   UNL     1      45.015   6.573  11.334  0.00  0.00    +0.000 C 
ATOM      2  F   UNL     1      45.528   6.825  10.094  0.00  0.00    +0.000 F 
ATOM      3  F   UNL     1      44.150   7.605  11.581  0.00  0.00    +0.000 F 
ENDROOT
BRANCH   1   4
ATOM      4  C   UNL     1      46.105   6.481  12.384  0.00  0.00    +0.000 A 
ATOM      5  C   UNL     1      47.112   7.452  12.471  0.00  0.00    +0.000 A 
ATOM      6  C   UNL     1      48.100   7.351  13.454  0.00  0.00    +0.000 A 
ATOM      7  C   UNL     1      48.091   6.281  14.352  0.00  0.00    +0.000 A 
ATOM      8  F   UNL     1      49.039   6.241  15.295  0.00  0.00    +0.000 F 
ATOM      9  C   UNL     1      47.105   5.299  14.272  0.00  0.00    +0.000 A 
ATOM     10  C   UNL     1      46.119   5.406  13.289  0.00  0.00    +0.000 A 
BRANCH   9  11
ATOM     11  O   UNL     1      46.949   4.221  15.104  0.00  0.00    +0.000 OA
BRANCH  11  12
ATOM     12  C   UNL     1      47.812   4.057  16.249  0.00  0.00    +0.000 C 
ATOM     13  C   UNL     1      48.061   2.628  16.773  0.00  0.00    +0.000 C 
ATOM     14  N   UNL     1      47.644   3.030  18.125  0.00  0.00    +0.000 NA
ATOM     15  C   UNL     1      47.102   4.292  17.602  0.00  0.00    +0.000 C 
ATOM     16  H   UNL     1      48.417   3.156  18.779  0.00  0.00    +0.000 HD
ENDBRANCH  11  12
ENDBRANCH   9  11
ENDBRANCH   1   4
BRANCH   1  17
ATOM     17  C   UNL     1      44.193   5.262  11.287  0.00  0.00    +0.000 C 
BRANCH  17  18
ATOM     18  N   UNL     1      43.832   4.858   9.919  0.00  0.00    +0.000 N 
ATOM     19  H   UNL     1      42.830   4.852   9.730  0.00  0.00    +0.000 HD
BRANCH  18  23
ATOM     20  C   UNL     1      46.204   1.964   7.983  0.00  0.00    +0.000 A 
ATOM     21  C   UNL     1      45.258   1.557   8.925  0.00  0.00    +0.000 A 
ATOM     22  C   UNL     1      44.449   2.506   9.559  0.00  0.00    +0.000 A 
ATOM     23  C   UNL     1      44.542   3.868   9.249  0.00  0.00    +0.000 A 
ATOM     24  C   UNL     1      45.508   4.259   8.310  0.00  0.00    +0.000 A 
ATOM     25  C   UNL     1      46.336   3.321   7.685  0.00  0.00    +0.000 A 
BRANCH  20  27
ATOM     26  N   UNL     1      46.893  -0.334   7.579  0.00  0.00    +0.000 N 
ATOM     27  C   UNL     1      47.109   0.991   7.321  0.00  0.00    +0.000 C 
ATOM     28  O   UNL     1      47.991   1.349   6.551  0.00  0.00    +0.000 OA
ATOM     29  H   UNL     1      47.447  -0.990   7.044  0.00  0.00    +0.000 HD
ATOM     30  H   UNL     1      46.036  -0.672   7.993  0.00  0.00    +0.000 HD
ENDBRANCH  20  27
ENDBRANCH  18  23
ENDBRANCH  17  18
ENDBRANCH   1  17
TORSDOF 7
ENDMDL
MODEL 4
REMARK VINA RESULT:    -7.787      2.777      3.139
REMARK INTER + INTRA:         -12.086
REMARK INTER:                 -11.123
REMARK INTRA:                  -0.963
REMARK UNBOUND:                -1.112
REMARK  Name = 
REMARK  7 active torsions:
REMARK  status: ('A' for Active; 'I' for Inactive)
REMARK    1  A    between atoms: C_2  and  C_4
REMARK    2  A    between atoms: C_7  and  N_8
REMARK    3  A    between atoms: N_8  and  C_9
REMARK    4  A    between atoms: C_9  and  C_10
REMARK    5  A    between atoms: C_10  and  C_13
REMARK    6  A    between atoms: C_18  and  O_19
REMARK    7  A    between atoms: O_19  and  C_20
REMARK                            x       y       z     vdW  Elec       q    Type
REMARK                         _______ _______ _______ _____ _____    ______ ____
ROOT
ATOM      1  C   UNL     1      43.987   5.330  12.238  0.00  0.00    +0.000 C 
ATOM      2  F   UNL     1      43.027   5.242  13.206  0.00  0.00    +0.000 F 
ATOM      3  F   UNL     1      44.913   4.376  12.564  0.00  0.00    +0.000 F 
ENDROOT
BRANCH   1   4
ATOM      4  C   UNL     1      44.596   6.717  12.178  0.00  0.00    +0.000 A 
ATOM      5  C   UNL     1      44.038   7.720  11.373  0.00  0.00    +0.000 A 
ATOM      6  C   UNL     1      44.610   8.994  11.342  0.00  0.00    +0.000 A 
ATOM      7  C   UNL     1      45.744   9.274  12.109  0.00  0.00    +0.000 A 
ATOM      8  F   UNL     1      46.241  10.515  12.071  0.00  0.00    +0.000 F 
ATOM      9  C   UNL     1      46.320   8.286  12.906  0.00  0.00    +0.000 A 
ATOM     10  C   UNL     1      45.742   7.015  12.935  0.00  0.00    +0.000 A 
BRANCH   9  11
ATOM     11  O   UNL     1      47.402   8.426  13.735  0.00  0.00    +0.000 OA
BRANCH  11  12
ATOM     12  C   UNL     1      48.725   8.581  13.182  0.00  0.00    +0.000 C 
ATOM     13  C   UNL     1      49.039   7.883  11.843  0.00  0.00    +0.000 C 
ATOM     14  N   UNL     1      50.213   7.225  12.438  0.00  0.00    +0.000 NA
ATOM     15  C   UNL     1      49.769   7.612  13.784  0.00  0.00    +0.000 C 
ATOM     16  H   UNL     1      51.104   7.639  12.166  0.00  0.00    +0.000 HD
ENDBRANCH  11  12
ENDBRANCH   9  11
ENDBRANCH   1   4
BRANCH   1  17
ATOM     17  C   UNL     1      43.368   4.948  10.871  0.00  0.00    +0.000 C 
BRANCH  17  18
ATOM     18  N   UNL     1      43.715   3.584  10.445  0.00  0.00    +0.000 N 
ATOM     19  H   UNL     1      43.672   2.884  11.186  0.00  0.00    +0.000 HD
BRANCH  18  23
ATOM     20  C   UNL     1      46.570   2.738   7.465  0.00  0.00    +0.000 A 
ATOM     21  C   UNL     1      46.188   4.061   7.693  0.00  0.00    +0.000 A 
ATOM     22  C   UNL     1      45.257   4.357   8.695  0.00  0.00    +0.000 A 
ATOM     23  C   UNL     1      44.714   3.353   9.505  0.00  0.00    +0.000 A 
ATOM     24  C   UNL     1      45.098   2.029   9.252  0.00  0.00    +0.000 A 
ATOM     25  C   UNL     1      46.013   1.719   8.239  0.00  0.00    +0.000 A 
BRANCH  20  27
ATOM     26  N   UNL     1      47.467   3.121   5.237  0.00  0.00    +0.000 N 
ATOM     27  C   UNL     1      47.522   2.380   6.383  0.00  0.00    +0.000 C 
ATOM     28  O   UNL     1      48.346   1.484   6.518  0.00  0.00    +0.000 OA
ATOM     29  H   UNL     1      48.187   2.936   4.550  0.00  0.00    +0.000 HD
ATOM     30  H   UNL     1      46.989   4.010   5.189  0.00  0.00    +0.000 HD
ENDBRANCH  20  27
ENDBRANCH  18  23
ENDBRANCH  17  18
ENDBRANCH   1  17
TORSDOF 7
ENDMDL
MODEL 5
REMARK VINA RESULT:    -7.633      3.080      4.865
REMARK INTER + INTRA:         -11.869
REMARK INTER:                 -10.961
REMARK INTRA:                  -0.908
REMARK UNBOUND:                -1.112
REMARK  Name = 
REMARK  7 active torsions:
REMARK  status: ('A' for Active; 'I' for Inactive)
REMARK    1  A    between atoms: C_2  and  C_4
REMARK    2  A    between atoms: C_7  and  N_8
REMARK    3  A    between atoms: N_8  and  C_9
REMARK    4  A    between atoms: C_9  and  C_10
REMARK    5  A    between atoms: C_10  and  C_13
REMARK    6  A    between atoms: C_18  and  O_19
REMARK    7  A    between atoms: O_19  and  C_20
REMARK                            x       y       z     vdW  Elec       q    Type
REMARK                         _______ _______ _______ _____ _____    ______ ____
ROOT
ATOM      1  C   UNL     1      44.779   5.300  12.245  0.00  0.00    +0.000 C 
ATOM      2  F   UNL     1      44.030   4.963  13.336  0.00  0.00    +0.000 F 
ATOM      3  F   UNL     1      45.644   4.254  12.066  0.00  0.00    +0.000 F 
ENDROOT
BRANCH   1   4
ATOM      4  C   UNL     1      45.508   6.613  12.448  0.00  0.00    +0.000 A 
ATOM      5  C   UNL     1      46.744   6.662  13.109  0.00  0.00    +0.000 A 
ATOM      6  C   UNL     1      47.402   7.883  13.275  0.00  0.00    +0.000 A 
ATOM      7  C   UNL     1      46.831   9.061  12.789  0.00  0.00    +0.000 A 
ATOM      8  F   UNL     1      47.511  10.203  12.945  0.00  0.00    +0.000 F 
ATOM      9  C   UNL     1      45.598   9.034  12.141  0.00  0.00    +0.000 A 
ATOM     10  C   UNL     1      44.945   7.811  11.975  0.00  0.00    +0.000 A 
BRANCH   9  11
ATOM     11  O   UNL     1      44.939  10.098  11.581  0.00  0.00    +0.000 OA
BRANCH  11  12
ATOM     12  C   UNL     1      43.752   9.882  10.791  0.00  0.00    +0.000 C 
ATOM     13  C   UNL     1      43.644  10.598   9.430  0.00  0.00    +0.000 C 
ATOM     14  N   UNL     1      42.342  11.168   9.810  0.00  0.00    +0.000 NA
ATOM     15  C   UNL     1      42.556  10.769  11.208  0.00  0.00    +0.000 C 
ATOM     16  H   UNL     1      41.544  10.711   9.371  0.00  0.00    +0.000 HD
ENDBRANCH  11  12
ENDBRANCH   9  11
ENDBRANCH   1   4
BRANCH   1  17
ATOM     17  C   UNL     1      43.859   5.376  11.001  0.00  0.00    +0.000 C 
BRANCH  17  18
ATOM     18  N   UNL     1      43.573   4.057  10.416  0.00  0.00    +0.000 N 
ATOM     19  H   UNL     1      43.142   3.393  11.059  0.00  0.00    +0.000 HD
BRANCH  18  23
ATOM     20  C   UNL     1      46.379   2.431   7.728  0.00  0.00    +0.000 A 
ATOM     21  C   UNL     1      45.677   1.581   8.585  0.00  0.00    +0.000 A 
ATOM     22  C   UNL     1      44.726   2.107   9.467  0.00  0.00    +0.000 A 
ATOM     23  C   UNL     1      44.435   3.475   9.493  0.00  0.00    +0.000 A 
ATOM     24  C   UNL     1      45.160   4.315   8.636  0.00  0.00    +0.000 A 
ATOM     25  C   UNL     1      46.128   3.803   7.765  0.00  0.00    +0.000 A 
BRANCH  20  27
ATOM     26  N   UNL     1      48.475   2.746   6.535  0.00  0.00    +0.000 N 
ATOM     27  C   UNL     1      47.426   1.916   6.810  0.00  0.00    +0.000 C 
ATOM     28  O   UNL     1      47.374   0.785   6.342  0.00  0.00    +0.000 OA
ATOM     29  H   UNL     1      49.231   2.347   5.992  0.00  0.00    +0.000 HD
ATOM     30  H   UNL     1      48.678   3.565   7.091  0.00  0.00    +0.000 HD
ENDBRANCH  20  27
ENDBRANCH  18  23
ENDBRANCH  17  18
ENDBRANCH   1  17
TORSDOF 7
ENDMDL
MODEL 6
REMARK VINA RESULT:    -7.583      2.319      3.068
REMARK INTER + INTRA:         -11.798
REMARK INTER:                 -11.398
REMARK INTRA:                  -0.400
REMARK UNBOUND:                -1.112
REMARK  Name = 
REMARK  7 active torsions:
REMARK  status: ('A' for Active; 'I' for Inactive)
REMARK    1  A    between atoms: C_2  and  C_4
REMARK    2  A    between atoms: C_7  and  N_8
REMARK    3  A    between atoms: N_8  and  C_9
REMARK    4  A    between atoms: C_9  and  C_10
REMARK    5  A    between atoms: C_10  and  C_13
REMARK    6  A    between atoms: C_18  and  O_19
REMARK    7  A    between atoms: O_19  and  C_20
REMARK                            x       y       z     vdW  Elec       q    Type
REMARK                         _______ _______ _______ _____ _____    ______ ____
ROOT
ATOM      1  C   UNL     1      45.148   6.252  11.562  0.00  0.00    +0.000 C 
ATOM      2  F   UNL     1      45.897   6.437  10.435  0.00  0.00    +0.000 F 
ATOM      3  F   UNL     1      44.515   7.448  11.773  0.00  0.00    +0.000 F 
ENDROOT
BRANCH   1   4
ATOM      4  C   UNL     1      46.005   5.846  12.745  0.00  0.00    +0.000 A 
ATOM      5  C   UNL     1      45.620   4.800  13.595  0.00  0.00    +0.000 A 
ATOM      6  C   UNL     1      46.432   4.437  14.672  0.00  0.00    +0.000 A 
ATOM      7  C   UNL     1      47.629   5.117  14.911  0.00  0.00    +0.000 A 
ATOM      8  F   UNL     1      48.389   4.716  15.936  0.00  0.00    +0.000 F 
ATOM      9  C   UNL     1      48.022   6.168  14.084  0.00  0.00    +0.000 A 
ATOM     10  C   UNL     1      47.208   6.525  13.007  0.00  0.00    +0.000 A 
BRANCH   9  11
ATOM     11  O   UNL     1      49.181   6.895  14.173  0.00  0.00    +0.000 OA
BRANCH  11  12
ATOM     12  C   UNL     1      49.230   8.085  14.987  0.00  0.00    +0.000 C 
ATOM     13  C   UNL     1      48.571   8.040  16.381  0.00  0.00    +0.000 C 
ATOM     14  N   UNL     1      47.772   9.234  16.063  0.00  0.00    +0.000 NA
ATOM     15  C   UNL     1      48.134   9.121  14.644  0.00  0.00    +0.000 C 
ATOM     16  H   UNL     1      48.108  10.089  16.505  0.00  0.00    +0.000 HD
ENDBRANCH  11  12
ENDBRANCH   9  11
ENDBRANCH   1   4
BRANCH   1  17
ATOM     17  C   UNL     1      44.065   5.181  11.282  0.00  0.00    +0.000 C 
BRANCH  17  18
ATOM     18  N   UNL     1      43.848   4.945   9.847  0.00  0.00    +0.000 N 
ATOM     19  H   UNL     1      42.874   5.004   9.551  0.00  0.00    +0.000 HD
BRANCH  18  23
ATOM     20  C   UNL     1      46.334   2.208   7.828  0.00  0.00    +0.000 A 
ATOM     21  C   UNL     1      45.417   1.737   8.770  0.00  0.00    +0.000 A 
ATOM     22  C   UNL     1      44.570   2.634   9.431  0.00  0.00    +0.000 A 
ATOM     23  C   UNL     1      44.597   4.004   9.149  0.00  0.00    +0.000 A 
ATOM     24  C   UNL     1      45.534   4.460   8.211  0.00  0.00    +0.000 A 
ATOM     25  C   UNL     1      46.400   3.575   7.559  0.00  0.00    +0.000 A 
BRANCH  20  27
ATOM     26  N   UNL     1      48.338   1.863   6.493  0.00  0.00    +0.000 N 
ATOM     27  C   UNL     1      47.277   1.292   7.138  0.00  0.00    +0.000 C 
ATOM     28  O   UNL     1      47.136   0.076   7.170  0.00  0.00    +0.000 OA
ATOM     29  H   UNL     1      49.028   1.226   6.116  0.00  0.00    +0.000 HD
ATOM     30  H   UNL     1      48.622   2.819   6.659  0.00  0.00    +0.000 HD
ENDBRANCH  20  27
ENDBRANCH  18  23
ENDBRANCH  17  18
ENDBRANCH   1  17
TORSDOF 7
ENDMDL
MODEL 7
REMARK VINA RESULT:    -7.490      2.384      3.581
REMARK INTER + INTRA:         -11.668
REMARK INTER:                 -10.849
REMARK INTRA:                  -0.819
REMARK UNBOUND:                -1.112
REMARK  Name = 
REMARK  7 active torsions:
REMARK  status: ('A' for Active; 'I' for Inactive)
REMARK    1  A    between atoms: C_2  and  C_4
REMARK    2  A    between atoms: C_7  and  N_8
REMARK    3  A    between atoms: N_8  and  C_9
REMARK    4  A    between atoms: C_9  and  C_10
REMARK    5  A    between atoms: C_10  and  C_13
REMARK    6  A    between atoms: C_18  and  O_19
REMARK    7  A    between atoms: O_19  and  C_20
REMARK                            x       y       z     vdW  Elec       q    Type
REMARK                         _______ _______ _______ _____ _____    ______ ____
ROOT
ATOM      1  C   UNL     1      43.366   5.544  12.050  0.00  0.00    +0.000 C 
ATOM      2  F   UNL     1      42.632   6.694  12.113  0.00  0.00    +0.000 F 
ATOM      3  F   UNL     1      42.650   4.622  12.767  0.00  0.00    +0.000 F 
ENDROOT
BRANCH   1   4
ATOM      4  C   UNL     1      44.763   5.738  12.606  0.00  0.00    +0.000 A 
ATOM      5  C   UNL     1      45.477   4.668  13.162  0.00  0.00    +0.000 A 
ATOM      6  C   UNL     1      46.768   4.869  13.658  0.00  0.00    +0.000 A 
ATOM      7  C   UNL     1      47.350   6.137  13.607  0.00  0.00    +0.000 A 
ATOM      8  F   UNL     1      48.599   6.277  14.067  0.00  0.00    +0.000 F 
ATOM      9  C   UNL     1      46.650   7.216  13.069  0.00  0.00    +0.000 A 
ATOM     10  C   UNL     1      45.362   7.008  12.573  0.00  0.00    +0.000 A 
BRANCH   9  11
ATOM     11  O   UNL     1      47.107   8.499  12.919  0.00  0.00    +0.000 OA
BRANCH  11  12
ATOM     12  C   UNL     1      48.150   8.792  11.966  0.00  0.00    +0.000 C 
ATOM     13  C   UNL     1      49.585   8.984  12.495  0.00  0.00    +0.000 C 
ATOM     14  N   UNL     1      49.680  10.288  11.821  0.00  0.00    +0.000 NA
ATOM     15  C   UNL     1      48.233  10.284  11.571  0.00  0.00    +0.000 C 
ATOM     16  H   UNL     1      50.243  10.277  10.971  0.00  0.00    +0.000 HD
ENDBRANCH  11  12
ENDBRANCH   9  11
ENDBRANCH   1   4
BRANCH   1  17
ATOM     17  C   UNL     1      43.427   5.060  10.580  0.00  0.00    +0.000 C 
BRANCH  17  18
ATOM     18  N   UNL     1      43.885   3.668  10.451  0.00  0.00    +0.000 N 
ATOM     19  H   UNL     1      44.079   3.203  11.337  0.00  0.00    +0.000 HD
BRANCH  18  23
ATOM     20  C   UNL     1      46.603   2.618   7.408  0.00  0.00    +0.000 A 
ATOM     21  C   UNL     1      46.021   1.615   8.186  0.00  0.00    +0.000 A 
ATOM     22  C   UNL     1      45.100   1.949   9.185  0.00  0.00    +0.000 A 
ATOM     23  C   UNL     1      44.718   3.276   9.409  0.00  0.00    +0.000 A 
ATOM     24  C   UNL     1      45.323   4.272   8.628  0.00  0.00    +0.000 A 
ATOM     25  C   UNL     1      46.261   3.951   7.641  0.00  0.00    +0.000 A 
BRANCH  20  27
ATOM     26  N   UNL     1      47.661   3.128   5.279  0.00  0.00    +0.000 N 
ATOM     27  C   UNL     1      47.616   2.306   6.369  0.00  0.00    +0.000 C 
ATOM     28  O   UNL     1      48.401   1.374   6.492  0.00  0.00    +0.000 OA
ATOM     29  H   UNL     1      48.421   2.968   4.629  0.00  0.00    +0.000 HD
ATOM     30  H   UNL     1      47.215   4.035   5.265  0.00  0.00    +0.000 HD
ENDBRANCH  20  27
ENDBRANCH  18  23
ENDBRANCH  17  18
ENDBRANCH   1  17
TORSDOF 7
ENDMDL
MODEL 8
REMARK VINA RESULT:    -7.403      2.352      8.163
REMARK INTER + INTRA:         -11.545
REMARK INTER:                 -10.782
REMARK INTRA:                  -0.763
REMARK UNBOUND:                -1.112
REMARK  Name = 
REMARK  7 active torsions:
REMARK  status: ('A' for Active; 'I' for Inactive)
REMARK    1  A    between atoms: C_2  and  C_4
REMARK    2  A    between atoms: C_7  and  N_8
REMARK    3  A    between atoms: N_8  and  C_9
REMARK    4  A    between atoms: C_9  and  C_10
REMARK    5  A    between atoms: C_10  and  C_13
REMARK    6  A    between atoms: C_18  and  O_19
REMARK    7  A    between atoms: O_19  and  C_20
REMARK                            x       y       z     vdW  Elec       q    Type
REMARK                         _______ _______ _______ _____ _____    ______ ____
ROOT
ATOM      1  C   UNL     1      45.723   6.178  11.364  0.00  0.00    +0.000 C 
ATOM      2  F   UNL     1      44.895   7.211  11.029  0.00  0.00    +0.000 F 
ATOM      3  F   UNL     1      46.977   6.590  10.998  0.00  0.00    +0.000 F 
ENDROOT
BRANCH   1   4
ATOM      4  C   UNL     1      45.322   4.890  10.673  0.00  0.00    +0.000 A 
ATOM      5  C   UNL     1      44.643   3.877  11.364  0.00  0.00    +0.000 A 
ATOM      6  C   UNL     1      44.274   2.704  10.702  0.00  0.00    +0.000 A 
ATOM      7  C   UNL     1      44.584   2.531   9.351  0.00  0.00    +0.000 A 
ATOM      8  F   UNL     1      44.185   1.404   8.751  0.00  0.00    +0.000 F 
ATOM      9  C   UNL     1      45.270   3.522   8.651  0.00  0.00    +0.000 A 
ATOM     10  C   UNL     1      45.634   4.694   9.317  0.00  0.00    +0.000 A 
BRANCH   9  11
ATOM     11  O   UNL     1      45.605   3.508   7.322  0.00  0.00    +0.000 OA
BRANCH  11  12
ATOM     12  C   UNL     1      46.979   3.318   6.923  0.00  0.00    +0.000 C 
ATOM     13  C   UNL     1      47.263   2.939   5.455  0.00  0.00    +0.000 C 
ATOM     14  N   UNL     1      48.045   1.770   5.887  0.00  0.00    +0.000 NA
ATOM     15  C   UNL     1      47.538   1.916   7.258  0.00  0.00    +0.000 C 
ATOM     16  H   UNL     1      49.054   1.893   5.808  0.00  0.00    +0.000 HD
ENDBRANCH  11  12
ENDBRANCH   9  11
ENDBRANCH   1   4
BRANCH   1  17
ATOM     17  C   UNL     1      45.712   5.997  12.902  0.00  0.00    +0.000 C 
BRANCH  17  18
ATOM     18  N   UNL     1      46.979   6.390  13.537  0.00  0.00    +0.000 N 
ATOM     19  H   UNL     1      47.683   6.746  12.892  0.00  0.00    +0.000 HD
BRANCH  18  23
ATOM     20  C   UNL     1      48.475   4.408  16.940  0.00  0.00    +0.000 A 
ATOM     21  C   UNL     1      47.519   3.776  16.143  0.00  0.00    +0.000 A 
ATOM     22  C   UNL     1      47.031   4.415  14.998  0.00  0.00    +0.000 A 
ATOM     23  C   UNL     1      47.502   5.673  14.608  0.00  0.00    +0.000 A 
ATOM     24  C   UNL     1      48.452   6.299  15.429  0.00  0.00    +0.000 A 
ATOM     25  C   UNL     1      48.932   5.679  16.587  0.00  0.00    +0.000 A 
BRANCH  20  27
ATOM     26  N   UNL     1      50.038   2.919  18.061  0.00  0.00    +0.000 N 
ATOM     27  C   UNL     1      48.986   3.781  18.186  0.00  0.00    +0.000 C 
ATOM     28  O   UNL     1      48.511   4.046  19.283  0.00  0.00    +0.000 OA
ATOM     29  H   UNL     1      50.442   2.579  18.925  0.00  0.00    +0.000 HD
ATOM     30  H   UNL     1      50.607   2.875  17.227  0.00  0.00    +0.000 HD
ENDBRANCH  20  27
ENDBRANCH  18  23
ENDBRANCH  17  18
ENDBRANCH   1  17
TORSDOF 7
ENDMDL
MODEL 9
REMARK VINA RESULT:    -6.896      3.264      7.386
REMARK INTER + INTRA:         -10.830
REMARK INTER:                  -9.992
REMARK INTRA:                  -0.838
REMARK UNBOUND:                -1.112
REMARK  Name = 
REMARK  7 active torsions:
REMARK  status: ('A' for Active; 'I' for Inactive)
REMARK    1  A    between atoms: C_2  and  C_4
REMARK    2  A    between atoms: C_7  and  N_8
REMARK    3  A    between atoms: N_8  and  C_9
REMARK    4  A    between atoms: C_9  and  C_10
REMARK    5  A    between atoms: C_10  and  C_13
REMARK    6  A    between atoms: C_18  and  O_19
REMARK    7  A    between atoms: O_19  and  C_20
REMARK                            x       y       z     vdW  Elec       q    Type
REMARK                         _______ _______ _______ _____ _____    ______ ____
ROOT
ATOM      1  C   UNL     1      44.656   5.974  11.240  0.00  0.00    +0.000 C 
ATOM      2  F   UNL     1      43.393   6.478  11.370  0.00  0.00    +0.000 F 
ATOM      3  F   UNL     1      45.343   6.912  10.517  0.00  0.00    +0.000 F 
ENDROOT
BRANCH   1   4
ATOM      4  C   UNL     1      44.652   4.620  10.559  0.00  0.00    +0.000 A 
ATOM      5  C   UNL     1      44.149   3.483  11.207  0.00  0.00    +0.000 A 
ATOM      6  C   UNL     1      44.146   2.248  10.555  0.00  0.00    +0.000 A 
ATOM      7  C   UNL     1      44.650   2.138   9.256  0.00  0.00    +0.000 A 
ATOM      8  F   UNL     1      44.601   0.942   8.660  0.00  0.00    +0.000 F 
ATOM      9  C   UNL     1      45.166   3.254   8.601  0.00  0.00    +0.000 A 
ATOM     10  C   UNL     1      45.164   4.487   9.257  0.00  0.00    +0.000 A 
BRANCH   9  11
ATOM     11  O   UNL     1      45.655   3.304   7.322  0.00  0.00    +0.000 OA
BRANCH  11  12
ATOM     12  C   UNL     1      47.063   3.110   7.074  0.00  0.00    +0.000 C 
ATOM     13  C   UNL     1      47.535   2.992   5.611  0.00  0.00    +0.000 C 
ATOM     14  N   UNL     1      48.209   1.720   5.910  0.00  0.00    +0.000 NA
ATOM     15  C   UNL     1      47.522   1.640   7.206  0.00  0.00    +0.000 C 
ATOM     16  H   UNL     1      49.223   1.795   5.987  0.00  0.00    +0.000 HD
ENDBRANCH  11  12
ENDBRANCH   9  11
ENDBRANCH   1   4
BRANCH   1  17
ATOM     17  C   UNL     1      45.310   5.877  12.641  0.00  0.00    +0.000 C 
BRANCH  17  18
ATOM     18  N   UNL     1      45.745   7.182  13.164  0.00  0.00    +0.000 N 
ATOM     19  H   UNL     1      45.042   7.918  13.102  0.00  0.00    +0.000 HD
BRANCH  18  23
ATOM     20  C   UNL     1      49.688   8.453  12.400  0.00  0.00    +0.000 A 
ATOM     21  C   UNL     1      48.729   9.388  12.793  0.00  0.00    +0.000 A 
ATOM     22  C   UNL     1      47.421   8.975  13.071  0.00  0.00    +0.000 A 
ATOM     23  C   UNL     1      47.051   7.628  12.994  0.00  0.00    +0.000 A 
ATOM     24  C   UNL     1      48.023   6.705  12.584  0.00  0.00    +0.000 A 
ATOM     25  C   UNL     1      49.328   7.110  12.283  0.00  0.00    +0.000 A 
BRANCH  20  27
ATOM     26  N   UNL     1      51.944   7.865  11.708  0.00  0.00    +0.000 N 
ATOM     27  C   UNL     1      51.073   8.859  12.055  0.00  0.00    +0.000 C 
ATOM     28  O   UNL     1      51.419  10.034  12.047  0.00  0.00    +0.000 OA
ATOM     29  H   UNL     1      52.854   8.163  11.376  0.00  0.00    +0.000 HD
ATOM     30  H   UNL     1      51.635   6.936  11.460  0.00  0.00    +0.000 HD
ENDBRANCH  20  27
ENDBRANCH  18  23
ENDBRANCH  17  18
ENDBRANCH   1  17
TORSDOF 7
ENDMDL
