MODEL 1
REMARK VINA RESULT:    -7.876      0.000      0.000
REMARK INTER + INTRA:         -10.182
REMARK INTER:                  -9.718
REMARK INTRA:                  -0.463
REMARK UNBOUND:                -0.463
REMARK  Name = 
REMARK  4 active torsions:
REMARK  status: ('A' for Active; 'I' for Inactive)
REMARK    1  A    between atoms: C_2  and  C_4
REMARK    2  A    between atoms: C_7  and  N_8
REMARK    3  A    between atoms: N_8  and  C_9
REMARK    4  A    between atoms: C_9  and  C_10
REMARK                            x       y       z     vdW  Elec       q    Type
REMARK                         _______ _______ _______ _____ _____    ______ ____
ROOT
ATOM      1  C   UNL     1      46.394   2.318   7.746  0.00  0.00    +0.000 A 
ATOM      2  C   UNL     1      46.375   3.707   7.603  0.00  0.00    +0.000 A 
ATOM      3  C   UNL     1      45.481   4.470   8.359  0.00  0.00    +0.000 A 
ATOM      4  C   UNL     1      44.572   3.867   9.239  0.00  0.00    +0.000 A 
ATOM      5  C   UNL     1      44.615   2.478   9.388  0.00  0.00    +0.000 A 
ATOM      6  C   UNL     1      45.511   1.707   8.639  0.00  0.00    +0.000 A 
ENDROOT
BRANCH   1   8
ATOM      7  N   UNL     1      48.439   2.052   6.450  0.00  0.00    +0.000 N 
ATOM      8  C   UNL     1      47.321   1.460   6.963  0.00  0.00    +0.000 C 
ATOM      9  O   UNL     1      47.115   0.262   6.814  0.00  0.00    +0.000 OA
ATOM     10  H   UNL     1      49.113   1.432   6.020  0.00  0.00    +0.000 HD
ATOM     11  H   UNL     1      48.763   2.956   6.760  0.00  0.00    +0.000 HD
ENDBRANCH   1   8
BRANCH   4  12
ATOM     12  N   UNL     1      43.713   4.707   9.950  0.00  0.00    +0.000 N 
ATOM     13  H   UNL     1      43.904   5.685   9.734  0.00  0.00    +0.000 HD
BRANCH  12  14
ATOM     14  C   UNL     1      43.566   4.520  11.395  0.00  0.00    +0.000 C 
BRANCH  14  15
ATOM     15  C   UNL     1      44.863   4.873  12.100  0.00  0.00    +0.000 A 
ATOM     16  C   UNL     1      45.498   6.084  11.816  0.00  0.00    +0.000 A 
ATOM     17  C   UNL     1      46.677   6.402  12.482  0.00  0.00    +0.000 A 
ATOM     18  C   UNL     1      47.187   5.512  13.416  0.00  0.00    +0.000 A 
ATOM     19  C   UNL     1      46.498   4.331  13.643  0.00  0.00    +0.000 A 
ATOM     20  N   UNL     1      45.353   3.991  13.009  0.00  0.00    +0.000 NA
ENDBRANCH  14  15
ENDBRANCH  12  14
ENDBRANCH   4  12
TORSDOF 4
ENDMDL
MODEL 2
REMARK VINA RESULT:    -7.222      2.749      5.938
REMARK INTER + INTRA:          -9.375
REMARK INTER:                  -8.981
REMARK INTRA:                  -0.394
REMARK UNBOUND:                -0.463
REMARK  Name = 
REMARK  4 active torsions:
REMARK  status: ('A' for Active; 'I' for Inactive)
REMARK    1  A    between atoms: C_2  and  C_4
REMARK    2  A    between atoms: C_7  and  N_8
REMARK    3  A    between atoms: N_8  and  C_9
REMARK    4  A    between atoms: C_9  and  C_10
REMARK                            x       y       z     vdW  Elec       q    Type
REMARK                         _______ _______ _______ _____ _____    ______ ____
ROOT
ATOM      1  C   UNL     1      46.531   5.606  12.792  0.00  0.00    +0.000 A 
ATOM      2  C   UNL     1      46.254   6.199  11.558  0.00  0.00    +0.000 A 
ATOM      3  C   UNL     1      45.470   5.518  10.622  0.00  0.00    +0.000 A 
ATOM      4  C   UNL     1      44.982   4.230  10.880  0.00  0.00    +0.000 A 
ATOM      5  C   UNL     1      45.250   3.656  12.125  0.00  0.00    +0.000 A 
ATOM      6  C   UNL     1      46.029   4.333  13.071  0.00  0.00    +0.000 A 
ENDROOT
BRANCH   1   8
ATOM      7  N   UNL     1      47.155   7.620  14.013  0.00  0.00    +0.000 N 
ATOM      8  C   UNL     1      47.363   6.284  13.820  0.00  0.00    +0.000 C 
ATOM      9  O   UNL     1      48.175   5.667  14.498  0.00  0.00    +0.000 OA
ATOM     10  H   UNL     1      47.645   8.039  14.792  0.00  0.00    +0.000 HD
ATOM     11  H   UNL     1      46.337   8.096  13.661  0.00  0.00    +0.000 HD
ENDBRANCH   1   8
BRANCH   4  12
ATOM     12  N   UNL     1      44.212   3.625   9.885  0.00  0.00    +0.000 N 
ATOM     13  H   UNL     1      43.218   3.743  10.076  0.00  0.00    +0.000 HD
BRANCH  12  14
ATOM     14  C   UNL     1      44.499   2.240   9.503  0.00  0.00    +0.000 C 
BRANCH  14  15
ATOM     15  C   UNL     1      45.534   2.212   8.392  0.00  0.00    +0.000 A 
ATOM     16  C   UNL     1      45.698   3.329   7.570  0.00  0.00    +0.000 A 
ATOM     17  C   UNL     1      46.661   3.295   6.568  0.00  0.00    +0.000 A 
ATOM     18  C   UNL     1      47.440   2.156   6.416  0.00  0.00    +0.000 A 
ATOM     19  C   UNL     1      47.218   1.091   7.273  0.00  0.00    +0.000 A 
ATOM     20  N   UNL     1      46.286   1.090   8.253  0.00  0.00    +0.000 NA
ENDBRANCH  14  15
ENDBRANCH  12  14
ENDBRANCH   4  12
TORSDOF 4
ENDMDL
MODEL 3
REMARK VINA RESULT:    -7.147      2.771      6.156
REMARK INTER + INTRA:          -9.282
REMARK INTER:                  -8.893
REMARK INTRA:                  -0.389
REMARK UNBOUND:                -0.463
REMARK  Name = 
REMARK  4 active torsions:
REMARK  status: ('A' for Active; 'I' for Inactive)
REMARK    1  A    between atoms: C_2  and  C_4
REMARK    2  A    between atoms: C_7  and  N_8
REMARK    3  A    between atoms: N_8  and  C_9
REMARK    4  A    between atoms: C_9  and  C_10
REMARK                            x       y       z     vdW  Elec       q    Type
REMARK                         _______ _______ _______ _____ _____    ______ ____
ROOT
ATOM      1  C   UNL     1      46.575   4.873  13.648  0.00  0.00    +0.000 A 
ATOM      2  C   UNL     1      45.688   3.931  13.123  0.00  0.00    +0.000 A 
ATOM      3  C   UNL     1      45.167   4.110  11.838  0.00  0.00    +0.000 A 
ATOM      4  C   UNL     1      45.488   5.239  11.073  0.00  0.00    +0.000 A 
ATOM      5  C   UNL     1      46.392   6.164  11.601  0.00  0.00    +0.000 A 
ATOM      6  C   UNL     1      46.924   5.990  12.884  0.00  0.00    +0.000 A 
ENDROOT
BRANCH   1   8
ATOM      7  N   UNL     1      47.899   5.777  15.482  0.00  0.00    +0.000 N 
ATOM      8  C   UNL     1      47.154   4.735  15.010  0.00  0.00    +0.000 C 
ATOM      9  O   UNL     1      46.941   3.746  15.700  0.00  0.00    +0.000 OA
ATOM     10  H   UNL     1      48.187   5.715  16.450  0.00  0.00    +0.000 HD
ATOM     11  H   UNL     1      47.884   6.691  15.054  0.00  0.00    +0.000 HD
ENDBRANCH   1   8
BRANCH   4  12
ATOM     12  N   UNL     1      44.918   5.336   9.802  0.00  0.00    +0.000 N 
ATOM     13  H   UNL     1      44.273   6.124   9.755  0.00  0.00    +0.000 HD
BRANCH  12  14
ATOM     14  C   UNL     1      44.318   4.146   9.195  0.00  0.00    +0.000 C 
BRANCH  14  15
ATOM     15  C   UNL     1      45.365   3.382   8.405  0.00  0.00    +0.000 A 
ATOM     16  C   UNL     1      45.571   2.025   8.661  0.00  0.00    +0.000 A 
ATOM     17  C   UNL     1      46.522   1.333   7.918  0.00  0.00    +0.000 A 
ATOM     18  C   UNL     1      47.234   2.007   6.936  0.00  0.00    +0.000 A 
ATOM     19  C   UNL     1      46.971   3.353   6.741  0.00  0.00    +0.000 A 
ATOM     20  N   UNL     1      46.057   4.055   7.451  0.00  0.00    +0.000 NA
ENDBRANCH  14  15
ENDBRANCH  12  14
ENDBRANCH   4  12
TORSDOF 4
ENDMDL
MODEL 4
REMARK VINA RESULT:    -6.758      3.153      6.161
REMARK INTER + INTRA:          -8.802
REMARK INTER:                  -8.390
REMARK INTRA:                  -0.413
REMARK UNBOUND:                -0.463
REMARK  Name = 
REMARK  4 active torsions:
REMARK  status: ('A' for Active; 'I' for Inactive)
REMARK    1  A    between atoms: C_2  and  C_4
REMARK    2  A    between atoms: C_7  and  N_8
REMARK    3  A    between atoms: N_8  and  C_9
REMARK    4  A    between atoms: C_9  and  C_10
REMARK                            x       y       z     vdW  Elec       q    Type
REMARK                         _______ _______ _______ _____ _____    ______ ____
ROOT
ATOM      1  C   UNL     1      44.602   7.135  11.411  0.00  0.00    +0.000 A 
ATOM      2  C   UNL     1      45.838   6.516  11.210  0.00  0.00    +0.000 A 
ATOM      3  C   UNL     1      45.895   5.138  10.985  0.00  0.00    +0.000 A 
ATOM      4  C   UNL     1      44.737   4.350  10.992  0.00  0.00    +0.000 A 
ATOM      5  C   UNL     1      43.505   4.983  11.175  0.00  0.00    +0.000 A 
ATOM      6  C   UNL     1      43.437   6.364  11.394  0.00  0.00    +0.000 A 
ENDROOT
BRANCH   1   8
ATOM      7  N   UNL     1      44.938   9.064  12.860  0.00  0.00    +0.000 N 
ATOM      8  C   UNL     1      44.485   8.595  11.659  0.00  0.00    +0.000 C 
ATOM      9  O   UNL     1      44.040   9.357  10.811  0.00  0.00    +0.000 OA
ATOM     10  H   UNL     1      44.958  10.069  12.966  0.00  0.00    +0.000 HD
ATOM     11  H   UNL     1      45.530   8.515  13.466  0.00  0.00    +0.000 HD
ENDBRANCH   1   8
BRANCH   4  12
ATOM     12  N   UNL     1      44.890   2.981  10.763  0.00  0.00    +0.000 N 
ATOM     13  H   UNL     1      45.859   2.698  10.901  0.00  0.00    +0.000 HD
BRANCH  12  14
ATOM     14  C   UNL     1      44.356   2.399   9.530  0.00  0.00    +0.000 C 
BRANCH  14  15
ATOM     15  C   UNL     1      45.449   2.312   8.480  0.00  0.00    +0.000 A 
ATOM     16  C   UNL     1      45.736   3.423   7.685  0.00  0.00    +0.000 A 
ATOM     17  C   UNL     1      46.752   3.334   6.739  0.00  0.00    +0.000 A 
ATOM     18  C   UNL     1      47.459   2.147   6.616  0.00  0.00    +0.000 A 
ATOM     19  C   UNL     1      47.116   1.089   7.443  0.00  0.00    +0.000 A 
ATOM     20  N   UNL     1      46.131   1.143   8.368  0.00  0.00    +0.000 NA
ENDBRANCH  14  15
ENDBRANCH  12  14
ENDBRANCH   4  12
TORSDOF 4
ENDMDL
MODEL 5
REMARK VINA RESULT:    -6.246      2.974      6.271
REMARK INTER + INTRA:          -8.170
REMARK INTER:                  -7.741
REMARK INTRA:                  -0.428
REMARK UNBOUND:                -0.463
REMARK  Name = 
REMARK  4 active torsions:
REMARK  status: ('A' for Active; 'I' for Inactive)
REMARK    1  A    between atoms: C_2  and  C_4
REMARK    2  A    between atoms: C_7  and  N_8
REMARK    3  A    between atoms: N_8  and  C_9
REMARK    4  A    between atoms: C_9  and  C_10
REMARK                            x       y       z     vdW  Elec       q    Type
REMARK                         _______ _______ _______ _____ _____    ______ ____
ROOT
ATOM      1  C   UNL     1      47.206   6.551  13.231  0.00  0.00    +0.000 A 
ATOM      2  C   UNL     1      47.069   5.201  13.559  0.00  0.00    +0.000 A 
ATOM      3  C   UNL     1      46.122   4.418  12.893  0.00  0.00    +0.000 A 
ATOM      4  C   UNL     1      45.275   4.967  11.922  0.00  0.00    +0.000 A 
ATOM      5  C   UNL     1      45.436   6.315  11.588  0.00  0.00    +0.000 A 
ATOM      6  C   UNL     1      46.386   7.105  12.245  0.00  0.00    +0.000 A 
ENDROOT
BRANCH   1   8
ATOM      7  N   UNL     1      47.970   7.718  15.227  0.00  0.00    +0.000 N 
ATOM      8  C   UNL     1      48.193   7.429  13.911  0.00  0.00    +0.000 C 
ATOM      9  O   UNL     1      49.188   7.847  13.332  0.00  0.00    +0.000 OA
ATOM     10  H   UNL     1      48.708   8.220  15.704  0.00  0.00    +0.000 HD
ATOM     11  H   UNL     1      47.315   7.198  15.792  0.00  0.00    +0.000 HD
ENDBRANCH   1   8
BRANCH   4  12
ATOM     12  N   UNL     1      44.357   4.111  11.312  0.00  0.00    +0.000 N 
ATOM     13  H   UNL     1      44.608   3.137  11.475  0.00  0.00    +0.000 HD
BRANCH  12  14
ATOM     14  C   UNL     1      44.008   4.322   9.905  0.00  0.00    +0.000 C 
BRANCH  14  15
ATOM     15  C   UNL     1      45.021   3.632   9.009  0.00  0.00    +0.000 A 
ATOM     16  C   UNL     1      45.207   2.252   9.109  0.00  0.00    +0.000 A 
ATOM     17  C   UNL     1      46.125   1.630   8.271  0.00  0.00    +0.000 A 
ATOM     18  C   UNL     1      46.828   2.396   7.351  0.00  0.00    +0.000 A 
ATOM     19  C   UNL     1      46.587   3.760   7.312  0.00  0.00    +0.000 A 
ATOM     20  N   UNL     1      45.704   4.394   8.117  0.00  0.00    +0.000 NA
ENDBRANCH  14  15
ENDBRANCH  12  14
ENDBRANCH   4  12
TORSDOF 4
ENDMDL
MODEL 6
REMARK VINA RESULT:    -5.662      3.055      4.825
REMARK INTER + INTRA:          -7.449
REMARK INTER:                  -7.115
REMARK INTRA:                  -0.335
REMARK UNBOUND:                -0.463
REMARK  Name = 
REMARK  4 active torsions:
REMARK  status: ('A' for Active; 'I' for Inactive)
REMARK    1  A    between atoms: C_2  and  C_4
REMARK    2  A    between atoms: C_7  and  N_8
REMARK    3  A    between atoms: N_8  and  C_9
REMARK    4  A    between atoms: C_9  and  C_10
REMARK                            x       y       z     vdW  Elec       q    Type
REMARK                         _______ _______ _______ _____ _____    ______ ____
ROOT
ATOM      1  C   UNL     1      45.284   4.288  10.327  0.00  0.00    +0.000 A 
ATOM      2  C   UNL     1      45.171   3.329  11.336  0.00  0.00    +0.000 A 
ATOM      3  C   UNL     1      45.474   3.674  12.657  0.00  0.00    +0.000 A 
ATOM      4  C   UNL     1      45.926   4.959  12.989  0.00  0.00    +0.000 A 
ATOM      5  C   UNL     1      46.015   5.913  11.973  0.00  0.00    +0.000 A 
ATOM      6  C   UNL     1      45.708   5.579  10.649  0.00  0.00    +0.000 A 
ENDROOT
BRANCH   1   8
ATOM      7  N   UNL     1      44.111   2.947   8.666  0.00  0.00    +0.000 N 
ATOM      8  C   UNL     1      44.980   3.972   8.907  0.00  0.00    +0.000 C 
ATOM      9  O   UNL     1      45.455   4.628   7.988  0.00  0.00    +0.000 OA
ATOM     10  H   UNL     1      43.827   2.821   7.703  0.00  0.00    +0.000 HD
ATOM     11  H   UNL     1      43.518   2.560   9.385  0.00  0.00    +0.000 HD
ENDBRANCH   1   8
BRANCH   4  12
ATOM     12  N   UNL     1      46.209   5.212  14.332  0.00  0.00    +0.000 N 
ATOM     13  H   UNL     1      45.564   5.903  14.713  0.00  0.00    +0.000 HD
BRANCH  12  14
ATOM     14  C   UNL     1      47.585   5.523  14.727  0.00  0.00    +0.000 C 
BRANCH  14  15
ATOM     15  C   UNL     1      47.953   4.751  15.980  0.00  0.00    +0.000 A 
ATOM     16  C   UNL     1      47.108   3.741  16.446  0.00  0.00    +0.000 A 
ATOM     17  C   UNL     1      47.466   3.031  17.586  0.00  0.00    +0.000 A 
ATOM     18  C   UNL     1      48.658   3.337  18.227  0.00  0.00    +0.000 A 
ATOM     19  C   UNL     1      49.443   4.351  17.703  0.00  0.00    +0.000 A 
ATOM     20  N   UNL     1      49.120   5.064  16.600  0.00  0.00    +0.000 NA
ENDBRANCH  14  15
ENDBRANCH  12  14
ENDBRANCH   4  12
TORSDOF 4
ENDMDL
MODEL 7
REMARK VINA RESULT:    -5.470      3.108      5.041
REMARK INTER + INTRA:          -7.213
REMARK INTER:                  -6.874
REMARK INTRA:                  -0.338
REMARK UNBOUND:                -0.463
REMARK  Name = 
REMARK  4 active torsions:
REMARK  status: ('A' for Active; 'I' for Inactive)
REMARK    1  A    between atoms: C_2  and  C_4
REMARK    2  A    between atoms: C_7  and  N_8
REMARK    3  A    between atoms: N_8  and  C_9
REMARK    4  A    between atoms: C_9  and  C_10
REMARK                            x       y       z     vdW  Elec       q    Type
REMARK                         _______ _______ _______ _____ _____    ______ ____
ROOT
ATOM      1  C   UNL     1      44.953   4.759  11.074  0.00  0.00    +0.000 A 
ATOM      2  C   UNL     1      45.660   5.890  10.658  0.00  0.00    +0.000 A 
ATOM      3  C   UNL     1      46.364   6.651  11.595  0.00  0.00    +0.000 A 
ATOM      4  C   UNL     1      46.349   6.325  12.958  0.00  0.00    +0.000 A 
ATOM      5  C   UNL     1      45.655   5.180  13.358  0.00  0.00    +0.000 A 
ATOM      6  C   UNL     1      44.951   4.409  12.427  0.00  0.00    +0.000 A 
ENDROOT
BRANCH   1   8
ATOM      7  N   UNL     1      44.111   4.348   8.826  0.00  0.00    +0.000 N 
ATOM      8  C   UNL     1      44.182   3.919  10.120  0.00  0.00    +0.000 C 
ATOM      9  O   UNL     1      43.665   2.865  10.467  0.00  0.00    +0.000 OA
ATOM     10  H   UNL     1      43.683   3.709   8.168  0.00  0.00    +0.000 HD
ATOM     11  H   UNL     1      44.723   5.061   8.457  0.00  0.00    +0.000 HD
ENDBRANCH   1   8
BRANCH   4  12
ATOM     12  N   UNL     1      47.078   7.143  13.822  0.00  0.00    +0.000 N 
ATOM     13  H   UNL     1      47.018   8.119  13.532  0.00  0.00    +0.000 HD
BRANCH  12  14
ATOM     14  C   UNL     1      48.462   6.789  14.144  0.00  0.00    +0.000 C 
BRANCH  14  15
ATOM     15  C   UNL     1      48.557   6.318  15.584  0.00  0.00    +0.000 A 
ATOM     16  C   UNL     1      48.826   7.240  16.598  0.00  0.00    +0.000 A 
ATOM     17  C   UNL     1      48.893   6.798  17.915  0.00  0.00    +0.000 A 
ATOM     18  C   UNL     1      48.682   5.453  18.188  0.00  0.00    +0.000 A 
ATOM     19  C   UNL     1      48.419   4.602  17.128  0.00  0.00    +0.000 A 
ATOM     20  N   UNL     1      48.353   5.000  15.837  0.00  0.00    +0.000 NA
ENDBRANCH  14  15
ENDBRANCH  12  14
ENDBRANCH   4  12
TORSDOF 4
ENDMDL
MODEL 8
REMARK VINA RESULT:    -5.424      5.087      8.459
REMARK INTER + INTRA:          -7.156
REMARK INTER:                  -6.875
REMARK INTRA:                  -0.281
REMARK UNBOUND:                -0.463
REMARK  Name = 
REMARK  4 active torsions:
REMARK  status: ('A' for Active; 'I' for Inactive)
REMARK    1  A    between atoms: C_2  and  C_4
REMARK    2  A    between atoms: C_7  and  N_8
REMARK    3  A    between atoms: N_8  and  C_9
REMARK    4  A    between atoms: C_9  and  C_10
REMARK                            x       y       z     vdW  Elec       q    Type
REMARK                         _______ _______ _______ _____ _____    ______ ____
ROOT
ATOM      1  C   UNL     1      48.621   4.451  18.462  0.00  0.00    +0.000 A 
ATOM      2  C   UNL     1      48.560   5.443  17.481  0.00  0.00    +0.000 A 
ATOM      3  C   UNL     1      47.999   5.151  16.234  0.00  0.00    +0.000 A 
ATOM      4  C   UNL     1      47.526   3.867  15.931  0.00  0.00    +0.000 A 
ATOM      5  C   UNL     1      47.575   2.890  16.928  0.00  0.00    +0.000 A 
ATOM      6  C   UNL     1      48.129   3.174  18.181  0.00  0.00    +0.000 A 
ENDROOT
BRANCH   1   8
ATOM      7  N   UNL     1      48.622   4.097  20.872  0.00  0.00    +0.000 N 
ATOM      8  C   UNL     1      49.212   4.707  19.802  0.00  0.00    +0.000 C 
ATOM      9  O   UNL     1      50.211   5.402  19.941  0.00  0.00    +0.000 OA
ATOM     10  H   UNL     1      49.104   4.188  21.757  0.00  0.00    +0.000 HD
ATOM     11  H   UNL     1      47.970   3.334  20.768  0.00  0.00    +0.000 HD
ENDBRANCH   1   8
BRANCH   4  12
ATOM     12  N   UNL     1      46.986   3.666  14.659  0.00  0.00    +0.000 N 
ATOM     13  H   UNL     1      47.546   2.999  14.131  0.00  0.00    +0.000 HD
BRANCH  12  14
ATOM     14  C   UNL     1      46.656   4.828  13.831  0.00  0.00    +0.000 C 
BRANCH  14  15
ATOM     15  C   UNL     1      45.343   4.593  13.106  0.00  0.00    +0.000 A 
ATOM     16  C   UNL     1      44.493   5.670  12.845  0.00  0.00    +0.000 A 
ATOM     17  C   UNL     1      43.302   5.443  12.165  0.00  0.00    +0.000 A 
ATOM     18  C   UNL     1      42.992   4.154  11.755  0.00  0.00    +0.000 A 
ATOM     19  C   UNL     1      43.888   3.139  12.050  0.00  0.00    +0.000 A 
ATOM     20  N   UNL     1      45.051   3.326  12.715  0.00  0.00    +0.000 NA
ENDBRANCH  14  15
ENDBRANCH  12  14
ENDBRANCH   4  12
TORSDOF 4
ENDMDL
MODEL 9
REMARK VINA RESULT:    -5.393      3.453      5.384
REMARK INTER + INTRA:          -7.117
REMARK INTER:                  -6.833
REMARK INTRA:                  -0.284
REMARK UNBOUND:                -0.463
REMARK  Name = 
REMARK  4 active torsions:
REMARK  status: ('A' for Active; 'I' for Inactive)
REMARK    1  A    between atoms: C_2  and  C_4
REMARK    2  A    between atoms: C_7  and  N_8
REMARK    3  A    between atoms: N_8  and  C_9
REMARK    4  A    between atoms: C_9  and  C_10
REMARK                            x       y       z     vdW  Elec       q    Type
REMARK                         _______ _______ _______ _____ _____    ______ ____
ROOT
ATOM      1  C   UNL     1      45.121   4.218  11.251  0.00  0.00    +0.000 A 
ATOM      2  C   UNL     1      45.489   5.545  11.478  0.00  0.00    +0.000 A 
ATOM      3  C   UNL     1      46.180   5.883  12.646  0.00  0.00    +0.000 A 
ATOM      4  C   UNL     1      46.482   4.920  13.618  0.00  0.00    +0.000 A 
ATOM      5  C   UNL     1      46.125   3.592  13.369  0.00  0.00    +0.000 A 
ATOM      6  C   UNL     1      45.440   3.243  12.201  0.00  0.00    +0.000 A 
ENDROOT
BRANCH   1   8
ATOM      7  N   UNL     1      44.321   4.703   9.002  0.00  0.00    +0.000 N 
ATOM      8  C   UNL     1      44.381   3.805  10.030  0.00  0.00    +0.000 C 
ATOM      9  O   UNL     1      43.879   2.693   9.928  0.00  0.00    +0.000 OA
ATOM     10  H   UNL     1      43.915   4.365   8.139  0.00  0.00    +0.000 HD
ATOM     11  H   UNL     1      44.925   5.510   8.953  0.00  0.00    +0.000 HD
ENDBRANCH   1   8
BRANCH   4  12
ATOM     12  N   UNL     1      47.171   5.348  14.754  0.00  0.00    +0.000 N 
ATOM     13  H   UNL     1      48.111   5.657  14.512  0.00  0.00    +0.000 HD
BRANCH  12  14
ATOM     14  C   UNL     1      47.203   4.487  15.938  0.00  0.00    +0.000 C 
BRANCH  14  15
ATOM     15  C   UNL     1      48.585   4.513  16.563  0.00  0.00    +0.000 A 
ATOM     16  C   UNL     1      49.067   3.384  17.230  0.00  0.00    +0.000 A 
ATOM     17  C   UNL     1      50.341   3.417  17.783  0.00  0.00    +0.000 A 
ATOM     18  C   UNL     1      51.106   4.568  17.652  0.00  0.00    +0.000 A 
ATOM     19  C   UNL     1      50.559   5.646  16.975  0.00  0.00    +0.000 A 
ATOM     20  N   UNL     1      49.321   5.647  16.431  0.00  0.00    +0.000 NA
ENDBRANCH  14  15
ENDBRANCH  12  14
ENDBRANCH   4  12
TORSDOF 4
ENDMDL
