MODEL 1
REMARK VINA RESULT:    -7.948      0.000      0.000
REMARK INTER + INTRA:          -9.696
REMARK INTER:                  -9.342
REMARK INTRA:                  -0.353
REMARK UNBOUND:                -0.353
REMARK  Name = 
REMARK  3 active torsions:
REMARK  status: ('A' for Active; 'I' for Inactive)
REMARK    1  A    between atoms: C_2  and  C_4
REMARK    2  A    between atoms: N_8  and  C_9
REMARK    3  A    between atoms: C_9  and  C_10
REMARK                            x       y       z     vdW  Elec       q    Type
REMARK                         _______ _______ _______ _____ _____    ______ ____
ROOT
ATOM      1  C   UNL     1      46.403   2.348   7.712  0.00  0.00    +0.000 A 
ATOM      2  C   UNL     1      45.528   1.888   8.665  0.00  0.00    +0.000 A 
ATOM      3  N   UNL     1      44.655   2.680   9.320  0.00  0.00    +0.000 NA
ATOM      4  C   UNL     1      44.661   3.989   9.020  0.00  0.00    +0.000 A 
ATOM      5  N   UNL     1      43.771   4.840   9.660  0.00  0.00    +0.000 N 
ATOM      6  N   UNL     1      45.490   4.537   8.118  0.00  0.00    +0.000 NA
ATOM      7  C   UNL     1      46.350   3.702   7.482  0.00  0.00    +0.000 A 
ATOM      8  H   UNL     1      44.114   5.788   9.548  0.00  0.00    +0.000 HD
ENDROOT
BRANCH   1  10
ATOM      9  N   UNL     1      48.519   2.062   6.555  0.00  0.00    +0.000 N 
ATOM     10  C   UNL     1      47.365   1.486   7.014  0.00  0.00    +0.000 C 
ATOM     11  O   UNL     1      47.151   0.291   6.868  0.00  0.00    +0.000 OA
ATOM     12  H   UNL     1      49.205   1.432   6.155  0.00  0.00    +0.000 HD
ATOM     13  H   UNL     1      48.853   2.965   6.866  0.00  0.00    +0.000 HD
ENDBRANCH   1  10
BRANCH   5  14
ATOM     14  C   UNL     1      43.463   4.440  11.020  0.00  0.00    +0.000 C 
BRANCH  14  15
ATOM     15  C   UNL     1      44.539   4.919  11.965  0.00  0.00    +0.000 A 
ATOM     16  C   UNL     1      45.261   4.008  12.743  0.00  0.00    +0.000 A 
ATOM     17  C   UNL     1      46.259   4.487  13.576  0.00  0.00    +0.000 A 
ATOM     18  N   UNL     1      46.591   5.791  13.678  0.00  0.00    +0.000 NA
ATOM     19  C   UNL     1      45.893   6.654  12.911  0.00  0.00    +0.000 A 
ATOM     20  C   UNL     1      44.874   6.274  12.050  0.00  0.00    +0.000 A 
ENDBRANCH  14  15
ENDBRANCH   5  14
TORSDOF 3
ENDMDL
MODEL 2
REMARK VINA RESULT:    -7.434      2.591      6.132
REMARK INTER + INTRA:          -9.091
REMARK INTER:                  -8.760
REMARK INTRA:                  -0.331
REMARK UNBOUND:                -0.353
REMARK  Name = 
REMARK  3 active torsions:
REMARK  status: ('A' for Active; 'I' for Inactive)
REMARK    1  A    between atoms: C_2  and  C_4
REMARK    2  A    between atoms: N_8  and  C_9
REMARK    3  A    between atoms: C_9  and  C_10
REMARK                            x       y       z     vdW  Elec       q    Type
REMARK                         _______ _______ _______ _____ _____    ______ ____
ROOT
ATOM      1  C   UNL     1      46.380   5.196  12.814  0.00  0.00    +0.000 A 
ATOM      2  C   UNL     1      46.107   5.838  11.632  0.00  0.00    +0.000 A 
ATOM      3  N   UNL     1      45.418   5.275  10.618  0.00  0.00    +0.000 NA
ATOM      4  C   UNL     1      44.991   4.013  10.787  0.00  0.00    +0.000 A 
ATOM      5  N   UNL     1      44.267   3.397   9.776  0.00  0.00    +0.000 N 
ATOM      6  N   UNL     1      45.224   3.295  11.897  0.00  0.00    +0.000 NA
ATOM      7  C   UNL     1      45.920   3.903  12.891  0.00  0.00    +0.000 A 
ATOM      8  H   UNL     1      44.300   2.396   9.937  0.00  0.00    +0.000 HD
ENDROOT
BRANCH   1  10
ATOM      9  N   UNL     1      47.160   7.171  13.991  0.00  0.00    +0.000 N 
ATOM     10  C   UNL     1      47.147   5.805  13.908  0.00  0.00    +0.000 C 
ATOM     11  O   UNL     1      47.736   5.114  14.727  0.00  0.00    +0.000 OA
ATOM     12  H   UNL     1      47.622   7.566  14.802  0.00  0.00    +0.000 HD
ATOM     13  H   UNL     1      46.499   7.766  13.507  0.00  0.00    +0.000 HD
ENDBRANCH   1  10
BRANCH   5  14
ATOM     14  C   UNL     1      44.646   3.831   8.444  0.00  0.00    +0.000 C 
BRANCH  14  15
ATOM     15  C   UNL     1      45.737   2.944   7.894  0.00  0.00    +0.000 A 
ATOM     16  C   UNL     1      46.733   3.472   7.065  0.00  0.00    +0.000 A 
ATOM     17  C   UNL     1      47.731   2.629   6.603  0.00  0.00    +0.000 A 
ATOM     18  N   UNL     1      47.812   1.318   6.916  0.00  0.00    +0.000 NA
ATOM     19  C   UNL     1      46.850   0.830   7.726  0.00  0.00    +0.000 A 
ATOM     20  C   UNL     1      45.808   1.590   8.235  0.00  0.00    +0.000 A 
ENDBRANCH  14  15
ENDBRANCH   5  14
TORSDOF 3
ENDMDL
MODEL 3
REMARK VINA RESULT:    -6.596      2.927      6.214
REMARK INTER + INTRA:          -8.106
REMARK INTER:                  -7.802
REMARK INTRA:                  -0.304
REMARK UNBOUND:                -0.353
REMARK  Name = 
REMARK  3 active torsions:
REMARK  status: ('A' for Active; 'I' for Inactive)
REMARK    1  A    between atoms: C_2  and  C_4
REMARK    2  A    between atoms: N_8  and  C_9
REMARK    3  A    between atoms: C_9  and  C_10
REMARK                            x       y       z     vdW  Elec       q    Type
REMARK                         _______ _______ _______ _____ _____    ______ ____
ROOT
ATOM      1  C   UNL     1      45.100   6.986  11.961  0.00  0.00    +0.000 A 
ATOM      2  C   UNL     1      44.094   6.439  11.203  0.00  0.00    +0.000 A 
ATOM      3  N   UNL     1      44.031   5.130  10.881  0.00  0.00    +0.000 NA
ATOM      4  C   UNL     1      45.017   4.335  11.326  0.00  0.00    +0.000 A 
ATOM      5  N   UNL     1      44.986   2.980  11.030  0.00  0.00    +0.000 N 
ATOM      6  N   UNL     1      46.052   4.779  12.056  0.00  0.00    +0.000 NA
ATOM      7  C   UNL     1      46.074   6.102  12.357  0.00  0.00    +0.000 A 
ATOM      8  H   UNL     1      45.921   2.611  11.167  0.00  0.00    +0.000 HD
ENDROOT
BRANCH   1  10
ATOM      9  N   UNL     1      45.923   8.775  13.382  0.00  0.00    +0.000 N 
ATOM     10  C   UNL     1      45.176   8.414  12.292  0.00  0.00    +0.000 C 
ATOM     11  O   UNL     1      44.609   9.252  11.606  0.00  0.00    +0.000 OA
ATOM     12  H   UNL     1      46.032   9.771  13.539  0.00  0.00    +0.000 HD
ATOM     13  H   UNL     1      46.602   8.166  13.819  0.00  0.00    +0.000 HD
ENDBRANCH   1  10
BRANCH   5  14
ATOM     14  C   UNL     1      44.375   2.679   9.749  0.00  0.00    +0.000 C 
BRANCH  14  15
ATOM     15  C   UNL     1      45.429   2.587   8.672  0.00  0.00    +0.000 A 
ATOM     16  C   UNL     1      46.052   1.368   8.388  0.00  0.00    +0.000 A 
ATOM     17  C   UNL     1      46.995   1.321   7.374  0.00  0.00    +0.000 A 
ATOM     18  N   UNL     1      47.346   2.387   6.625  0.00  0.00    +0.000 NA
ATOM     19  C   UNL     1      46.727   3.553   6.905  0.00  0.00    +0.000 A 
ATOM     20  C   UNL     1      45.775   3.703   7.903  0.00  0.00    +0.000 A 
ENDBRANCH  14  15
ENDBRANCH   5  14
TORSDOF 3
ENDMDL
MODEL 4
REMARK VINA RESULT:    -6.423      1.364      1.768
REMARK INTER + INTRA:          -7.903
REMARK INTER:                  -7.916
REMARK INTRA:                   0.013
REMARK UNBOUND:                -0.353
REMARK  Name = 
REMARK  3 active torsions:
REMARK  status: ('A' for Active; 'I' for Inactive)
REMARK    1  A    between atoms: C_2  and  C_4
REMARK    2  A    between atoms: N_8  and  C_9
REMARK    3  A    between atoms: C_9  and  C_10
REMARK                            x       y       z     vdW  Elec       q    Type
REMARK                         _______ _______ _______ _____ _____    ______ ____
ROOT
ATOM      1  C   UNL     1      46.540   2.770   7.348  0.00  0.00    +0.000 A 
ATOM      2  C   UNL     1      46.202   3.950   7.963  0.00  0.00    +0.000 A 
ATOM      3  N   UNL     1      45.478   4.017   9.101  0.00  0.00    +0.000 NA
ATOM      4  C   UNL     1      45.066   2.859   9.641  0.00  0.00    +0.000 A 
ATOM      5  N   UNL     1      44.330   2.878  10.817  0.00  0.00    +0.000 N 
ATOM      6  N   UNL     1      45.330   1.657   9.104  0.00  0.00    +0.000 NA
ATOM      7  C   UNL     1      46.062   1.637   7.962  0.00  0.00    +0.000 A 
ATOM      8  H   UNL     1      43.860   1.984  10.903  0.00  0.00    +0.000 HD
ENDROOT
BRANCH   1  10
ATOM      9  N   UNL     1      48.647   2.416   6.193  0.00  0.00    +0.000 N 
ATOM     10  C   UNL     1      47.311   2.702   6.100  0.00  0.00    +0.000 C 
ATOM     11  O   UNL     1      46.773   2.875   5.016  0.00  0.00    +0.000 OA
ATOM     12  H   UNL     1      49.139   2.288   5.316  0.00  0.00    +0.000 HD
ATOM     13  H   UNL     1      49.077   2.022   7.019  0.00  0.00    +0.000 HD
ENDBRANCH   1  10
BRANCH   5  14
ATOM     14  C   UNL     1      43.483   4.048  10.951  0.00  0.00    +0.000 C 
BRANCH  14  15
ATOM     15  C   UNL     1      44.228   5.158  11.654  0.00  0.00    +0.000 A 
ATOM     16  C   UNL     1      45.145   4.868  12.669  0.00  0.00    +0.000 A 
ATOM     17  C   UNL     1      45.828   5.915  13.269  0.00  0.00    +0.000 A 
ATOM     18  N   UNL     1      45.671   7.210  12.924  0.00  0.00    +0.000 NA
ATOM     19  C   UNL     1      44.791   7.470  11.934  0.00  0.00    +0.000 A 
ATOM     20  C   UNL     1      44.057   6.494  11.276  0.00  0.00    +0.000 A 
ENDBRANCH  14  15
ENDBRANCH   5  14
TORSDOF 3
ENDMDL
MODEL 5
REMARK VINA RESULT:    -5.834      4.028      6.146
REMARK INTER + INTRA:          -7.210
REMARK INTER:                  -6.995
REMARK INTRA:                  -0.215
REMARK UNBOUND:                -0.353
REMARK  Name = 
REMARK  3 active torsions:
REMARK  status: ('A' for Active; 'I' for Inactive)
REMARK    1  A    between atoms: C_2  and  C_4
REMARK    2  A    between atoms: N_8  and  C_9
REMARK    3  A    between atoms: C_9  and  C_10
REMARK                            x       y       z     vdW  Elec       q    Type
REMARK                         _______ _______ _______ _____ _____    ______ ____
ROOT
ATOM      1  C   UNL     1      44.600   4.759  11.902  0.00  0.00    +0.000 A 
ATOM      2  C   UNL     1      45.197   5.567  12.837  0.00  0.00    +0.000 A 
ATOM      3  N   UNL     1      46.079   5.120  13.756  0.00  0.00    +0.000 NA
ATOM      4  C   UNL     1      46.369   3.809  13.748  0.00  0.00    +0.000 A 
ATOM      5  N   UNL     1      47.279   3.307  14.666  0.00  0.00    +0.000 N 
ATOM      6  N   UNL     1      45.823   2.936  12.887  0.00  0.00    +0.000 NA
ATOM      7  C   UNL     1      44.943   3.430  11.980  0.00  0.00    +0.000 A 
ATOM      8  H   UNL     1      47.144   2.303  14.719  0.00  0.00    +0.000 HD
ENDROOT
BRANCH   1  10
ATOM      9  N   UNL     1      43.797   4.864   9.612  0.00  0.00    +0.000 N 
ATOM     10  C   UNL     1      43.627   5.245  10.916  0.00  0.00    +0.000 C 
ATOM     11  O   UNL     1      42.686   5.949  11.253  0.00  0.00    +0.000 OA
ATOM     12  H   UNL     1      43.066   5.140   8.966  0.00  0.00    +0.000 HD
ATOM     13  H   UNL     1      44.392   4.096   9.329  0.00  0.00    +0.000 HD
ENDBRANCH   1  10
BRANCH   5  14
ATOM     14  C   UNL     1      47.270   4.010  15.936  0.00  0.00    +0.000 C 
BRANCH  14  15
ATOM     15  C   UNL     1      48.570   3.783  16.670  0.00  0.00    +0.000 A 
ATOM     16  C   UNL     1      49.117   2.500  16.770  0.00  0.00    +0.000 A 
ATOM     17  C   UNL     1      50.326   2.340  17.429  0.00  0.00    +0.000 A 
ATOM     18  N   UNL     1      51.023   3.357  17.978  0.00  0.00    +0.000 NA
ATOM     19  C   UNL     1      50.486   4.589  17.862  0.00  0.00    +0.000 A 
ATOM     20  C   UNL     1      49.281   4.852  17.227  0.00  0.00    +0.000 A 
ENDBRANCH  14  15
ENDBRANCH   5  14
TORSDOF 3
ENDMDL
MODEL 6
REMARK VINA RESULT:    -5.807      3.322      5.145
REMARK INTER + INTRA:          -7.178
REMARK INTER:                  -6.972
REMARK INTRA:                  -0.206
REMARK UNBOUND:                -0.353
REMARK  Name = 
REMARK  3 active torsions:
REMARK  status: ('A' for Active; 'I' for Inactive)
REMARK    1  A    between atoms: C_2  and  C_4
REMARK    2  A    between atoms: N_8  and  C_9
REMARK    3  A    between atoms: C_9  and  C_10
REMARK                            x       y       z     vdW  Elec       q    Type
REMARK                         _______ _______ _______ _____ _____    ______ ____
ROOT
ATOM      1  C   UNL     1      44.893   4.064  11.065  0.00  0.00    +0.000 A 
ATOM      2  C   UNL     1      44.981   3.283  12.191  0.00  0.00    +0.000 A 
ATOM      3  N   UNL     1      45.553   3.695  13.341  0.00  0.00    +0.000 NA
ATOM      4  C   UNL     1      46.067   4.934  13.368  0.00  0.00    +0.000 A 
ATOM      5  N   UNL     1      46.654   5.405  14.534  0.00  0.00    +0.000 N 
ATOM      6  N   UNL     1      46.047   5.766  12.314  0.00  0.00    +0.000 NA
ATOM      7  C   UNL     1      45.461   5.311  11.178  0.00  0.00    +0.000 A 
ATOM      8  H   UNL     1      47.238   6.197  14.289  0.00  0.00    +0.000 HD
ENDROOT
BRANCH   1  10
ATOM      9  N   UNL     1      44.106   4.531   8.816  0.00  0.00    +0.000 N 
ATOM     10  C   UNL     1      44.288   3.606   9.808  0.00  0.00    +0.000 C 
ATOM     11  O   UNL     1      43.976   2.434   9.649  0.00  0.00    +0.000 OA
ATOM     12  H   UNL     1      43.768   4.175   7.928  0.00  0.00    +0.000 HD
ATOM     13  H   UNL     1      44.568   5.431   8.801  0.00  0.00    +0.000 HD
ENDBRANCH   1  10
BRANCH   5  14
ATOM     14  C   UNL     1      47.298   4.368  15.318  0.00  0.00    +0.000 C 
BRANCH  14  15
ATOM     15  C   UNL     1      47.895   4.955  16.575  0.00  0.00    +0.000 A 
ATOM     16  C   UNL     1      47.435   4.557  17.834  0.00  0.00    +0.000 A 
ATOM     17  C   UNL     1      48.029   5.100  18.963  0.00  0.00    +0.000 A 
ATOM     18  N   UNL     1      49.043   5.989  18.924  0.00  0.00    +0.000 NA
ATOM     19  C   UNL     1      49.482   6.352  17.701  0.00  0.00    +0.000 A 
ATOM     20  C   UNL     1      48.951   5.870  16.514  0.00  0.00    +0.000 A 
ENDBRANCH  14  15
ENDBRANCH   5  14
TORSDOF 3
ENDMDL
MODEL 7
REMARK VINA RESULT:    -5.695      2.909      6.382
REMARK INTER + INTRA:          -7.047
REMARK INTER:                  -6.757
REMARK INTRA:                  -0.290
REMARK UNBOUND:                -0.353
REMARK  Name = 
REMARK  3 active torsions:
REMARK  status: ('A' for Active; 'I' for Inactive)
REMARK    1  A    between atoms: C_2  and  C_4
REMARK    2  A    between atoms: N_8  and  C_9
REMARK    3  A    between atoms: C_9  and  C_10
REMARK                            x       y       z     vdW  Elec       q    Type
REMARK                         _______ _______ _______ _____ _____    ______ ____
ROOT
ATOM      1  C   UNL     1      47.139   5.233  14.199  0.00  0.00    +0.000 A 
ATOM      2  C   UNL     1      47.130   6.072  13.111  0.00  0.00    +0.000 A 
ATOM      3  N   UNL     1      46.357   5.873  12.022  0.00  0.00    +0.000 NA
ATOM      4  C   UNL     1      45.568   4.788  12.014  0.00  0.00    +0.000 A 
ATOM      5  N   UNL     1      44.747   4.550  10.921  0.00  0.00    +0.000 N 
ATOM      6  N   UNL     1      45.520   3.900  13.020  0.00  0.00    +0.000 NA
ATOM      7  C   UNL     1      46.313   4.140  14.095  0.00  0.00    +0.000 A 
ATOM      8  H   UNL     1      44.473   3.574  10.946  0.00  0.00    +0.000 HD
ENDROOT
BRANCH   1  10
ATOM      9  N   UNL     1      48.109   6.717  15.858  0.00  0.00    +0.000 N 
ATOM     10  C   UNL     1      47.995   5.442  15.373  0.00  0.00    +0.000 C 
ATOM     11  O   UNL     1      48.568   4.505  15.910  0.00  0.00    +0.000 OA
ATOM     12  H   UNL     1      48.633   6.823  16.720  0.00  0.00    +0.000 HD
ATOM     13  H   UNL     1      47.472   7.465  15.616  0.00  0.00    +0.000 HD
ENDBRANCH   1  10
BRANCH   5  14
ATOM     14  C   UNL     1      45.306   5.014   9.665  0.00  0.00    +0.000 C 
BRANCH  14  15
ATOM     15  C   UNL     1      45.791   3.844   8.842  0.00  0.00    +0.000 A 
ATOM     16  C   UNL     1      45.463   2.534   9.205  0.00  0.00    +0.000 A 
ATOM     17  C   UNL     1      45.906   1.491   8.407  0.00  0.00    +0.000 A 
ATOM     18  N   UNL     1      46.631   1.661   7.282  0.00  0.00    +0.000 NA
ATOM     19  C   UNL     1      46.927   2.933   6.940  0.00  0.00    +0.000 A 
ATOM     20  C   UNL     1      46.536   4.042   7.675  0.00  0.00    +0.000 A 
ENDBRANCH  14  15
ENDBRANCH   5  14
TORSDOF 3
ENDMDL
MODEL 8
REMARK VINA RESULT:    -5.432      4.733      8.127
REMARK INTER + INTRA:          -6.738
REMARK INTER:                  -6.538
REMARK INTRA:                  -0.199
REMARK UNBOUND:                -0.353
REMARK  Name = 
REMARK  3 active torsions:
REMARK  status: ('A' for Active; 'I' for Inactive)
REMARK    1  A    between atoms: C_2  and  C_4
REMARK    2  A    between atoms: N_8  and  C_9
REMARK    3  A    between atoms: C_9  and  C_10
REMARK                            x       y       z     vdW  Elec       q    Type
REMARK                         _______ _______ _______ _____ _____    ______ ____
ROOT
ATOM      1  C   UNL     1      49.249   4.347  17.793  0.00  0.00    +0.000 A 
ATOM      2  C   UNL     1      49.086   5.317  16.835  0.00  0.00    +0.000 A 
ATOM      3  N   UNL     1      48.159   5.252  15.857  0.00  0.00    +0.000 NA
ATOM      4  C   UNL     1      47.366   4.169  15.828  0.00  0.00    +0.000 A 
ATOM      5  N   UNL     1      46.390   4.065  14.848  0.00  0.00    +0.000 N 
ATOM      6  N   UNL     1      47.459   3.160  16.708  0.00  0.00    +0.000 NA
ATOM      7  C   UNL     1      48.405   3.269  17.675  0.00  0.00    +0.000 A 
ATOM      8  H   UNL     1      46.112   3.091  14.789  0.00  0.00    +0.000 HD
ENDROOT
BRANCH   1  10
ATOM      9  N   UNL     1      49.846   4.458  20.144  0.00  0.00    +0.000 N 
ATOM     10  C   UNL     1      50.272   4.413  18.844  0.00  0.00    +0.000 C 
ATOM     11  O   UNL     1      51.462   4.405  18.566  0.00  0.00    +0.000 OA
ATOM     12  H   UNL     1      50.569   4.415  20.854  0.00  0.00    +0.000 HD
ATOM     13  H   UNL     1      48.907   4.214  20.433  0.00  0.00    +0.000 HD
ENDBRANCH   1  10
BRANCH   5  14
ATOM     14  C   UNL     1      46.760   4.690  13.592  0.00  0.00    +0.000 C 
BRANCH  14  15
ATOM     15  C   UNL     1      45.608   4.631  12.617  0.00  0.00    +0.000 A 
ATOM     16  C   UNL     1      45.131   3.401  12.152  0.00  0.00    +0.000 A 
ATOM     17  C   UNL     1      44.055   3.391  11.279  0.00  0.00    +0.000 A 
ATOM     18  N   UNL     1      43.422   4.504  10.853  0.00  0.00    +0.000 NA
ATOM     19  C   UNL     1      43.888   5.681  11.322  0.00  0.00    +0.000 A 
ATOM     20  C   UNL     1      44.961   5.796  12.193  0.00  0.00    +0.000 A 
ENDBRANCH  14  15
ENDBRANCH   5  14
TORSDOF 3
ENDMDL
MODEL 9
REMARK VINA RESULT:    -5.405      3.382      5.434
REMARK INTER + INTRA:          -6.706
REMARK INTER:                  -6.457
REMARK INTRA:                  -0.250
REMARK UNBOUND:                -0.353
REMARK  Name = 
REMARK  3 active torsions:
REMARK  status: ('A' for Active; 'I' for Inactive)
REMARK    1  A    between atoms: C_2  and  C_4
REMARK    2  A    between atoms: N_8  and  C_9
REMARK    3  A    between atoms: C_9  and  C_10
REMARK                            x       y       z     vdW  Elec       q    Type
REMARK                         _______ _______ _______ _____ _____    ______ ____
ROOT
ATOM      1  C   UNL     1      44.726   4.123  11.565  0.00  0.00    +0.000 A 
ATOM      2  C   UNL     1      44.866   5.326  10.920  0.00  0.00    +0.000 A 
ATOM      3  N   UNL     1      45.419   6.418  11.488  0.00  0.00    +0.000 NA
ATOM      4  C   UNL     1      45.841   6.307  12.758  0.00  0.00    +0.000 A 
ATOM      5  N   UNL     1      46.428   7.400  13.379  0.00  0.00    +0.000 N 
ATOM      6  N   UNL     1      45.732   5.180  13.478  0.00  0.00    +0.000 NA
ATOM      7  C   UNL     1      45.171   4.107  12.866  0.00  0.00    +0.000 A 
ATOM      8  H   UNL     1      46.399   7.241  14.380  0.00  0.00    +0.000 HD
ENDROOT
BRANCH   1  10
ATOM      9  N   UNL     1      44.764   2.351   9.905  0.00  0.00    +0.000 N 
ATOM     10  C   UNL     1      44.107   2.943  10.950  0.00  0.00    +0.000 C 
ATOM     11  O   UNL     1      43.050   2.493  11.371  0.00  0.00    +0.000 OA
ATOM     12  H   UNL     1      44.362   1.489   9.554  0.00  0.00    +0.000 HD
ATOM     13  H   UNL     1      45.738   2.522   9.690  0.00  0.00    +0.000 HD
ENDBRANCH   1  10
BRANCH   5  14
ATOM     14  C   UNL     1      45.899   8.675  12.931  0.00  0.00    +0.000 C 
BRANCH  14  15
ATOM     15  C   UNL     1      46.972   9.469  12.223  0.00  0.00    +0.000 A 
ATOM     16  C   UNL     1      46.693  10.737  11.705  0.00  0.00    +0.000 A 
ATOM     17  C   UNL     1      47.713  11.444  11.088  0.00  0.00    +0.000 A 
ATOM     18  N   UNL     1      48.976  10.985  10.962  0.00  0.00    +0.000 NA
ATOM     19  C   UNL     1      49.229   9.764  11.478  0.00  0.00    +0.000 A 
ATOM     20  C   UNL     1      48.277   8.978  12.110  0.00  0.00    +0.000 A 
ENDBRANCH  14  15
ENDBRANCH   5  14
TORSDOF 3
ENDMDL
