MODEL 1
REMARK VINA RESULT:    -8.627      0.000      0.000
REMARK INTER + INTRA:         -11.861
REMARK INTER:                 -11.149
REMARK INTRA:                  -0.712
REMARK UNBOUND:                -0.712
REMARK  Name = 
REMARK  5 active torsions:
REMARK  status: ('A' for Active; 'I' for Inactive)
REMARK    1  A    between atoms: C_2  and  C_4
REMARK    2  A    between atoms: C_7  and  N_8
REMARK    3  A    between atoms: N_8  and  C_9
REMARK    4  A    between atoms: C_9  and  C_10
REMARK    5  A    between atoms: C_12  and  C_13
REMARK                            x       y       z     vdW  Elec       q    Type
REMARK                         _______ _______ _______ _____ _____    ______ ____
ROOT
ATOM      1  N   UNL     1      43.746   4.754   9.948  0.00  0.00    +0.000 N 
ATOM      2  H   UNL     1      43.591   5.628   9.459  0.00  0.00    +0.000 HD
ENDROOT
BRANCH   1   6
ATOM      3  C   UNL     1      46.380   2.322   7.736  0.00  0.00    +0.000 A 
ATOM      4  C   UNL     1      45.502   1.730   8.646  0.00  0.00    +0.000 A 
ATOM      5  C   UNL     1      44.647   2.525   9.418  0.00  0.00    +0.000 A 
ATOM      6  C   UNL     1      44.663   3.921   9.318  0.00  0.00    +0.000 A 
ATOM      7  C   UNL     1      45.568   4.498   8.415  0.00  0.00    +0.000 A 
ATOM      8  C   UNL     1      46.427   3.712   7.638  0.00  0.00    +0.000 A 
BRANCH   3  10
ATOM      9  N   UNL     1      48.363   2.137   6.339  0.00  0.00    +0.000 N 
ATOM     10  C   UNL     1      47.264   1.511   6.862  0.00  0.00    +0.000 C 
ATOM     11  O   UNL     1      47.056   0.324   6.654  0.00  0.00    +0.000 OA
ATOM     12  H   UNL     1      49.022   1.546   5.849  0.00  0.00    +0.000 HD
ATOM     13  H   UNL     1      48.703   3.015   6.703  0.00  0.00    +0.000 HD
ENDBRANCH   3  10
ENDBRANCH   1   6
BRANCH   1  14
ATOM     14  C   UNL     1      43.594   4.822  11.400  0.00  0.00    +0.000 C 
BRANCH  14  15
ATOM     15  C   UNL     1      44.900   5.055  12.134  0.00  0.00    +0.000 A 
ATOM     16  C   UNL     1      45.687   6.165  11.820  0.00  0.00    +0.000 A 
ATOM     17  C   UNL     1      46.858   6.435  12.543  0.00  0.00    +0.000 A 
ATOM     18  C   UNL     1      47.184   5.541  13.569  0.00  0.00    +0.000 A 
ATOM     19  C   UNL     1      46.359   4.452  13.814  0.00  0.00    +0.000 A 
ATOM     20  N   UNL     1      45.226   4.195  13.128  0.00  0.00    +0.000 NA
BRANCH  17  21
ATOM     21  C   UNL     1      47.703   7.613  12.229  0.00  0.00    +0.000 A 
ATOM     22  C   UNL     1      47.170   8.910  12.180  0.00  0.00    +0.000 A 
ATOM     23  C   UNL     1      47.994   9.981  11.861  0.00  0.00    +0.000 A 
ATOM     24  N   UNL     1      49.308   9.861  11.601  0.00  0.00    +0.000 NA
ATOM     25  C   UNL     1      49.821   8.617  11.657  0.00  0.00    +0.000 A 
ATOM     26  C   UNL     1      49.073   7.486  11.957  0.00  0.00    +0.000 A 
ENDBRANCH  17  21
ENDBRANCH  14  15
ENDBRANCH   1  14
TORSDOF 5
ENDMDL
MODEL 2
REMARK VINA RESULT:    -7.972      1.855      3.302
REMARK INTER + INTRA:         -11.014
REMARK INTER:                 -10.371
REMARK INTRA:                  -0.644
REMARK UNBOUND:                -0.712
REMARK  Name = 
REMARK  5 active torsions:
REMARK  status: ('A' for Active; 'I' for Inactive)
REMARK    1  A    between atoms: C_2  and  C_4
REMARK    2  A    between atoms: C_7  and  N_8
REMARK    3  A    between atoms: N_8  and  C_9
REMARK    4  A    between atoms: C_9  and  C_10
REMARK    5  A    between atoms: C_12  and  C_13
REMARK                            x       y       z     vdW  Elec       q    Type
REMARK                         _______ _______ _______ _____ _____    ______ ____
ROOT
ATOM      1  N   UNL     1      43.744   4.669   9.898  0.00  0.00    +0.000 N 
ATOM      2  H   UNL     1      43.425   5.500   9.412  0.00  0.00    +0.000 HD
ENDROOT
BRANCH   1   6
ATOM      3  C   UNL     1      46.618   2.688   7.540  0.00  0.00    +0.000 A 
ATOM      4  C   UNL     1      45.748   1.938   8.332  0.00  0.00    +0.000 A 
ATOM      5  C   UNL     1      44.812   2.580   9.152  0.00  0.00    +0.000 A 
ATOM      6  C   UNL     1      44.738   3.976   9.217  0.00  0.00    +0.000 A 
ATOM      7  C   UNL     1      45.636   4.713   8.431  0.00  0.00    +0.000 A 
ATOM      8  C   UNL     1      46.575   4.081   7.608  0.00  0.00    +0.000 A 
BRANCH   3  10
ATOM      9  N   UNL     1      47.888   2.717   5.464  0.00  0.00    +0.000 N 
ATOM     10  C   UNL     1      47.588   2.045   6.618  0.00  0.00    +0.000 C 
ATOM     11  O   UNL     1      48.139   0.988   6.893  0.00  0.00    +0.000 OA
ATOM     12  H   UNL     1      48.640   2.333   4.907  0.00  0.00    +0.000 HD
ATOM     13  H   UNL     1      47.666   3.694   5.341  0.00  0.00    +0.000 HD
ENDBRANCH   3  10
ENDBRANCH   1   6
BRANCH   1  14
ATOM     14  C   UNL     1      43.672   4.737  11.355  0.00  0.00    +0.000 C 
BRANCH  14  15
ATOM     15  C   UNL     1      44.798   5.539  11.979  0.00  0.00    +0.000 A 
ATOM     16  C   UNL     1      45.498   5.022  13.071  0.00  0.00    +0.000 A 
ATOM     17  C   UNL     1      46.590   5.718  13.611  0.00  0.00    +0.000 A 
ATOM     18  C   UNL     1      46.921   6.935  13.005  0.00  0.00    +0.000 A 
ATOM     19  C   UNL     1      46.170   7.391  11.931  0.00  0.00    +0.000 A 
ATOM     20  N   UNL     1      45.126   6.720  11.403  0.00  0.00    +0.000 NA
BRANCH  17  21
ATOM     21  C   UNL     1      47.351   5.181  14.765  0.00  0.00    +0.000 A 
ATOM     22  C   UNL     1      48.279   5.968  15.465  0.00  0.00    +0.000 A 
ATOM     23  C   UNL     1      48.985   5.418  16.526  0.00  0.00    +0.000 A 
ATOM     24  N   UNL     1      48.828   4.152  16.953  0.00  0.00    +0.000 NA
ATOM     25  C   UNL     1      47.931   3.401  16.286  0.00  0.00    +0.000 A 
ATOM     26  C   UNL     1      47.187   3.861  15.207  0.00  0.00    +0.000 A 
ENDBRANCH  17  21
ENDBRANCH  14  15
ENDBRANCH   1  14
TORSDOF 5
ENDMDL
MODEL 3
REMARK VINA RESULT:    -7.800      2.380      6.516
REMARK INTER + INTRA:         -10.792
REMARK INTER:                 -10.016
REMARK INTRA:                  -0.775
REMARK UNBOUND:                -0.712
REMARK  Name = 
REMARK  5 active torsions:
REMARK  status: ('A' for Active; 'I' for Inactive)
REMARK    1  A    between atoms: C_2  and  C_4
REMARK    2  A    between atoms: C_7  and  N_8
REMARK    3  A    between atoms: N_8  and  C_9
REMARK    4  A    between atoms: C_9  and  C_10
REMARK    5  A    between atoms: C_12  and  C_13
REMARK                            x       y       z     vdW  Elec       q    Type
REMARK                         _______ _______ _______ _____ _____    ______ ____
ROOT
ATOM      1  N   UNL     1      44.029   6.660  12.505  0.00  0.00    +0.000 N 
ATOM      2  H   UNL     1      43.591   6.311  13.350  0.00  0.00    +0.000 HD
ENDROOT
BRANCH   1   6
ATOM      3  C   UNL     1      48.200   7.253  12.529  0.00  0.00    +0.000 A 
ATOM      4  C   UNL     1      47.678   6.037  12.976  0.00  0.00    +0.000 A 
ATOM      5  C   UNL     1      46.294   5.837  13.012  0.00  0.00    +0.000 A 
ATOM      6  C   UNL     1      45.401   6.844  12.627  0.00  0.00    +0.000 A 
ATOM      7  C   UNL     1      45.944   8.067  12.203  0.00  0.00    +0.000 A 
ATOM      8  C   UNL     1      47.327   8.278  12.163  0.00  0.00    +0.000 A 
BRANCH   3  10
ATOM      9  N   UNL     1      50.375   7.488  13.593  0.00  0.00    +0.000 N 
ATOM     10  C   UNL     1      49.662   7.486  12.425  0.00  0.00    +0.000 C 
ATOM     11  O   UNL     1      50.220   7.620  11.345  0.00  0.00    +0.000 OA
ATOM     12  H   UNL     1      51.382   7.523  13.501  0.00  0.00    +0.000 HD
ATOM     13  H   UNL     1      49.996   7.118  14.452  0.00  0.00    +0.000 HD
ENDBRANCH   3  10
ENDBRANCH   1   6
BRANCH   1  14
ATOM     14  C   UNL     1      43.385   6.252  11.259  0.00  0.00    +0.000 C 
BRANCH  14  15
ATOM     15  C   UNL     1      43.621   4.797  10.905  0.00  0.00    +0.000 A 
ATOM     16  C   UNL     1      44.438   4.467   9.822  0.00  0.00    +0.000 A 
ATOM     17  C   UNL     1      44.727   3.126   9.529  0.00  0.00    +0.000 A 
ATOM     18  C   UNL     1      44.152   2.163  10.366  0.00  0.00    +0.000 A 
ATOM     19  C   UNL     1      43.338   2.566  11.415  0.00  0.00    +0.000 A 
ATOM     20  N   UNL     1      43.067   3.855  11.707  0.00  0.00    +0.000 NA
BRANCH  17  21
ATOM     21  C   UNL     1      45.599   2.757   8.388  0.00  0.00    +0.000 A 
ATOM     22  C   UNL     1      46.177   1.482   8.285  0.00  0.00    +0.000 A 
ATOM     23  C   UNL     1      47.004   1.187   7.211  0.00  0.00    +0.000 A 
ATOM     24  N   UNL     1      47.290   2.057   6.225  0.00  0.00    +0.000 NA
ATOM     25  C   UNL     1      46.728   3.277   6.321  0.00  0.00    +0.000 A 
ATOM     26  C   UNL     1      45.897   3.666   7.363  0.00  0.00    +0.000 A 
ENDBRANCH  17  21
ENDBRANCH  14  15
ENDBRANCH   1  14
TORSDOF 5
ENDMDL
MODEL 4
REMARK VINA RESULT:    -7.729      1.459      2.019
REMARK INTER + INTRA:         -10.699
REMARK INTER:                 -10.056
REMARK INTRA:                  -0.644
REMARK UNBOUND:                -0.712
REMARK  Name = 
REMARK  5 active torsions:
REMARK  status: ('A' for Active; 'I' for Inactive)
REMARK    1  A    between atoms: C_2  and  C_4
REMARK    2  A    between atoms: C_7  and  N_8
REMARK    3  A    between atoms: N_8  and  C_9
REMARK    4  A    between atoms: C_9  and  C_10
REMARK    5  A    between atoms: C_12  and  C_13
REMARK                            x       y       z     vdW  Elec       q    Type
REMARK                         _______ _______ _______ _____ _____    ______ ____
ROOT
ATOM      1  N   UNL     1      43.761   3.794  10.394  0.00  0.00    +0.000 N 
ATOM      2  H   UNL     1      42.981   4.263   9.948  0.00  0.00    +0.000 HD
ENDROOT
BRANCH   1   6
ATOM      3  C   UNL     1      46.536   2.662   7.433  0.00  0.00    +0.000 A 
ATOM      4  C   UNL     1      45.994   1.686   8.272  0.00  0.00    +0.000 A 
ATOM      5  C   UNL     1      45.101   2.049   9.286  0.00  0.00    +0.000 A 
ATOM      6  C   UNL     1      44.746   3.386   9.502  0.00  0.00    +0.000 A 
ATOM      7  C   UNL     1      45.319   4.354   8.663  0.00  0.00    +0.000 A 
ATOM      8  C   UNL     1      46.213   4.002   7.645  0.00  0.00    +0.000 A 
BRANCH   3  10
ATOM      9  N   UNL     1      47.420   3.130   5.215  0.00  0.00    +0.000 N 
ATOM     10  C   UNL     1      47.445   2.313   6.312  0.00  0.00    +0.000 C 
ATOM     11  O   UNL     1      48.221   1.369   6.379  0.00  0.00    +0.000 OA
ATOM     12  H   UNL     1      48.129   2.957   4.514  0.00  0.00    +0.000 HD
ATOM     13  H   UNL     1      47.002   4.048   5.241  0.00  0.00    +0.000 HD
ENDBRANCH   3  10
ENDBRANCH   1   6
BRANCH   1  14
ATOM     14  C   UNL     1      44.050   4.231  11.758  0.00  0.00    +0.000 C 
BRANCH  14  15
ATOM     15  C   UNL     1      44.613   5.637  11.835  0.00  0.00    +0.000 A 
ATOM     16  C   UNL     1      45.927   5.838  12.263  0.00  0.00    +0.000 A 
ATOM     17  C   UNL     1      46.486   7.125  12.267  0.00  0.00    +0.000 A 
ATOM     18  C   UNL     1      45.661   8.170  11.834  0.00  0.00    +0.000 A 
ATOM     19  C   UNL     1      44.360   7.894  11.437  0.00  0.00    +0.000 A 
ATOM     20  N   UNL     1      43.823   6.656  11.421  0.00  0.00    +0.000 NA
BRANCH  17  21
ATOM     21  C   UNL     1      47.882   7.358  12.710  0.00  0.00    +0.000 A 
ATOM     22  C   UNL     1      48.874   7.795  11.819  0.00  0.00    +0.000 A 
ATOM     23  C   UNL     1      50.173   7.980  12.272  0.00  0.00    +0.000 A 
ATOM     24  N   UNL     1      50.556   7.776  13.546  0.00  0.00    +0.000 NA
ATOM     25  C   UNL     1      49.601   7.364  14.402  0.00  0.00    +0.000 A 
ATOM     26  C   UNL     1      48.280   7.143  14.037  0.00  0.00    +0.000 A 
ENDBRANCH  17  21
ENDBRANCH  14  15
ENDBRANCH   1  14
TORSDOF 5
ENDMDL
MODEL 5
REMARK VINA RESULT:    -7.233      1.614      2.552
REMARK INTER + INTRA:         -10.059
REMARK INTER:                  -9.854
REMARK INTRA:                  -0.205
REMARK UNBOUND:                -0.712
REMARK  Name = 
REMARK  5 active torsions:
REMARK  status: ('A' for Active; 'I' for Inactive)
REMARK    1  A    between atoms: C_2  and  C_4
REMARK    2  A    between atoms: C_7  and  N_8
REMARK    3  A    between atoms: N_8  and  C_9
REMARK    4  A    between atoms: C_9  and  C_10
REMARK    5  A    between atoms: C_12  and  C_13
REMARK                            x       y       z     vdW  Elec       q    Type
REMARK                         _______ _______ _______ _____ _____    ______ ____
ROOT
ATOM      1  N   UNL     1      44.317   2.506  10.764  0.00  0.00    +0.000 N 
ATOM      2  H   UNL     1      44.203   1.555  11.096  0.00  0.00    +0.000 HD
ENDROOT
BRANCH   1   6
ATOM      3  C   UNL     1      46.531   2.671   7.184  0.00  0.00    +0.000 A 
ATOM      4  C   UNL     1      45.924   3.832   7.667  0.00  0.00    +0.000 A 
ATOM      5  C   UNL     1      45.152   3.787   8.834  0.00  0.00    +0.000 A 
ATOM      6  C   UNL     1      44.950   2.590   9.529  0.00  0.00    +0.000 A 
ATOM      7  C   UNL     1      45.550   1.430   9.015  0.00  0.00    +0.000 A 
ATOM      8  C   UNL     1      46.324   1.463   7.849  0.00  0.00    +0.000 A 
BRANCH   3  10
ATOM      9  N   UNL     1      48.730   2.420   6.171  0.00  0.00    +0.000 N 
ATOM     10  C   UNL     1      47.401   2.686   5.981  0.00  0.00    +0.000 C 
ATOM     11  O   UNL     1      46.949   2.875   4.859  0.00  0.00    +0.000 OA
ATOM     12  H   UNL     1      49.287   2.310   5.333  0.00  0.00    +0.000 HD
ATOM     13  H   UNL     1      49.075   2.001   7.021  0.00  0.00    +0.000 HD
ENDBRANCH   3  10
ENDBRANCH   1   6
BRANCH   1  14
ATOM     14  C   UNL     1      43.281   3.441  11.196  0.00  0.00    +0.000 C 
BRANCH  14  15
ATOM     15  C   UNL     1      43.798   4.846  11.436  0.00  0.00    +0.000 A 
ATOM     16  C   UNL     1      45.064   5.037  11.992  0.00  0.00    +0.000 A 
ATOM     17  C   UNL     1      45.586   6.330  12.150  0.00  0.00    +0.000 A 
ATOM     18  C   UNL     1      44.774   7.390  11.731  0.00  0.00    +0.000 A 
ATOM     19  C   UNL     1      43.520   7.123  11.200  0.00  0.00    +0.000 A 
ATOM     20  N   UNL     1      43.019   5.881  11.037  0.00  0.00    +0.000 NA
BRANCH  17  21
ATOM     21  C   UNL     1      46.932   6.552  12.731  0.00  0.00    +0.000 A 
ATOM     22  C   UNL     1      47.961   7.159  11.995  0.00  0.00    +0.000 A 
ATOM     23  C   UNL     1      49.212   7.328  12.572  0.00  0.00    +0.000 A 
ATOM     24  N   UNL     1      49.513   6.952  13.829  0.00  0.00    +0.000 NA
ATOM     25  C   UNL     1      48.522   6.377  14.537  0.00  0.00    +0.000 A 
ATOM     26  C   UNL     1      47.244   6.158  14.040  0.00  0.00    +0.000 A 
ENDBRANCH  17  21
ENDBRANCH  14  15
ENDBRANCH   1  14
TORSDOF 5
ENDMDL
MODEL 6
REMARK VINA RESULT:    -6.931      2.696      7.030
REMARK INTER + INTRA:          -9.669
REMARK INTER:                  -9.094
REMARK INTRA:                  -0.575
REMARK UNBOUND:                -0.712
REMARK  Name = 
REMARK  5 active torsions:
REMARK  status: ('A' for Active; 'I' for Inactive)
REMARK    1  A    between atoms: C_2  and  C_4
REMARK    2  A    between atoms: C_7  and  N_8
REMARK    3  A    between atoms: N_8  and  C_9
REMARK    4  A    between atoms: C_9  and  C_10
REMARK    5  A    between atoms: C_12  and  C_13
REMARK                            x       y       z     vdW  Elec       q    Type
REMARK                         _______ _______ _______ _____ _____    ______ ____
ROOT
ATOM      1  N   UNL     1      45.435   6.617  12.593  0.00  0.00    +0.000 N 
ATOM      2  H   UNL     1      45.622   5.802  13.166  0.00  0.00    +0.000 HD
ENDROOT
BRANCH   1   6
ATOM      3  C   UNL     1      48.661   9.172  11.692  0.00  0.00    +0.000 A 
ATOM      4  C   UNL     1      48.866   7.792  11.710  0.00  0.00    +0.000 A 
ATOM      5  C   UNL     1      47.815   6.929  12.046  0.00  0.00    +0.000 A 
ATOM      6  C   UNL     1      46.551   7.420  12.390  0.00  0.00    +0.000 A 
ATOM      7  C   UNL     1      46.371   8.812  12.388  0.00  0.00    +0.000 A 
ATOM      8  C   UNL     1      47.414   9.683  12.054  0.00  0.00    +0.000 A 
BRANCH   3  10
ATOM      9  N   UNL     1      49.366  11.418  11.075  0.00  0.00    +0.000 N 
ATOM     10  C   UNL     1      49.733  10.117  11.290  0.00  0.00    +0.000 C 
ATOM     11  O   UNL     1      50.903   9.769  11.203  0.00  0.00    +0.000 OA
ATOM     12  H   UNL     1      50.121  12.075  10.925  0.00  0.00    +0.000 HD
ATOM     13  H   UNL     1      48.483  11.785  11.396  0.00  0.00    +0.000 HD
ENDBRANCH   3  10
ENDBRANCH   1   6
BRANCH   1  14
ATOM     14  C   UNL     1      44.382   6.444  11.595  0.00  0.00    +0.000 C 
BRANCH  14  15
ATOM     15  C   UNL     1      44.251   5.018  11.096  0.00  0.00    +0.000 A 
ATOM     16  C   UNL     1      44.990   4.596   9.990  0.00  0.00    +0.000 A 
ATOM     17  C   UNL     1      44.936   3.261   9.563  0.00  0.00    +0.000 A 
ATOM     18  C   UNL     1      44.109   2.401  10.296  0.00  0.00    +0.000 A 
ATOM     19  C   UNL     1      43.393   2.896  11.376  0.00  0.00    +0.000 A 
ATOM     20  N   UNL     1      43.450   4.177  11.795  0.00  0.00    +0.000 NA
BRANCH  17  21
ATOM     21  C   UNL     1      45.720   2.792   8.395  0.00  0.00    +0.000 A 
ATOM     22  C   UNL     1      46.189   1.472   8.304  0.00  0.00    +0.000 A 
ATOM     23  C   UNL     1      46.938   1.083   7.203  0.00  0.00    +0.000 A 
ATOM     24  N   UNL     1      47.244   1.901   6.179  0.00  0.00    +0.000 NA
ATOM     25  C   UNL     1      46.785   3.165   6.264  0.00  0.00    +0.000 A 
ATOM     26  C   UNL     1      46.039   3.647   7.331  0.00  0.00    +0.000 A 
ENDBRANCH  17  21
ENDBRANCH  14  15
ENDBRANCH   1  14
TORSDOF 5
ENDMDL
MODEL 7
REMARK VINA RESULT:    -6.857      3.465      7.577
REMARK INTER + INTRA:          -9.573
REMARK INTER:                  -9.062
REMARK INTRA:                  -0.511
REMARK UNBOUND:                -0.712
REMARK  Name = 
REMARK  5 active torsions:
REMARK  status: ('A' for Active; 'I' for Inactive)
REMARK    1  A    between atoms: C_2  and  C_4
REMARK    2  A    between atoms: C_7  and  N_8
REMARK    3  A    between atoms: N_8  and  C_9
REMARK    4  A    between atoms: C_9  and  C_10
REMARK    5  A    between atoms: C_12  and  C_13
REMARK                            x       y       z     vdW  Elec       q    Type
REMARK                         _______ _______ _______ _____ _____    ______ ____
ROOT
ATOM      1  N   UNL     1      46.544   5.972  12.869  0.00  0.00    +0.000 N 
ATOM      2  H   UNL     1      46.977   6.741  12.372  0.00  0.00    +0.000 HD
ENDROOT
BRANCH   1   6
ATOM      3  C   UNL     1      48.281   4.912  16.558  0.00  0.00    +0.000 A 
ATOM      4  C   UNL     1      48.701   6.077  15.914  0.00  0.00    +0.000 A 
ATOM      5  C   UNL     1      48.163   6.425  14.669  0.00  0.00    +0.000 A 
ATOM      6  C   UNL     1      47.217   5.613  14.031  0.00  0.00    +0.000 A 
ATOM      7  C   UNL     1      46.826   4.434  14.684  0.00  0.00    +0.000 A 
ATOM      8  C   UNL     1      47.357   4.077  15.929  0.00  0.00    +0.000 A 
BRANCH   3  10
ATOM      9  N   UNL     1      47.880   4.016  18.784  0.00  0.00    +0.000 N 
ATOM     10  C   UNL     1      48.788   4.535  17.901  0.00  0.00    +0.000 C 
ATOM     11  O   UNL     1      49.971   4.632  18.197  0.00  0.00    +0.000 OA
ATOM     12  H   UNL     1      48.258   3.648  19.648  0.00  0.00    +0.000 HD
ATOM     13  H   UNL     1      46.978   3.676  18.486  0.00  0.00    +0.000 HD
ENDBRANCH   3  10
ENDBRANCH   1   6
BRANCH   1  14
ATOM     14  C   UNL     1      45.093   5.880  12.726  0.00  0.00    +0.000 C 
BRANCH  14  15
ATOM     15  C   UNL     1      44.641   4.687  11.906  0.00  0.00    +0.000 A 
ATOM     16  C   UNL     1      45.295   4.374  10.713  0.00  0.00    +0.000 A 
ATOM     17  C   UNL     1      44.938   3.230   9.984  0.00  0.00    +0.000 A 
ATOM     18  C   UNL     1      43.905   2.446  10.510  0.00  0.00    +0.000 A 
ATOM     19  C   UNL     1      43.291   2.829  11.695  0.00  0.00    +0.000 A 
ATOM     20  N   UNL     1      43.639   3.922  12.405  0.00  0.00    +0.000 NA
BRANCH  17  21
ATOM     21  C   UNL     1      45.627   2.876   8.719  0.00  0.00    +0.000 A 
ATOM     22  C   UNL     1      46.035   1.562   8.445  0.00  0.00    +0.000 A 
ATOM     23  C   UNL     1      46.696   1.280   7.258  0.00  0.00    +0.000 A 
ATOM     24  N   UNL     1      46.970   2.202   6.317  0.00  0.00    +0.000 NA
ATOM     25  C   UNL     1      46.570   3.462   6.577  0.00  0.00    +0.000 A 
ATOM     26  C   UNL     1      45.913   3.839   7.741  0.00  0.00    +0.000 A 
ENDBRANCH  17  21
ENDBRANCH  14  15
ENDBRANCH   1  14
TORSDOF 5
ENDMDL
MODEL 8
REMARK VINA RESULT:    -6.527      4.653      7.971
REMARK INTER + INTRA:          -9.146
REMARK INTER:                  -8.563
REMARK INTRA:                  -0.583
REMARK UNBOUND:                -0.712
REMARK  Name = 
REMARK  5 active torsions:
REMARK  status: ('A' for Active; 'I' for Inactive)
REMARK    1  A    between atoms: C_2  and  C_4
REMARK    2  A    between atoms: C_7  and  N_8
REMARK    3  A    between atoms: N_8  and  C_9
REMARK    4  A    between atoms: C_9  and  C_10
REMARK    5  A    between atoms: C_12  and  C_13
REMARK                            x       y       z     vdW  Elec       q    Type
REMARK                         _______ _______ _______ _____ _____    ______ ____
ROOT
ATOM      1  N   UNL     1      48.145   5.507  16.279  0.00  0.00    +0.000 N 
ATOM      2  H   UNL     1      47.218   5.194  16.017  0.00  0.00    +0.000 HD
ENDROOT
BRANCH   1   6
ATOM      3  C   UNL     1      50.850   2.500  17.454  0.00  0.00    +0.000 A 
ATOM      4  C   UNL     1      49.579   2.139  17.006  0.00  0.00    +0.000 A 
ATOM      5  C   UNL     1      48.653   3.127  16.648  0.00  0.00    +0.000 A 
ATOM      6  C   UNL     1      48.963   4.487  16.749  0.00  0.00    +0.000 A 
ATOM      7  C   UNL     1      50.238   4.830  17.225  0.00  0.00    +0.000 A 
ATOM      8  C   UNL     1      51.172   3.851  17.584  0.00  0.00    +0.000 A 
BRANCH   3  10
ATOM      9  N   UNL     1      51.429   0.243  18.155  0.00  0.00    +0.000 N 
ATOM     10  C   UNL     1      51.878   1.484  17.793  0.00  0.00    +0.000 C 
ATOM     11  O   UNL     1      53.075   1.721  17.705  0.00  0.00    +0.000 OA
ATOM     12  H   UNL     1      52.136  -0.474  18.261  0.00  0.00    +0.000 HD
ATOM     13  H   UNL     1      50.482  -0.057  17.976  0.00  0.00    +0.000 HD
ENDBRANCH   3  10
ENDBRANCH   1   6
BRANCH   1  14
ATOM     14  C   UNL     1      48.649   6.652  15.523  0.00  0.00    +0.000 C 
BRANCH  14  15
ATOM     15  C   UNL     1      48.076   6.750  14.122  0.00  0.00    +0.000 A 
ATOM     16  C   UNL     1      47.088   5.854  13.709  0.00  0.00    +0.000 A 
ATOM     17  C   UNL     1      46.494   5.981  12.444  0.00  0.00    +0.000 A 
ATOM     18  C   UNL     1      46.950   7.031  11.639  0.00  0.00    +0.000 A 
ATOM     19  C   UNL     1      47.946   7.873  12.113  0.00  0.00    +0.000 A 
ATOM     20  N   UNL     1      48.511   7.762  13.333  0.00  0.00    +0.000 NA
BRANCH  17  21
ATOM     21  C   UNL     1      45.438   5.044  11.991  0.00  0.00    +0.000 A 
ATOM     22  C   UNL     1      45.287   3.772  12.563  0.00  0.00    +0.000 A 
ATOM     23  C   UNL     1      44.297   2.919  12.093  0.00  0.00    +0.000 A 
ATOM     24  N   UNL     1      43.439   3.241  11.109  0.00  0.00    +0.000 NA
ATOM     25  C   UNL     1      43.579   4.467  10.567  0.00  0.00    +0.000 A 
ATOM     26  C   UNL     1      44.545   5.381  10.964  0.00  0.00    +0.000 A 
ENDBRANCH  17  21
ENDBRANCH  14  15
ENDBRANCH   1  14
TORSDOF 5
ENDMDL
MODEL 9
REMARK VINA RESULT:    -6.310      5.431      8.580
REMARK INTER + INTRA:          -8.866
REMARK INTER:                  -8.336
REMARK INTRA:                  -0.530
REMARK UNBOUND:                -0.712
REMARK  Name = 
REMARK  5 active torsions:
REMARK  status: ('A' for Active; 'I' for Inactive)
REMARK    1  A    between atoms: C_2  and  C_4
REMARK    2  A    between atoms: C_7  and  N_8
REMARK    3  A    between atoms: N_8  and  C_9
REMARK    4  A    between atoms: C_9  and  C_10
REMARK    5  A    between atoms: C_12  and  C_13
REMARK                            x       y       z     vdW  Elec       q    Type
REMARK                         _______ _______ _______ _____ _____    ______ ____
ROOT
ATOM      1  N   UNL     1      48.219   3.042  16.966  0.00  0.00    +0.000 N 
ATOM      2  H   UNL     1      47.877   2.281  16.391  0.00  0.00    +0.000 HD
ENDROOT
BRANCH   1   6
ATOM      3  C   UNL     1      52.305   2.668  17.918  0.00  0.00    +0.000 A 
ATOM      4  C   UNL     1      51.686   3.913  18.039  0.00  0.00    +0.000 A 
ATOM      5  C   UNL     1      50.339   4.065  17.690  0.00  0.00    +0.000 A 
ATOM      6  C   UNL     1      49.589   2.992  17.194  0.00  0.00    +0.000 A 
ATOM      7  C   UNL     1      50.236   1.754  17.058  0.00  0.00    +0.000 A 
ATOM      8  C   UNL     1      51.582   1.591  17.404  0.00  0.00    +0.000 A 
BRANCH   3  10
ATOM      9  N   UNL     1      53.947   2.202  19.652  0.00  0.00    +0.000 N 
ATOM     10  C   UNL     1      53.716   2.454  18.327  0.00  0.00    +0.000 C 
ATOM     11  O   UNL     1      54.631   2.448  17.515  0.00  0.00    +0.000 OA
ATOM     12  H   UNL     1      54.892   1.935  19.897  0.00  0.00    +0.000 HD
ATOM     13  H   UNL     1      53.207   1.935  20.283  0.00  0.00    +0.000 HD
ENDBRANCH   3  10
ENDBRANCH   1   6
BRANCH   1  14
ATOM     14  C   UNL     1      47.474   4.293  16.845  0.00  0.00    +0.000 C 
BRANCH  14  15
ATOM     15  C   UNL     1      47.439   4.842  15.432  0.00  0.00    +0.000 A 
ATOM     16  C   UNL     1      46.497   4.361  14.521  0.00  0.00    +0.000 A 
ATOM     17  C   UNL     1      46.403   4.913  13.235  0.00  0.00    +0.000 A 
ATOM     18  C   UNL     1      47.297   5.945  12.927  0.00  0.00    +0.000 A 
ATOM     19  C   UNL     1      48.215   6.361  13.880  0.00  0.00    +0.000 A 
ATOM     20  N   UNL     1      48.302   5.840  15.122  0.00  0.00    +0.000 NA
BRANCH  17  21
ATOM     21  C   UNL     1      45.403   4.421  12.256  0.00  0.00    +0.000 A 
ATOM     22  C   UNL     1      45.311   4.959  10.963  0.00  0.00    +0.000 A 
ATOM     23  C   UNL     1      44.345   4.483  10.087  0.00  0.00    +0.000 A 
ATOM     24  N   UNL     1      43.474   3.504  10.394  0.00  0.00    +0.000 NA
ATOM     25  C   UNL     1      43.570   2.983  11.632  0.00  0.00    +0.000 A 
ATOM     26  C   UNL     1      44.495   3.402  12.579  0.00  0.00    +0.000 A 
ENDBRANCH  17  21
ENDBRANCH  14  15
ENDBRANCH   1  14
TORSDOF 5
ENDMDL
