MODEL 1
REMARK VINA RESULT:    -7.823      0.000      0.000
REMARK INTER + INTRA:         -11.792
REMARK INTER:                 -10.567
REMARK INTRA:                  -1.225
REMARK UNBOUND:                -1.225
REMARK  Name = 
REMARK  7 active torsions:
REMARK  status: ('A' for Active; 'I' for Inactive)
REMARK    1  A    between atoms: C_1  and  C_2
REMARK    2  A    between atoms: C_2  and  N_3
REMARK    3  A    between atoms: C_2  and  C_16
REMARK    4  A    between atoms: C_4  and  C_6
REMARK    5  A    between atoms: C_19  and  C_20
REMARK    6  A    between atoms: C_20  and  N_21
REMARK    7  A    between atoms: C_22  and  C_24
REMARK                            x       y       z     vdW  Elec       q    Type
REMARK                         _______ _______ _______ _____ _____    ______ ____
ROOT
ATOM      1  C   UNL     1      47.885   9.040  14.063  0.00  0.00    +0.000 C 
ATOM      2  C   UNL     1      47.983   7.515  14.008  0.00  0.00    +0.000 C 
ENDROOT
BRANCH   2   3
ATOM      3  C   UNL     1      46.796   6.981  13.215  0.00  0.00    +0.000 A 
ATOM      4  C   UNL     1      46.045   7.840  12.408  0.00  0.00    +0.000 A 
ATOM      5  C   UNL     1      45.009   7.351  11.600  0.00  0.00    +0.000 A 
ATOM      6  C   UNL     1      44.684   5.985  11.582  0.00  0.00    +0.000 A 
ATOM      7  C   UNL     1      45.428   5.128  12.408  0.00  0.00    +0.000 A 
ATOM      8  C   UNL     1      46.456   5.620  13.226  0.00  0.00    +0.000 A 
BRANCH   6   9
ATOM      9  C   UNL     1      43.583   5.419  10.706  0.00  0.00    +0.000 C 
BRANCH   9  10
ATOM     10  N   UNL     1      44.083   4.710   9.545  0.00  0.00    +0.000 N 
ATOM     11  C   UNL     1      44.254   3.337   9.529  0.00  0.00    +0.000 C 
ATOM     12  O   UNL     1      43.942   2.596  10.463  0.00  0.00    +0.000 OA
ATOM     13  H   UNL     1      44.714   5.208   8.927  0.00  0.00    +0.000 HD
BRANCH  11  14
ATOM     14  C   UNL     1      44.846   2.822   8.192  0.00  0.00    +0.000 C 
ATOM     15  C   UNL     1      45.944   1.779   8.362  0.00  0.00    +0.000 C 
ATOM     16  C   UNL     1      46.850   2.073   7.191  0.00  0.00    +0.000 C 
ATOM     17  C   UNL     1      46.762   3.577   7.103  0.00  0.00    +0.000 C 
ATOM     18  O   UNL     1      45.413   3.917   7.441  0.00  0.00    +0.000 OA
ENDBRANCH  11  14
ENDBRANCH   9  10
ENDBRANCH   6   9
ENDBRANCH   2   3
BRANCH   2  19
ATOM     19  N   UNL     1      47.996   6.918  15.336  0.00  0.00    +0.000 N 
ATOM     20  C   UNL     1      49.130   6.536  15.995  0.00  0.00    +0.000 C 
ATOM     21  O   UNL     1      50.267   6.666  15.529  0.00  0.00    +0.000 OA
ATOM     22  H   UNL     1      47.135   6.453  15.609  0.00  0.00    +0.000 HD
BRANCH  20  23
ATOM     23  C   UNL     1      48.929   6.026  17.351  0.00  0.00    +0.000 A 
ATOM     24  C   UNL     1      49.204   4.704  17.670  0.00  0.00    +0.000 A 
ATOM     25  S   UNL     1      48.934   4.341  19.317  0.00  0.00    +0.000 S 
ATOM     26  C   UNL     1      48.400   5.925  19.639  0.00  0.00    +0.000 A 
ATOM     27  N   UNL     1      47.979   6.299  20.877  0.00  0.00    +0.000 NA
ATOM     28  C   UNL     1      47.561   7.519  20.951  0.00  0.00    +0.000 A 
ATOM     29  N   UNL     1      47.533   8.405  19.908  0.00  0.00    +0.000 N 
ATOM     30  C   UNL     1      47.994   8.090  18.654  0.00  0.00    +0.000 A 
ATOM     31  O   UNL     1      48.028   8.924  17.762  0.00  0.00    +0.000 OA
ATOM     32  C   UNL     1      48.449   6.722  18.513  0.00  0.00    +0.000 A 
ATOM     33  H   UNL     1      47.209   9.352  20.032  0.00  0.00    +0.000 HD
ENDBRANCH  20  23
ENDBRANCH   2  19
TORSDOF 6
ENDMDL
MODEL 2
REMARK VINA RESULT:    -7.780      1.301      1.930
REMARK INTER + INTRA:         -11.735
REMARK INTER:                 -10.763
REMARK INTRA:                  -0.972
REMARK UNBOUND:                -1.225
REMARK  Name = 
REMARK  7 active torsions:
REMARK  status: ('A' for Active; 'I' for Inactive)
REMARK    1  A    between atoms: C_1  and  C_2
REMARK    2  A    between atoms: C_2  and  N_3
REMARK    3  A    between atoms: C_2  and  C_16
REMARK    4  A    between atoms: C_4  and  C_6
REMARK    5  A    between atoms: C_19  and  C_20
REMARK    6  A    between atoms: C_20  and  N_21
REMARK    7  A    between atoms: C_22  and  C_24
REMARK                            x       y       z     vdW  Elec       q    Type
REMARK                         _______ _______ _______ _____ _____    ______ ____
ROOT
ATOM      1  C   UNL     1      48.182   9.433  13.521  0.00  0.00    +0.000 C 
ATOM      2  C   UNL     1      48.194   7.942  13.862  0.00  0.00    +0.000 C 
ENDROOT
BRANCH   2   3
ATOM      3  C   UNL     1      46.994   7.282  13.193  0.00  0.00    +0.000 A 
ATOM      4  C   UNL     1      46.042   8.061  12.528  0.00  0.00    +0.000 A 
ATOM      5  C   UNL     1      44.982   7.466  11.830  0.00  0.00    +0.000 A 
ATOM      6  C   UNL     1      44.835   6.070  11.781  0.00  0.00    +0.000 A 
ATOM      7  C   UNL     1      45.782   5.292  12.466  0.00  0.00    +0.000 A 
ATOM      8  C   UNL     1      46.835   5.888  13.176  0.00  0.00    +0.000 A 
BRANCH   6   9
ATOM      9  C   UNL     1      43.713   5.392  11.018  0.00  0.00    +0.000 C 
BRANCH   9  10
ATOM     10  N   UNL     1      44.159   4.741   9.803  0.00  0.00    +0.000 N 
ATOM     11  C   UNL     1      44.295   3.368   9.703  0.00  0.00    +0.000 C 
ATOM     12  O   UNL     1      43.994   2.581  10.602  0.00  0.00    +0.000 OA
ATOM     13  H   UNL     1      44.783   5.259   9.195  0.00  0.00    +0.000 HD
BRANCH  11  14
ATOM     14  C   UNL     1      44.833   2.917   8.320  0.00  0.00    +0.000 C 
ATOM     15  C   UNL     1      45.892   1.825   8.393  0.00  0.00    +0.000 C 
ATOM     16  C   UNL     1      46.779   2.159   7.219  0.00  0.00    +0.000 C 
ATOM     17  C   UNL     1      46.749   3.668   7.228  0.00  0.00    +0.000 C 
ATOM     18  O   UNL     1      45.423   4.036   7.624  0.00  0.00    +0.000 OA
ENDBRANCH  11  14
ENDBRANCH   9  10
ENDBRANCH   6   9
ENDBRANCH   2   3
BRANCH   2  19
ATOM     19  N   UNL     1      48.148   7.706  15.297  0.00  0.00    +0.000 N 
ATOM     20  C   UNL     1      49.144   7.097  16.008  0.00  0.00    +0.000 C 
ATOM     21  O   UNL     1      50.193   6.687  15.499  0.00  0.00    +0.000 OA
ATOM     22  H   UNL     1      47.216   7.668  15.700  0.00  0.00    +0.000 HD
BRANCH  20  23
ATOM     23  C   UNL     1      48.933   7.024  17.453  0.00  0.00    +0.000 A 
ATOM     24  C   UNL     1      48.778   8.172  18.216  0.00  0.00    +0.000 A 
ATOM     25  S   UNL     1      48.505   7.847  19.871  0.00  0.00    +0.000 S 
ATOM     26  C   UNL     1      48.632   6.168  19.621  0.00  0.00    +0.000 A 
ATOM     27  N   UNL     1      48.525   5.283  20.649  0.00  0.00    +0.000 NA
ATOM     28  C   UNL     1      48.690   4.048  20.308  0.00  0.00    +0.000 A 
ATOM     29  N   UNL     1      48.942   3.612  19.035  0.00  0.00    +0.000 N 
ATOM     30  C   UNL     1      49.009   4.461  17.959  0.00  0.00    +0.000 A 
ATOM     31  O   UNL     1      49.158   4.035  16.823  0.00  0.00    +0.000 OA
ATOM     32  C   UNL     1      48.857   5.861  18.294  0.00  0.00    +0.000 A 
ATOM     33  H   UNL     1      49.047   2.630  18.828  0.00  0.00    +0.000 HD
ENDBRANCH  20  23
ENDBRANCH   2  19
TORSDOF 6
ENDMDL
MODEL 3
REMARK VINA RESULT:    -7.362      2.973      4.444
REMARK INTER + INTRA:         -11.169
REMARK INTER:                  -9.891
REMARK INTRA:                  -1.278
REMARK UNBOUND:                -1.225
REMARK  Name = 
REMARK  7 active torsions:
REMARK  status: ('A' for Active; 'I' for Inactive)
REMARK    1  A    between atoms: C_1  and  C_2
REMARK    2  A    between atoms: C_2  and  N_3
REMARK    3  A    between atoms: C_2  and  C_16
REMARK    4  A    between atoms: C_4  and  C_6
REMARK    5  A    between atoms: C_19  and  C_20
REMARK    6  A    between atoms: C_20  and  N_21
REMARK    7  A    between atoms: C_22  and  C_24
REMARK                            x       y       z     vdW  Elec       q    Type
REMARK                         _______ _______ _______ _____ _____    ______ ____
ROOT
ATOM      1  C   UNL     1      47.520   3.681  15.514  0.00  0.00    +0.000 C 
ATOM      2  C   UNL     1      47.138   5.076  15.018  0.00  0.00    +0.000 C 
ENDROOT
BRANCH   2   3
ATOM      3  C   UNL     1      46.207   4.928  13.821  0.00  0.00    +0.000 A 
ATOM      4  C   UNL     1      45.608   6.055  13.251  0.00  0.00    +0.000 A 
ATOM      5  C   UNL     1      44.823   5.950  12.095  0.00  0.00    +0.000 A 
ATOM      6  C   UNL     1      44.603   4.708  11.476  0.00  0.00    +0.000 A 
ATOM      7  C   UNL     1      45.191   3.576  12.062  0.00  0.00    +0.000 A 
ATOM      8  C   UNL     1      45.965   3.680  13.226  0.00  0.00    +0.000 A 
BRANCH   6   9
ATOM      9  C   UNL     1      43.777   4.560  10.213  0.00  0.00    +0.000 C 
BRANCH   9  10
ATOM     10  N   UNL     1      44.362   3.649   9.250  0.00  0.00    +0.000 N 
ATOM     11  C   UNL     1      45.371   4.031   8.383  0.00  0.00    +0.000 C 
ATOM     12  O   UNL     1      45.899   5.145   8.394  0.00  0.00    +0.000 OA
ATOM     13  H   UNL     1      43.775   2.905   8.890  0.00  0.00    +0.000 HD
BRANCH  11  14
ATOM     14  C   UNL     1      45.795   2.895   7.417  0.00  0.00    +0.000 C 
ATOM     15  C   UNL     1      46.171   1.596   8.118  0.00  0.00    +0.000 C 
ATOM     16  C   UNL     1      47.253   1.048   7.219  0.00  0.00    +0.000 C 
ATOM     17  C   UNL     1      47.958   2.308   6.780  0.00  0.00    +0.000 C 
ATOM     18  O   UNL     1      46.939   3.304   6.637  0.00  0.00    +0.000 OA
ENDBRANCH  11  14
ENDBRANCH   9  10
ENDBRANCH   6   9
ENDBRANCH   2   3
BRANCH   2  19
ATOM     19  N   UNL     1      48.303   5.862  14.640  0.00  0.00    +0.000 N 
ATOM     20  C   UNL     1      48.896   6.793  15.446  0.00  0.00    +0.000 C 
ATOM     21  O   UNL     1      48.503   7.058  16.587  0.00  0.00    +0.000 OA
ATOM     22  H   UNL     1      48.444   5.974  13.641  0.00  0.00    +0.000 HD
BRANCH  20  23
ATOM     23  C   UNL     1      50.102   7.419  14.905  0.00  0.00    +0.000 A 
ATOM     24  C   UNL     1      51.306   7.376  15.591  0.00  0.00    +0.000 A 
ATOM     25  S   UNL     1      52.585   8.137  14.754  0.00  0.00    +0.000 S 
ATOM     26  C   UNL     1      51.557   8.584  13.473  0.00  0.00    +0.000 A 
ATOM     27  N   UNL     1      52.011   9.302  12.410  0.00  0.00    +0.000 NA
ATOM     28  C   UNL     1      51.101   9.603  11.544  0.00  0.00    +0.000 A 
ATOM     29  N   UNL     1      49.783   9.248  11.633  0.00  0.00    +0.000 N 
ATOM     30  C   UNL     1      49.288   8.483  12.660  0.00  0.00    +0.000 A 
ATOM     31  O   UNL     1      48.122   8.116  12.674  0.00  0.00    +0.000 OA
ATOM     32  C   UNL     1      50.265   8.141  13.672  0.00  0.00    +0.000 A 
ATOM     33  H   UNL     1      49.120   9.501  10.915  0.00  0.00    +0.000 HD
ENDBRANCH  20  23
ENDBRANCH   2  19
TORSDOF 6
ENDMDL
MODEL 4
REMARK VINA RESULT:    -7.112      3.174      4.171
REMARK INTER + INTRA:         -10.832
REMARK INTER:                  -9.617
REMARK INTRA:                  -1.215
REMARK UNBOUND:                -1.225
REMARK  Name = 
REMARK  7 active torsions:
REMARK  status: ('A' for Active; 'I' for Inactive)
REMARK    1  A    between atoms: C_1  and  C_2
REMARK    2  A    between atoms: C_2  and  N_3
REMARK    3  A    between atoms: C_2  and  C_16
REMARK    4  A    between atoms: C_4  and  C_6
REMARK    5  A    between atoms: C_19  and  C_20
REMARK    6  A    between atoms: C_20  and  N_21
REMARK    7  A    between atoms: C_22  and  C_24
REMARK                            x       y       z     vdW  Elec       q    Type
REMARK                         _______ _______ _______ _____ _____    ______ ____
ROOT
ATOM      1  C   UNL     1      47.415   4.225  15.693  0.00  0.00    +0.000 C 
ATOM      2  C   UNL     1      47.218   5.548  14.952  0.00  0.00    +0.000 C 
ENDROOT
BRANCH   2   3
ATOM      3  C   UNL     1      46.400   5.283  13.694  0.00  0.00    +0.000 A 
ATOM      4  C   UNL     1      46.150   3.971  13.280  0.00  0.00    +0.000 A 
ATOM      5  C   UNL     1      45.324   3.706  12.179  0.00  0.00    +0.000 A 
ATOM      6  C   UNL     1      44.727   4.747  11.450  0.00  0.00    +0.000 A 
ATOM      7  C   UNL     1      44.996   6.063  11.857  0.00  0.00    +0.000 A 
ATOM      8  C   UNL     1      45.833   6.329  12.950  0.00  0.00    +0.000 A 
BRANCH   6   9
ATOM      9  C   UNL     1      43.812   4.496  10.267  0.00  0.00    +0.000 C 
BRANCH   9  10
ATOM     10  N   UNL     1      44.389   3.611   9.275  0.00  0.00    +0.000 N 
ATOM     11  C   UNL     1      45.393   4.015   8.413  0.00  0.00    +0.000 C 
ATOM     12  O   UNL     1      45.925   5.126   8.452  0.00  0.00    +0.000 OA
ATOM     13  H   UNL     1      43.797   2.879   8.898  0.00  0.00    +0.000 HD
BRANCH  11  14
ATOM     14  C   UNL     1      45.809   2.905   7.414  0.00  0.00    +0.000 C 
ATOM     15  C   UNL     1      46.263   1.611   8.079  0.00  0.00    +0.000 C 
ATOM     16  C   UNL     1      47.317   1.111   7.121  0.00  0.00    +0.000 C 
ATOM     17  C   UNL     1      47.956   2.400   6.665  0.00  0.00    +0.000 C 
ATOM     18  O   UNL     1      46.898   3.361   6.584  0.00  0.00    +0.000 OA
ENDBRANCH  11  14
ENDBRANCH   9  10
ENDBRANCH   6   9
ENDBRANCH   2   3
BRANCH   2  19
ATOM     19  N   UNL     1      48.484   6.170  14.594  0.00  0.00    +0.000 N 
ATOM     20  C   UNL     1      48.737   7.510  14.696  0.00  0.00    +0.000 C 
ATOM     21  O   UNL     1      47.913   8.331  15.111  0.00  0.00    +0.000 OA
ATOM     22  H   UNL     1      49.046   5.653  13.924  0.00  0.00    +0.000 HD
BRANCH  20  23
ATOM     23  C   UNL     1      50.098   7.921  14.354  0.00  0.00    +0.000 A 
ATOM     24  C   UNL     1      50.350   8.747  13.269  0.00  0.00    +0.000 A 
ATOM     25  S   UNL     1      52.005   9.128  13.083  0.00  0.00    +0.000 S 
ATOM     26  C   UNL     1      52.435   8.164  14.419  0.00  0.00    +0.000 A 
ATOM     27  N   UNL     1      53.732   8.019  14.806  0.00  0.00    +0.000 NA
ATOM     28  C   UNL     1      53.902   7.220  15.807  0.00  0.00    +0.000 A 
ATOM     29  N   UNL     1      52.899   6.560  16.465  0.00  0.00    +0.000 N 
ATOM     30  C   UNL     1      51.574   6.714  16.143  0.00  0.00    +0.000 A 
ATOM     31  O   UNL     1      50.695   6.172  16.798  0.00  0.00    +0.000 OA
ATOM     32  C   UNL     1      51.333   7.580  15.009  0.00  0.00    +0.000 A 
ATOM     33  H   UNL     1      53.094   5.959  17.252  0.00  0.00    +0.000 HD
ENDBRANCH  20  23
ENDBRANCH   2  19
TORSDOF 6
ENDMDL
MODEL 5
REMARK VINA RESULT:    -7.020      3.877      9.056
REMARK INTER + INTRA:         -10.708
REMARK INTER:                  -9.501
REMARK INTRA:                  -1.207
REMARK UNBOUND:                -1.225
REMARK  Name = 
REMARK  7 active torsions:
REMARK  status: ('A' for Active; 'I' for Inactive)
REMARK    1  A    between atoms: C_1  and  C_2
REMARK    2  A    between atoms: C_2  and  N_3
REMARK    3  A    between atoms: C_2  and  C_16
REMARK    4  A    between atoms: C_4  and  C_6
REMARK    5  A    between atoms: C_19  and  C_20
REMARK    6  A    between atoms: C_20  and  N_21
REMARK    7  A    between atoms: C_22  and  C_24
REMARK                            x       y       z     vdW  Elec       q    Type
REMARK                         _______ _______ _______ _____ _____    ______ ____
ROOT
ATOM      1  C   UNL     1      49.046   7.573  13.001  0.00  0.00    +0.000 C 
ATOM      2  C   UNL     1      47.780   6.985  13.625  0.00  0.00    +0.000 C 
ENDROOT
BRANCH   2   3
ATOM      3  C   UNL     1      48.168   6.226  14.888  0.00  0.00    +0.000 A 
ATOM      4  C   UNL     1      47.525   5.028  15.214  0.00  0.00    +0.000 A 
ATOM      5  C   UNL     1      47.931   4.268  16.321  0.00  0.00    +0.000 A 
ATOM      6  C   UNL     1      48.989   4.689  17.143  0.00  0.00    +0.000 A 
ATOM      7  C   UNL     1      49.619   5.902  16.823  0.00  0.00    +0.000 A 
ATOM      8  C   UNL     1      49.204   6.668  15.724  0.00  0.00    +0.000 A 
BRANCH   6   9
ATOM      9  C   UNL     1      49.467   3.883  18.335  0.00  0.00    +0.000 C 
BRANCH   9  10
ATOM     10  N   UNL     1      50.830   3.410  18.197  0.00  0.00    +0.000 N 
ATOM     11  C   UNL     1      51.169   2.348  17.377  0.00  0.00    +0.000 C 
ATOM     12  O   UNL     1      50.365   1.757  16.652  0.00  0.00    +0.000 OA
ATOM     13  H   UNL     1      51.451   3.529  18.989  0.00  0.00    +0.000 HD
BRANCH  11  14
ATOM     14  C   UNL     1      52.679   2.002  17.436  0.00  0.00    +0.000 C 
ATOM     15  C   UNL     1      52.973   0.601  17.957  0.00  0.00    +0.000 C 
ATOM     16  C   UNL     1      54.281   0.798  18.684  0.00  0.00    +0.000 C 
ATOM     17  C   UNL     1      54.105   2.178  19.269  0.00  0.00    +0.000 C 
ATOM     18  O   UNL     1      53.371   2.931  18.297  0.00  0.00    +0.000 OA
ENDBRANCH  11  14
ENDBRANCH   9  10
ENDBRANCH   6   9
ENDBRANCH   2   3
BRANCH   2  19
ATOM     19  N   UNL     1      47.080   6.095  12.711  0.00  0.00    +0.000 N 
ATOM     20  C   UNL     1      46.104   6.497  11.843  0.00  0.00    +0.000 C 
ATOM     21  O   UNL     1      45.719   7.667  11.743  0.00  0.00    +0.000 OA
ATOM     22  H   UNL     1      47.066   5.117  12.985  0.00  0.00    +0.000 HD
BRANCH  20  23
ATOM     23  C   UNL     1      45.580   5.458  10.958  0.00  0.00    +0.000 A 
ATOM     24  C   UNL     1      45.747   5.531   9.583  0.00  0.00    +0.000 A 
ATOM     25  S   UNL     1      45.089   4.191   8.753  0.00  0.00    +0.000 S 
ATOM     26  C   UNL     1      44.524   3.498  10.202  0.00  0.00    +0.000 A 
ATOM     27  N   UNL     1      43.829   2.328  10.211  0.00  0.00    +0.000 NA
ATOM     28  C   UNL     1      43.428   1.956  11.381  0.00  0.00    +0.000 A 
ATOM     29  N   UNL     1      43.663   2.637  12.545  0.00  0.00    +0.000 N 
ATOM     30  C   UNL     1      44.401   3.794  12.593  0.00  0.00    +0.000 A 
ATOM     31  O   UNL     1      44.660   4.338  13.657  0.00  0.00    +0.000 OA
ATOM     32  C   UNL     1      44.851   4.267  11.301  0.00  0.00    +0.000 A 
ATOM     33  H   UNL     1      43.336   2.287  13.434  0.00  0.00    +0.000 HD
ENDBRANCH  20  23
ENDBRANCH   2  19
TORSDOF 6
ENDMDL
MODEL 6
REMARK VINA RESULT:    -6.834      2.353      3.089
REMARK INTER + INTRA:         -10.456
REMARK INTER:                  -9.180
REMARK INTRA:                  -1.277
REMARK UNBOUND:                -1.225
REMARK  Name = 
REMARK  7 active torsions:
REMARK  status: ('A' for Active; 'I' for Inactive)
REMARK    1  A    between atoms: C_1  and  C_2
REMARK    2  A    between atoms: C_2  and  N_3
REMARK    3  A    between atoms: C_2  and  C_16
REMARK    4  A    between atoms: C_4  and  C_6
REMARK    5  A    between atoms: C_19  and  C_20
REMARK    6  A    between atoms: C_20  and  N_21
REMARK    7  A    between atoms: C_22  and  C_24
REMARK                            x       y       z     vdW  Elec       q    Type
REMARK                         _______ _______ _______ _____ _____    ______ ____
ROOT
ATOM      1  C   UNL     1      47.913   3.160  15.917  0.00  0.00    +0.000 C 
ATOM      2  C   UNL     1      47.466   4.623  15.929  0.00  0.00    +0.000 C 
ENDROOT
BRANCH   2   3
ATOM      3  C   UNL     1      47.014   5.003  14.524  0.00  0.00    +0.000 A 
ATOM      4  C   UNL     1      45.894   4.390  13.955  0.00  0.00    +0.000 A 
ATOM      5  C   UNL     1      45.408   4.791  12.702  0.00  0.00    +0.000 A 
ATOM      6  C   UNL     1      46.035   5.816  11.974  0.00  0.00    +0.000 A 
ATOM      7  C   UNL     1      47.170   6.416  12.540  0.00  0.00    +0.000 A 
ATOM      8  C   UNL     1      47.663   6.005  13.787  0.00  0.00    +0.000 A 
BRANCH   6   9
ATOM      9  C   UNL     1      45.525   6.289  10.626  0.00  0.00    +0.000 C 
BRANCH   9  10
ATOM     10  N   UNL     1      45.673   5.299   9.578  0.00  0.00    +0.000 N 
ATOM     11  C   UNL     1      44.654   4.432   9.226  0.00  0.00    +0.000 C 
ATOM     12  O   UNL     1      43.524   4.463   9.719  0.00  0.00    +0.000 OA
ATOM     13  H   UNL     1      46.601   4.929   9.410  0.00  0.00    +0.000 HD
BRANCH  11  14
ATOM     14  C   UNL     1      45.071   3.436   8.113  0.00  0.00    +0.000 C 
ATOM     15  C   UNL     1      45.727   2.164   8.634  0.00  0.00    +0.000 C 
ATOM     16  C   UNL     1      46.716   1.842   7.541  0.00  0.00    +0.000 C 
ATOM     17  C   UNL     1      47.164   3.219   7.115  0.00  0.00    +0.000 C 
ATOM     18  O   UNL     1      46.010   4.060   7.211  0.00  0.00    +0.000 OA
ENDBRANCH  11  14
ENDBRANCH   9  10
ENDBRANCH   6   9
ENDBRANCH   2   3
BRANCH   2  19
ATOM     19  N   UNL     1      48.528   5.518  16.362  0.00  0.00    +0.000 N 
ATOM     20  C   UNL     1      48.737   5.890  17.661  0.00  0.00    +0.000 C 
ATOM     21  O   UNL     1      48.044   5.495  18.604  0.00  0.00    +0.000 OA
ATOM     22  H   UNL     1      48.880   6.150  15.649  0.00  0.00    +0.000 HD
BRANCH  20  23
ATOM     23  C   UNL     1      49.905   6.738  17.893  0.00  0.00    +0.000 A 
ATOM     24  C   UNL     1      50.968   6.304  18.672  0.00  0.00    +0.000 A 
ATOM     25  S   UNL     1      52.237   7.442  18.773  0.00  0.00    +0.000 S 
ATOM     26  C   UNL     1      51.384   8.564  17.819  0.00  0.00    +0.000 A 
ATOM     27  N   UNL     1      51.895   9.792  17.532  0.00  0.00    +0.000 NA
ATOM     28  C   UNL     1      51.110  10.546  16.837  0.00  0.00    +0.000 A 
ATOM     29  N   UNL     1      49.866  10.187  16.392  0.00  0.00    +0.000 N 
ATOM     30  C   UNL     1      49.329   8.944  16.613  0.00  0.00    +0.000 A 
ATOM     31  O   UNL     1      48.249   8.625  16.138  0.00  0.00    +0.000 OA
ATOM     32  C   UNL     1      50.162   8.069  17.412  0.00  0.00    +0.000 A 
ATOM     33  H   UNL     1      49.304  10.817  15.839  0.00  0.00    +0.000 HD
ENDBRANCH  20  23
ENDBRANCH   2  19
TORSDOF 6
ENDMDL
MODEL 7
REMARK VINA RESULT:    -6.618      3.361      8.668
REMARK INTER + INTRA:         -10.165
REMARK INTER:                  -9.030
REMARK INTRA:                  -1.135
REMARK UNBOUND:                -1.225
REMARK  Name = 
REMARK  7 active torsions:
REMARK  status: ('A' for Active; 'I' for Inactive)
REMARK    1  A    between atoms: C_1  and  C_2
REMARK    2  A    between atoms: C_2  and  N_3
REMARK    3  A    between atoms: C_2  and  C_16
REMARK    4  A    between atoms: C_4  and  C_6
REMARK    5  A    between atoms: C_19  and  C_20
REMARK    6  A    between atoms: C_20  and  N_21
REMARK    7  A    between atoms: C_22  and  C_24
REMARK                            x       y       z     vdW  Elec       q    Type
REMARK                         _______ _______ _______ _____ _____    ______ ____
ROOT
ATOM      1  C   UNL     1      49.369   8.373  11.516  0.00  0.00    +0.000 C 
ATOM      2  C   UNL     1      48.019   8.127  12.191  0.00  0.00    +0.000 C 
ENDROOT
BRANCH   2   3
ATOM      3  C   UNL     1      48.254   7.897  13.679  0.00  0.00    +0.000 A 
ATOM      4  C   UNL     1      48.367   6.598  14.181  0.00  0.00    +0.000 A 
ATOM      5  C   UNL     1      48.676   6.368  15.530  0.00  0.00    +0.000 A 
ATOM      6  C   UNL     1      48.872   7.435  16.422  0.00  0.00    +0.000 A 
ATOM      7  C   UNL     1      48.740   8.738  15.918  0.00  0.00    +0.000 A 
ATOM      8  C   UNL     1      48.418   8.967  14.572  0.00  0.00    +0.000 A 
BRANCH   6   9
ATOM      9  C   UNL     1      49.227   7.224  17.882  0.00  0.00    +0.000 C 
BRANCH   9  10
ATOM     10  N   UNL     1      49.603   5.858  18.187  0.00  0.00    +0.000 N 
ATOM     11  C   UNL     1      50.923   5.443  18.232  0.00  0.00    +0.000 C 
ATOM     12  O   UNL     1      51.885   6.198  18.082  0.00  0.00    +0.000 OA
ATOM     13  H   UNL     1      48.952   5.124  17.933  0.00  0.00    +0.000 HD
BRANCH  11  14
ATOM     14  C   UNL     1      51.065   3.929  18.532  0.00  0.00    +0.000 C 
ATOM     15  C   UNL     1      52.290   3.284  17.894  0.00  0.00    +0.000 C 
ATOM     16  C   UNL     1      51.797   1.890  17.592  0.00  0.00    +0.000 C 
ATOM     17  C   UNL     1      50.360   2.147  17.208  0.00  0.00    +0.000 C 
ATOM     18  O   UNL     1      49.908   3.212  18.050  0.00  0.00    +0.000 OA
ENDBRANCH  11  14
ENDBRANCH   9  10
ENDBRANCH   6   9
ENDBRANCH   2   3
BRANCH   2  19
ATOM     19  N   UNL     1      47.320   6.984  11.621  0.00  0.00    +0.000 N 
ATOM     20  C   UNL     1      45.973   6.940  11.399  0.00  0.00    +0.000 C 
ATOM     21  O   UNL     1      45.208   7.875  11.654  0.00  0.00    +0.000 OA
ATOM     22  H   UNL     1      47.790   6.090  11.735  0.00  0.00    +0.000 HD
BRANCH  20  23
ATOM     23  C   UNL     1      45.481   5.725  10.749  0.00  0.00    +0.000 A 
ATOM     24  C   UNL     1      45.696   5.493   9.399  0.00  0.00    +0.000 A 
ATOM     25  S   UNL     1      45.070   3.997   8.865  0.00  0.00    +0.000 S 
ATOM     26  C   UNL     1      44.454   3.638  10.412  0.00  0.00    +0.000 A 
ATOM     27  N   UNL     1      43.760   2.493  10.656  0.00  0.00    +0.000 NA
ATOM     28  C   UNL     1      43.319   2.387  11.866  0.00  0.00    +0.000 A 
ATOM     29  N   UNL     1      43.513   3.310  12.857  0.00  0.00    +0.000 N 
ATOM     30  C   UNL     1      44.247   4.455  12.672  0.00  0.00    +0.000 A 
ATOM     31  O   UNL     1      44.468   5.224  13.596  0.00  0.00    +0.000 OA
ATOM     32  C   UNL     1      44.742   4.634  11.323  0.00  0.00    +0.000 A 
ATOM     33  H   UNL     1      43.155   3.163  13.789  0.00  0.00    +0.000 HD
ENDBRANCH  20  23
ENDBRANCH   2  19
TORSDOF 6
ENDMDL
MODEL 8
REMARK VINA RESULT:    -6.516      2.940      9.171
REMARK INTER + INTRA:         -10.027
REMARK INTER:                  -9.035
REMARK INTRA:                  -0.991
REMARK UNBOUND:                -1.225
REMARK  Name = 
REMARK  7 active torsions:
REMARK  status: ('A' for Active; 'I' for Inactive)
REMARK    1  A    between atoms: C_1  and  C_2
REMARK    2  A    between atoms: C_2  and  N_3
REMARK    3  A    between atoms: C_2  and  C_16
REMARK    4  A    between atoms: C_4  and  C_6
REMARK    5  A    between atoms: C_19  and  C_20
REMARK    6  A    between atoms: C_20  and  N_21
REMARK    7  A    between atoms: C_22  and  C_24
REMARK                            x       y       z     vdW  Elec       q    Type
REMARK                         _______ _______ _______ _____ _____    ______ ____
ROOT
ATOM      1  C   UNL     1      48.354   8.009  11.559  0.00  0.00    +0.000 C 
ATOM      2  C   UNL     1      47.275   7.757  12.613  0.00  0.00    +0.000 C 
ENDROOT
BRANCH   2   3
ATOM      3  C   UNL     1      47.945   7.652  13.978  0.00  0.00    +0.000 A 
ATOM      4  C   UNL     1      48.208   8.805  14.724  0.00  0.00    +0.000 A 
ATOM      5  C   UNL     1      48.739   8.722  16.019  0.00  0.00    +0.000 A 
ATOM      6  C   UNL     1      49.033   7.481  16.607  0.00  0.00    +0.000 A 
ATOM      7  C   UNL     1      48.786   6.327  15.847  0.00  0.00    +0.000 A 
ATOM      8  C   UNL     1      48.267   6.410  14.547  0.00  0.00    +0.000 A 
BRANCH   6   9
ATOM      9  C   UNL     1      49.588   7.354  18.012  0.00  0.00    +0.000 C 
BRANCH   9  10
ATOM     10  N   UNL     1      49.997   6.004  18.347  0.00  0.00    +0.000 N 
ATOM     11  C   UNL     1      51.308   5.576  18.237  0.00  0.00    +0.000 C 
ATOM     12  O   UNL     1      52.244   6.309  17.911  0.00  0.00    +0.000 OA
ATOM     13  H   UNL     1      49.314   5.264  18.228  0.00  0.00    +0.000 HD
BRANCH  11  14
ATOM     14  C   UNL     1      51.484   4.081  18.606  0.00  0.00    +0.000 C 
ATOM     15  C   UNL     1      52.760   3.454  18.059  0.00  0.00    +0.000 C 
ATOM     16  C   UNL     1      52.329   2.033  17.789  0.00  0.00    +0.000 C 
ATOM     17  C   UNL     1      50.907   2.224  17.321  0.00  0.00    +0.000 C 
ATOM     18  O   UNL     1      50.377   3.306  18.095  0.00  0.00    +0.000 OA
ENDBRANCH  11  14
ENDBRANCH   9  10
ENDBRANCH   6   9
ENDBRANCH   2   3
BRANCH   2  19
ATOM     19  N   UNL     1      46.517   6.545  12.343  0.00  0.00    +0.000 N 
ATOM     20  C   UNL     1      45.324   6.518  11.676  0.00  0.00    +0.000 C 
ATOM     21  O   UNL     1      44.770   7.526  11.227  0.00  0.00    +0.000 OA
ATOM     22  H   UNL     1      46.699   5.771  12.975  0.00  0.00    +0.000 HD
BRANCH  20  23
ATOM     23  C   UNL     1      44.762   5.188  11.445  0.00  0.00    +0.000 A 
ATOM     24  C   UNL     1      44.008   4.546  12.417  0.00  0.00    +0.000 A 
ATOM     25  S   UNL     1      43.421   3.023  11.915  0.00  0.00    +0.000 S 
ATOM     26  C   UNL     1      44.194   3.158  10.405  0.00  0.00    +0.000 A 
ATOM     27  N   UNL     1      44.126   2.165   9.476  0.00  0.00    +0.000 NA
ATOM     28  C   UNL     1      44.802   2.396   8.400  0.00  0.00    +0.000 A 
ATOM     29  N   UNL     1      45.533   3.528   8.159  0.00  0.00    +0.000 N 
ATOM     30  C   UNL     1      45.592   4.577   9.043  0.00  0.00    +0.000 A 
ATOM     31  O   UNL     1      46.190   5.606   8.768  0.00  0.00    +0.000 OA
ATOM     32  C   UNL     1      44.870   4.355  10.279  0.00  0.00    +0.000 A 
ATOM     33  H   UNL     1      46.030   3.658   7.290  0.00  0.00    +0.000 HD
ENDBRANCH  20  23
ENDBRANCH   2  19
TORSDOF 6
ENDMDL
MODEL 9
REMARK VINA RESULT:    -6.384      3.310      4.535
REMARK INTER + INTRA:          -9.849
REMARK INTER:                  -8.633
REMARK INTRA:                  -1.216
REMARK UNBOUND:                -1.225
REMARK  Name = 
REMARK  7 active torsions:
REMARK  status: ('A' for Active; 'I' for Inactive)
REMARK    1  A    between atoms: C_1  and  C_2
REMARK    2  A    between atoms: C_2  and  N_3
REMARK    3  A    between atoms: C_2  and  C_16
REMARK    4  A    between atoms: C_4  and  C_6
REMARK    5  A    between atoms: C_19  and  C_20
REMARK    6  A    between atoms: C_20  and  N_21
REMARK    7  A    between atoms: C_22  and  C_24
REMARK                            x       y       z     vdW  Elec       q    Type
REMARK                         _______ _______ _______ _____ _____    ______ ____
ROOT
ATOM      1  C   UNL     1      47.927   2.743  16.890  0.00  0.00    +0.000 C 
ATOM      2  C   UNL     1      48.019   4.268  16.941  0.00  0.00    +0.000 C 
ENDROOT
BRANCH   2   3
ATOM      3  C   UNL     1      47.676   4.821  15.563  0.00  0.00    +0.000 A 
ATOM      4  C   UNL     1      46.788   4.135  14.730  0.00  0.00    +0.000 A 
ATOM      5  C   UNL     1      46.390   4.673  13.498  0.00  0.00    +0.000 A 
ATOM      6  C   UNL     1      46.875   5.915  13.056  0.00  0.00    +0.000 A 
ATOM      7  C   UNL     1      47.781   6.592  13.887  0.00  0.00    +0.000 A 
ATOM      8  C   UNL     1      48.190   6.047  15.113  0.00  0.00    +0.000 A 
BRANCH   6   9
ATOM      9  C   UNL     1      46.450   6.537  11.740  0.00  0.00    +0.000 C 
BRANCH   9  10
ATOM     10  N   UNL     1      45.951   5.569  10.784  0.00  0.00    +0.000 N 
ATOM     11  C   UNL     1      44.601   5.305  10.628  0.00  0.00    +0.000 C 
ATOM     12  O   UNL     1      43.711   5.907  11.233  0.00  0.00    +0.000 OA
ATOM     13  H   UNL     1      46.549   4.782  10.556  0.00  0.00    +0.000 HD
BRANCH  11  14
ATOM     14  C   UNL     1      44.323   4.197   9.581  0.00  0.00    +0.000 C 
ATOM     15  C   UNL     1      44.741   2.802  10.028  0.00  0.00    +0.000 C 
ATOM     16  C   UNL     1      45.168   2.163   8.729  0.00  0.00    +0.000 C 
ATOM     17  C   UNL     1      45.803   3.327   8.007  0.00  0.00    +0.000 C 
ATOM     18  O   UNL     1      45.029   4.480   8.354  0.00  0.00    +0.000 OA
ENDBRANCH  11  14
ENDBRANCH   9  10
ENDBRANCH   6   9
ENDBRANCH   2   3
BRANCH   2  19
ATOM     19  N   UNL     1      49.342   4.726  17.339  0.00  0.00    +0.000 N 
ATOM     20  C   UNL     1      49.730   4.918  18.636  0.00  0.00    +0.000 C 
ATOM     21  O   UNL     1      48.994   4.715  19.606  0.00  0.00    +0.000 OA
ATOM     22  H   UNL     1      49.849   5.250  16.633  0.00  0.00    +0.000 HD
BRANCH  20  23
ATOM     23  C   UNL     1      51.126   5.309  18.823  0.00  0.00    +0.000 A 
ATOM     24  C   UNL     1      51.462   6.560  19.321  0.00  0.00    +0.000 A 
ATOM     25  S   UNL     1      53.147   6.784  19.494  0.00  0.00    +0.000 S 
ATOM     26  C   UNL     1      53.475   5.236  18.866  0.00  0.00    +0.000 A 
ATOM     27  N   UNL     1      54.750   4.785  18.708  0.00  0.00    +0.000 NA
ATOM     28  C   UNL     1      54.836   3.611  18.177  0.00  0.00    +0.000 A 
ATOM     29  N   UNL     1      53.771   2.839  17.798  0.00  0.00    +0.000 N 
ATOM     30  C   UNL     1      52.469   3.230  17.983  0.00  0.00    +0.000 A 
ATOM     31  O   UNL     1      51.538   2.488  17.705  0.00  0.00    +0.000 OA
ATOM     32  C   UNL     1      52.318   4.553  18.552  0.00  0.00    +0.000 A 
ATOM     33  H   UNL     1      53.903   1.921  17.401  0.00  0.00    +0.000 HD
ENDBRANCH  20  23
ENDBRANCH   2  19
TORSDOF 6
ENDMDL
