MODEL 1
REMARK VINA RESULT:    -6.702      0.000      0.000
REMARK INTER + INTRA:          -9.608
REMARK INTER:                  -8.662
REMARK INTRA:                  -0.946
REMARK UNBOUND:                -0.946
REMARK  Name = 
REMARK  6 active torsions:
REMARK  status: ('A' for Active; 'I' for Inactive)
REMARK    1  A    between atoms: C_1  and  C_2
REMARK    2  A    between atoms: N_4  and  C_5
REMARK    3  A    between atoms: C_5  and  C_6
REMARK    4  A    between atoms: C_9  and  C_10
REMARK    5  A    between atoms: C_10  and  N_11
REMARK    6  A    between atoms: C_12  and  C_14
REMARK                            x       y       z     vdW  Elec       q    Type
REMARK                         _______ _______ _______ _____ _____    ______ ____
ROOT
ATOM      1  C   UNL     1      47.298   7.882  11.994  0.00  0.00    +0.000 C 
ENDROOT
BRANCH   1   5
ATOM      2  C   UNL     1      49.302   7.725  15.760  0.00  0.00    +0.000 A 
ATOM      3  C   UNL     1      48.381   8.745  15.538  0.00  0.00    +0.000 A 
ATOM      4  C   UNL     1      47.715   8.803  14.313  0.00  0.00    +0.000 A 
ATOM      5  C   UNL     1      48.003   7.867  13.319  0.00  0.00    +0.000 A 
ATOM      6  C   UNL     1      48.952   6.897  13.620  0.00  0.00    +0.000 A 
ATOM      7  N   UNL     1      49.599   6.802  14.807  0.00  0.00    +0.000 NA
BRANCH   2   8
ATOM      8  C   UNL     1      49.977   7.574  17.116  0.00  0.00    +0.000 C 
BRANCH   8  12
ATOM      9  C   UNL     1      48.661   3.356  17.926  0.00  0.00    +0.000 C 
ATOM     10  C   UNL     1      48.313   4.564  18.795  0.00  0.00    +0.000 C 
ATOM     11  C   UNL     1      48.452   5.906  18.040  0.00  0.00    +0.000 C 
ATOM     12  N   UNL     1      49.866   6.238  17.744  0.00  0.00    +0.000 NA
ATOM     13  C   UNL     1      50.602   6.238  19.030  0.00  0.00    +0.000 C 
ATOM     14  C   UNL     1      50.455   4.908  19.785  0.00  0.00    +0.000 C 
ATOM     15  O   UNL     1      49.083   4.569  20.011  0.00  0.00    +0.000 OA
ENDBRANCH   8  12
ENDBRANCH   2   8
ENDBRANCH   1   5
BRANCH   1  16
ATOM     16  N   UNL     1      46.681   6.612  11.695  0.00  0.00    +0.000 N 
ATOM     17  C   UNL     1      45.317   6.469  11.724  0.00  0.00    +0.000 C 
ATOM     18  O   UNL     1      44.575   7.423  11.948  0.00  0.00    +0.000 OA
ATOM     19  H   UNL     1      47.269   5.782  11.739  0.00  0.00    +0.000 HD
BRANCH  17  20
ATOM     20  C   UNL     1      44.776   5.138  11.421  0.00  0.00    +0.000 A 
ATOM     21  C   UNL     1      44.029   4.469  12.381  0.00  0.00    +0.000 A 
ATOM     22  S   UNL     1      43.441   2.955  11.862  0.00  0.00    +0.000 S 
ATOM     23  C   UNL     1      44.204   3.116  10.351  0.00  0.00    +0.000 A 
ATOM     24  N   UNL     1      44.121   2.130   9.419  0.00  0.00    +0.000 NA
ATOM     25  C   UNL     1      44.775   2.370   8.330  0.00  0.00    +0.000 A 
ATOM     26  N   UNL     1      45.499   3.509   8.090  0.00  0.00    +0.000 N 
ATOM     27  C   UNL     1      45.584   4.546   8.989  0.00  0.00    +0.000 A 
ATOM     28  O   UNL     1      46.201   5.571   8.724  0.00  0.00    +0.000 OA
ATOM     29  C   UNL     1      44.882   4.319  10.235  0.00  0.00    +0.000 A 
ATOM     30  H   UNL     1      45.979   3.637   7.212  0.00  0.00    +0.000 HD
ENDBRANCH  17  20
ENDBRANCH   1  16
TORSDOF 5
ENDMDL
MODEL 2
REMARK VINA RESULT:    -6.575      3.328      8.497
REMARK INTER + INTRA:          -9.443
REMARK INTER:                  -8.684
REMARK INTRA:                  -0.759
REMARK UNBOUND:                -0.946
REMARK  Name = 
REMARK  6 active torsions:
REMARK  status: ('A' for Active; 'I' for Inactive)
REMARK    1  A    between atoms: C_1  and  C_2
REMARK    2  A    between atoms: N_4  and  C_5
REMARK    3  A    between atoms: C_5  and  C_6
REMARK    4  A    between atoms: C_9  and  C_10
REMARK    5  A    between atoms: C_10  and  N_11
REMARK    6  A    between atoms: C_12  and  C_14
REMARK                            x       y       z     vdW  Elec       q    Type
REMARK                         _______ _______ _______ _____ _____    ______ ____
ROOT
ATOM      1  C   UNL     1      49.410   7.787  16.652  0.00  0.00    +0.000 C 
ENDROOT
BRANCH   1   5
ATOM      2  C   UNL     1      47.282   6.717  13.110  0.00  0.00    +0.000 A 
ATOM      3  C   UNL     1      47.425   8.067  13.418  0.00  0.00    +0.000 A 
ATOM      4  C   UNL     1      48.124   8.430  14.571  0.00  0.00    +0.000 A 
ATOM      5  C   UNL     1      48.637   7.442  15.413  0.00  0.00    +0.000 A 
ATOM      6  C   UNL     1      48.428   6.120  15.037  0.00  0.00    +0.000 A 
ATOM      7  N   UNL     1      47.773   5.738  13.915  0.00  0.00    +0.000 NA
BRANCH   2   8
ATOM      8  C   UNL     1      46.608   6.288  11.814  0.00  0.00    +0.000 C 
BRANCH   8  12
ATOM      9  C   UNL     1      43.786   2.843  11.227  0.00  0.00    +0.000 C 
ATOM     10  C   UNL     1      43.514   4.281  10.789  0.00  0.00    +0.000 C 
ATOM     11  C   UNL     1      44.805   5.120  10.651  0.00  0.00    +0.000 C 
ATOM     12  N   UNL     1      45.435   5.397  11.964  0.00  0.00    +0.000 NA
ATOM     13  C   UNL     1      44.420   6.063  12.814  0.00  0.00    +0.000 C 
ATOM     14  C   UNL     1      43.132   5.234  12.941  0.00  0.00    +0.000 C 
ATOM     15  O   UNL     1      42.568   4.922  11.663  0.00  0.00    +0.000 OA
ENDBRANCH   8  12
ENDBRANCH   2   8
ENDBRANCH   1   5
BRANCH   1  16
ATOM     16  N   UNL     1      50.386   6.776  16.979  0.00  0.00    +0.000 N 
ATOM     17  C   UNL     1      50.182   5.915  18.028  0.00  0.00    +0.000 C 
ATOM     18  O   UNL     1      49.144   5.937  18.685  0.00  0.00    +0.000 OA
ATOM     19  H   UNL     1      51.327   6.893  16.608  0.00  0.00    +0.000 HD
BRANCH  17  20
ATOM     20  C   UNL     1      51.234   4.927  18.298  0.00  0.00    +0.000 A 
ATOM     21  C   UNL     1      52.378   5.316  18.983  0.00  0.00    +0.000 A 
ATOM     22  S   UNL     1      53.484   4.046  19.251  0.00  0.00    +0.000 S 
ATOM     23  C   UNL     1      52.497   2.939  18.419  0.00  0.00    +0.000 A 
ATOM     24  N   UNL     1      52.884   1.646  18.256  0.00  0.00    +0.000 NA
ATOM     25  C   UNL     1      52.054   0.924  17.577  0.00  0.00    +0.000 A 
ATOM     26  N   UNL     1      50.872   1.379  17.053  0.00  0.00    +0.000 N 
ATOM     27  C   UNL     1      50.425   2.669  17.221  0.00  0.00    +0.000 A 
ATOM     28  O   UNL     1      49.340   3.031  16.779  0.00  0.00    +0.000 OA
ATOM     29  C   UNL     1      51.328   3.525  17.961  0.00  0.00    +0.000 A 
ATOM     30  H   UNL     1      50.264   0.758  16.540  0.00  0.00    +0.000 HD
ENDBRANCH  17  20
ENDBRANCH   1  16
TORSDOF 5
ENDMDL
MODEL 3
REMARK VINA RESULT:    -6.483      3.529      5.242
REMARK INTER + INTRA:          -9.325
REMARK INTER:                  -8.595
REMARK INTRA:                  -0.730
REMARK UNBOUND:                -0.946
REMARK  Name = 
REMARK  6 active torsions:
REMARK  status: ('A' for Active; 'I' for Inactive)
REMARK    1  A    between atoms: C_1  and  C_2
REMARK    2  A    between atoms: N_4  and  C_5
REMARK    3  A    between atoms: C_5  and  C_6
REMARK    4  A    between atoms: C_9  and  C_10
REMARK    5  A    between atoms: C_10  and  N_11
REMARK    6  A    between atoms: C_12  and  C_14
REMARK                            x       y       z     vdW  Elec       q    Type
REMARK                         _______ _______ _______ _____ _____    ______ ____
ROOT
ATOM      1  C   UNL     1      47.146   3.299  16.878  0.00  0.00    +0.000 C 
ENDROOT
BRANCH   1   5
ATOM      2  C   UNL     1      51.316   3.418  17.780  0.00  0.00    +0.000 A 
ATOM      3  C   UNL     1      50.518   4.487  18.179  0.00  0.00    +0.000 A 
ATOM      4  C   UNL     1      49.152   4.457  17.894  0.00  0.00    +0.000 A 
ATOM      5  C   UNL     1      48.612   3.380  17.189  0.00  0.00    +0.000 A 
ATOM      6  C   UNL     1      49.487   2.368  16.812  0.00  0.00    +0.000 A 
ATOM      7  N   UNL     1      50.812   2.360  17.093  0.00  0.00    +0.000 NA
BRANCH   2   8
ATOM      8  C   UNL     1      52.791   3.374  18.156  0.00  0.00    +0.000 C 
BRANCH   8  12
ATOM      9  C   UNL     1      53.753   7.754  17.892  0.00  0.00    +0.000 C 
ATOM     10  C   UNL     1      54.657   6.627  17.391  0.00  0.00    +0.000 C 
ATOM     11  C   UNL     1      53.890   5.308  17.146  0.00  0.00    +0.000 C 
ATOM     12  N   UNL     1      53.428   4.685  18.411  0.00  0.00    +0.000 NA
ATOM     13  C   UNL     1      54.619   4.493  19.273  0.00  0.00    +0.000 C 
ATOM     14  C   UNL     1      55.387   5.803  19.506  0.00  0.00    +0.000 C 
ATOM     15  O   UNL     1      55.773   6.424  18.276  0.00  0.00    +0.000 OA
ENDBRANCH   8  12
ENDBRANCH   2   8
ENDBRANCH   1   5
BRANCH   1  16
ATOM     16  N   UNL     1      46.737   4.311  15.933  0.00  0.00    +0.000 N 
ATOM     17  C   UNL     1      46.880   4.112  14.584  0.00  0.00    +0.000 C 
ATOM     18  O   UNL     1      47.303   3.050  14.132  0.00  0.00    +0.000 OA
ATOM     19  H   UNL     1      46.608   5.258  16.285  0.00  0.00    +0.000 HD
BRANCH  17  20
ATOM     20  C   UNL     1      46.450   5.200  13.696  0.00  0.00    +0.000 A 
ATOM     21  C   UNL     1      47.304   6.270  13.464  0.00  0.00    +0.000 A 
ATOM     22  S   UNL     1      46.676   7.429  12.383  0.00  0.00    +0.000 S 
ATOM     23  C   UNL     1      45.219   6.568  12.222  0.00  0.00    +0.000 A 
ATOM     24  N   UNL     1      44.212   7.042  11.441  0.00  0.00    +0.000 NA
ATOM     25  C   UNL     1      43.150   6.304  11.435  0.00  0.00    +0.000 A 
ATOM     26  N   UNL     1      43.010   5.134  12.137  0.00  0.00    +0.000 N 
ATOM     27  C   UNL     1      44.012   4.601  12.914  0.00  0.00    +0.000 A 
ATOM     28  O   UNL     1      43.870   3.529  13.490  0.00  0.00    +0.000 OA
ATOM     29  C   UNL     1      45.219   5.400  12.967  0.00  0.00    +0.000 A 
ATOM     30  H   UNL     1      42.155   4.601  12.081  0.00  0.00    +0.000 HD
ENDBRANCH  17  20
ENDBRANCH   1  16
TORSDOF 5
ENDMDL
MODEL 4
REMARK VINA RESULT:    -6.396      3.448      4.503
REMARK INTER + INTRA:          -9.212
REMARK INTER:                  -8.446
REMARK INTRA:                  -0.766
REMARK UNBOUND:                -0.946
REMARK  Name = 
REMARK  6 active torsions:
REMARK  status: ('A' for Active; 'I' for Inactive)
REMARK    1  A    between atoms: C_1  and  C_2
REMARK    2  A    between atoms: N_4  and  C_5
REMARK    3  A    between atoms: C_5  and  C_6
REMARK    4  A    between atoms: C_9  and  C_10
REMARK    5  A    between atoms: C_10  and  N_11
REMARK    6  A    between atoms: C_12  and  C_14
REMARK                            x       y       z     vdW  Elec       q    Type
REMARK                         _______ _______ _______ _____ _____    ______ ____
ROOT
ATOM      1  C   UNL     1      49.090   7.661  15.377  0.00  0.00    +0.000 C 
ENDROOT
BRANCH   1   5
ATOM      2  C   UNL     1      50.769   4.380  17.531  0.00  0.00    +0.000 A 
ATOM      3  C   UNL     1      49.383   4.468  17.424  0.00  0.00    +0.000 A 
ATOM      4  C   UNL     1      48.823   5.532  16.717  0.00  0.00    +0.000 A 
ATOM      5  C   UNL     1      49.650   6.509  16.160  0.00  0.00    +0.000 A 
ATOM      6  C   UNL     1      51.020   6.353  16.334  0.00  0.00    +0.000 A 
ATOM      7  N   UNL     1      51.593   5.319  16.996  0.00  0.00    +0.000 NA
BRANCH   2   8
ATOM      8  C   UNL     1      51.417   3.183  18.213  0.00  0.00    +0.000 C 
BRANCH   8  12
ATOM      9  C   UNL     1      55.565   2.461  16.648  0.00  0.00    +0.000 C 
ATOM     10  C   UNL     1      54.893   1.648  17.753  0.00  0.00    +0.000 C 
ATOM     11  C   UNL     1      53.352   1.771  17.736  0.00  0.00    +0.000 C 
ATOM     12  N   UNL     1      52.894   3.124  18.136  0.00  0.00    +0.000 NA
ATOM     13  C   UNL     1      53.467   3.409  19.474  0.00  0.00    +0.000 C 
ATOM     14  C   UNL     1      54.997   3.275  19.493  0.00  0.00    +0.000 C 
ATOM     15  O   UNL     1      55.427   1.985  19.046  0.00  0.00    +0.000 OA
ENDBRANCH   8  12
ENDBRANCH   2   8
ENDBRANCH   1   5
BRANCH   1  16
ATOM     16  N   UNL     1      47.879   7.302  14.679  0.00  0.00    +0.000 N 
ATOM     17  C   UNL     1      47.929   6.677  13.459  0.00  0.00    +0.000 C 
ATOM     18  O   UNL     1      48.997   6.352  12.947  0.00  0.00    +0.000 OA
ATOM     19  H   UNL     1      47.017   7.761  14.968  0.00  0.00    +0.000 HD
BRANCH  17  20
ATOM     20  C   UNL     1      46.647   6.361  12.815  0.00  0.00    +0.000 A 
ATOM     21  C   UNL     1      45.893   7.385  12.256  0.00  0.00    +0.000 A 
ATOM     22  S   UNL     1      44.454   6.851  11.514  0.00  0.00    +0.000 S 
ATOM     23  C   UNL     1      44.762   5.237  11.955  0.00  0.00    +0.000 A 
ATOM     24  N   UNL     1      43.882   4.249  11.641  0.00  0.00    +0.000 NA
ATOM     25  C   UNL     1      44.225   3.077  12.065  0.00  0.00    +0.000 A 
ATOM     26  N   UNL     1      45.370   2.807  12.768  0.00  0.00    +0.000 N 
ATOM     27  C   UNL     1      46.304   3.768  13.079  0.00  0.00    +0.000 A 
ATOM     28  O   UNL     1      47.340   3.483  13.668  0.00  0.00    +0.000 OA
ATOM     29  C   UNL     1      45.958   5.104  12.641  0.00  0.00    +0.000 A 
ATOM     30  H   UNL     1      45.582   1.865  13.062  0.00  0.00    +0.000 HD
ENDBRANCH  17  20
ENDBRANCH   1  16
TORSDOF 5
ENDMDL
MODEL 5
REMARK VINA RESULT:    -6.004      2.201      3.133
REMARK INTER + INTRA:          -8.706
REMARK INTER:                  -7.882
REMARK INTRA:                  -0.824
REMARK UNBOUND:                -0.946
REMARK  Name = 
REMARK  6 active torsions:
REMARK  status: ('A' for Active; 'I' for Inactive)
REMARK    1  A    between atoms: C_1  and  C_2
REMARK    2  A    between atoms: N_4  and  C_5
REMARK    3  A    between atoms: C_5  and  C_6
REMARK    4  A    between atoms: C_9  and  C_10
REMARK    5  A    between atoms: C_10  and  N_11
REMARK    6  A    between atoms: C_12  and  C_14
REMARK                            x       y       z     vdW  Elec       q    Type
REMARK                         _______ _______ _______ _____ _____    ______ ____
ROOT
ATOM      1  C   UNL     1      48.692   7.440  13.196  0.00  0.00    +0.000 C 
ENDROOT
BRANCH   1   5
ATOM      2  C   UNL     1      49.432   5.931  17.120  0.00  0.00    +0.000 A 
ATOM      3  C   UNL     1      48.365   5.407  16.395  0.00  0.00    +0.000 A 
ATOM      4  C   UNL     1      48.117   5.888  15.109  0.00  0.00    +0.000 A 
ATOM      5  C   UNL     1      48.913   6.906  14.581  0.00  0.00    +0.000 A 
ATOM      6  C   UNL     1      49.942   7.384  15.383  0.00  0.00    +0.000 A 
ATOM      7  N   UNL     1      50.220   6.922  16.626  0.00  0.00    +0.000 NA
BRANCH   2   8
ATOM      8  C   UNL     1      49.789   5.365  18.487  0.00  0.00    +0.000 C 
BRANCH   8  12
ATOM      9  C   UNL     1      53.978   4.033  17.558  0.00  0.00    +0.000 C 
ATOM     10  C   UNL     1      52.918   3.173  18.246  0.00  0.00    +0.000 C 
ATOM     11  C   UNL     1      51.478   3.674  17.986  0.00  0.00    +0.000 C 
ATOM     12  N   UNL     1      51.203   4.963  18.665  0.00  0.00    +0.000 NA
ATOM     13  C   UNL     1      51.480   4.773  20.109  0.00  0.00    +0.000 C 
ATOM     14  C   UNL     1      52.907   4.265  20.366  0.00  0.00    +0.000 C 
ATOM     15  O   UNL     1      53.180   3.052  19.655  0.00  0.00    +0.000 OA
ENDBRANCH   8  12
ENDBRANCH   2   8
ENDBRANCH   1   5
BRANCH   1  16
ATOM     16  N   UNL     1      47.924   6.528  12.381  0.00  0.00    +0.000 N 
ATOM     17  C   UNL     1      46.609   6.784  12.090  0.00  0.00    +0.000 C 
ATOM     18  O   UNL     1      46.057   7.817  12.460  0.00  0.00    +0.000 OA
ATOM     19  H   UNL     1      48.284   5.583  12.267  0.00  0.00    +0.000 HD
BRANCH  17  20
ATOM     20  C   UNL     1      45.901   5.795  11.266  0.00  0.00    +0.000 A 
ATOM     21  C   UNL     1      46.029   5.840   9.884  0.00  0.00    +0.000 A 
ATOM     22  S   UNL     1      45.178   4.603   9.075  0.00  0.00    +0.000 S 
ATOM     23  C   UNL     1      44.567   3.992  10.539  0.00  0.00    +0.000 A 
ATOM     24  N   UNL     1      43.725   2.924  10.551  0.00  0.00    +0.000 NA
ATOM     25  C   UNL     1      43.312   2.586  11.728  0.00  0.00    +0.000 A 
ATOM     26  N   UNL     1      43.670   3.217  12.892  0.00  0.00    +0.000 N 
ATOM     27  C   UNL     1      44.543   4.278  12.931  0.00  0.00    +0.000 A 
ATOM     28  O   UNL     1      44.880   4.789  13.993  0.00  0.00    +0.000 OA
ATOM     29  C   UNL     1      45.023   4.709  11.633  0.00  0.00    +0.000 A 
ATOM     30  H   UNL     1      43.317   2.894  13.780  0.00  0.00    +0.000 HD
ENDBRANCH  17  20
ENDBRANCH   1  16
TORSDOF 5
ENDMDL
MODEL 6
REMARK VINA RESULT:    -5.919      3.190      4.789
REMARK INTER + INTRA:          -8.596
REMARK INTER:                  -8.312
REMARK INTRA:                  -0.284
REMARK UNBOUND:                -0.946
REMARK  Name = 
REMARK  6 active torsions:
REMARK  status: ('A' for Active; 'I' for Inactive)
REMARK    1  A    between atoms: C_1  and  C_2
REMARK    2  A    between atoms: N_4  and  C_5
REMARK    3  A    between atoms: C_5  and  C_6
REMARK    4  A    between atoms: C_9  and  C_10
REMARK    5  A    between atoms: C_10  and  N_11
REMARK    6  A    between atoms: C_12  and  C_14
REMARK                            x       y       z     vdW  Elec       q    Type
REMARK                         _______ _______ _______ _____ _____    ______ ____
ROOT
ATOM      1  C   UNL     1      47.424   3.618  16.617  0.00  0.00    +0.000 C 
ENDROOT
BRANCH   1   5
ATOM      2  C   UNL     1      50.297   5.557  19.108  0.00  0.00    +0.000 A 
ATOM      3  C   UNL     1      50.161   5.986  17.790  0.00  0.00    +0.000 A 
ATOM      4  C   UNL     1      49.221   5.363  16.968  0.00  0.00    +0.000 A 
ATOM      5  C   UNL     1      48.458   4.303  17.461  0.00  0.00    +0.000 A 
ATOM      6  C   UNL     1      48.676   3.929  18.782  0.00  0.00    +0.000 A 
ATOM      7  N   UNL     1      49.565   4.528  19.610  0.00  0.00    +0.000 NA
BRANCH   2   8
ATOM      8  C   UNL     1      51.245   6.275  20.059  0.00  0.00    +0.000 C 
BRANCH   8  12
ATOM      9  C   UNL     1      55.667   5.637  19.591  0.00  0.00    +0.000 C 
ATOM     10  C   UNL     1      54.584   4.769  18.951  0.00  0.00    +0.000 C 
ATOM     11  C   UNL     1      53.218   5.486  18.856  0.00  0.00    +0.000 C 
ATOM     12  N   UNL     1      52.596   5.683  20.187  0.00  0.00    +0.000 NA
ATOM     13  C   UNL     1      52.488   4.351  20.829  0.00  0.00    +0.000 C 
ATOM     14  C   UNL     1      53.844   3.634  20.913  0.00  0.00    +0.000 C 
ATOM     15  O   UNL     1      54.462   3.505  19.628  0.00  0.00    +0.000 OA
ENDBRANCH   8  12
ENDBRANCH   2   8
ENDBRANCH   1   5
BRANCH   1  16
ATOM     16  N   UNL     1      46.792   4.528  15.691  0.00  0.00    +0.000 N 
ATOM     17  C   UNL     1      46.781   4.265  14.345  0.00  0.00    +0.000 C 
ATOM     18  O   UNL     1      47.254   3.227  13.888  0.00  0.00    +0.000 OA
ATOM     19  H   UNL     1      46.610   5.476  16.014  0.00  0.00    +0.000 HD
BRANCH  17  20
ATOM     20  C   UNL     1      46.129   5.252  13.475  0.00  0.00    +0.000 A 
ATOM     21  C   UNL     1      46.772   6.452  13.200  0.00  0.00    +0.000 A 
ATOM     22  S   UNL     1      45.903   7.472  12.146  0.00  0.00    +0.000 S 
ATOM     23  C   UNL     1      44.612   6.368  12.056  0.00  0.00    +0.000 A 
ATOM     24  N   UNL     1      43.504   6.650  11.320  0.00  0.00    +0.000 NA
ATOM     25  C   UNL     1      42.588   5.739  11.367  0.00  0.00    +0.000 A 
ATOM     26  N   UNL     1      42.686   4.571  12.078  0.00  0.00    +0.000 N 
ATOM     27  C   UNL     1      43.800   4.229  12.809  0.00  0.00    +0.000 A 
ATOM     28  O   UNL     1      43.874   3.155  13.395  0.00  0.00    +0.000 OA
ATOM     29  C   UNL     1      44.850   5.226  12.803  0.00  0.00    +0.000 A 
ATOM     30  H   UNL     1      41.936   3.896  12.063  0.00  0.00    +0.000 HD
ENDBRANCH  17  20
ENDBRANCH   1  16
TORSDOF 5
ENDMDL
MODEL 7
REMARK VINA RESULT:    -5.423      3.128      8.266
REMARK INTER + INTRA:          -7.954
REMARK INTER:                  -7.010
REMARK INTRA:                  -0.944
REMARK UNBOUND:                -0.946
REMARK  Name = 
REMARK  6 active torsions:
REMARK  status: ('A' for Active; 'I' for Inactive)
REMARK    1  A    between atoms: C_1  and  C_2
REMARK    2  A    between atoms: N_4  and  C_5
REMARK    3  A    between atoms: C_5  and  C_6
REMARK    4  A    between atoms: C_9  and  C_10
REMARK    5  A    between atoms: C_10  and  N_11
REMARK    6  A    between atoms: C_12  and  C_14
REMARK                            x       y       z     vdW  Elec       q    Type
REMARK                         _______ _______ _______ _____ _____    ______ ____
ROOT
ATOM      1  C   UNL     1      50.156   8.617  14.448  0.00  0.00    +0.000 C 
ENDROOT
BRANCH   1   5
ATOM      2  C   UNL     1      46.669   7.827  12.116  0.00  0.00    +0.000 A 
ATOM      3  C   UNL     1      47.890   7.318  11.681  0.00  0.00    +0.000 A 
ATOM      4  C   UNL     1      49.036   7.565  12.439  0.00  0.00    +0.000 A 
ATOM      5  C   UNL     1      48.952   8.342  13.595  0.00  0.00    +0.000 A 
ATOM      6  C   UNL     1      47.696   8.827  13.942  0.00  0.00    +0.000 A 
ATOM      7  N   UNL     1      46.563   8.586  13.238  0.00  0.00    +0.000 NA
BRANCH   2   8
ATOM      8  C   UNL     1      45.385   7.499  11.367  0.00  0.00    +0.000 C 
BRANCH   8  12
ATOM      9  C   UNL     1      45.040   3.088  12.145  0.00  0.00    +0.000 C 
ATOM     10  C   UNL     1      44.592   3.789  10.863  0.00  0.00    +0.000 C 
ATOM     11  C   UNL     1      45.270   5.163  10.662  0.00  0.00    +0.000 C 
ATOM     12  N   UNL     1      44.801   6.168  11.646  0.00  0.00    +0.000 NA
ATOM     13  C   UNL     1      43.325   6.247  11.533  0.00  0.00    +0.000 C 
ATOM     14  C   UNL     1      42.653   4.878  11.722  0.00  0.00    +0.000 C 
ATOM     15  O   UNL     1      43.159   3.902  10.805  0.00  0.00    +0.000 OA
ENDBRANCH   8  12
ENDBRANCH   2   8
ENDBRANCH   1   5
BRANCH   1  16
ATOM     16  N   UNL     1      50.162   7.814  15.648  0.00  0.00    +0.000 N 
ATOM     17  C   UNL     1      49.809   8.356  16.858  0.00  0.00    +0.000 C 
ATOM     18  O   UNL     1      49.423   9.519  16.954  0.00  0.00    +0.000 OA
ATOM     19  H   UNL     1      50.689   6.943  15.628  0.00  0.00    +0.000 HD
BRANCH  17  20
ATOM     20  C   UNL     1      49.858   7.471  18.029  0.00  0.00    +0.000 A 
ATOM     21  C   UNL     1      50.508   7.895  19.180  0.00  0.00    +0.000 A 
ATOM     22  S   UNL     1      50.443   6.770  20.460  0.00  0.00    +0.000 S 
ATOM     23  C   UNL     1      49.584   5.654  19.507  0.00  0.00    +0.000 A 
ATOM     24  N   UNL     1      49.230   4.439  20.005  0.00  0.00    +0.000 NA
ATOM     25  C   UNL     1      48.611   3.679  19.162  0.00  0.00    +0.000 A 
ATOM     26  N   UNL     1      48.311   4.028  17.871  0.00  0.00    +0.000 N 
ATOM     27  C   UNL     1      48.621   5.256  17.335  0.00  0.00    +0.000 A 
ATOM     28  O   UNL     1      48.296   5.553  16.191  0.00  0.00    +0.000 OA
ATOM     29  C   UNL     1      49.332   6.141  18.234  0.00  0.00    +0.000 A 
ATOM     30  H   UNL     1      47.816   3.388  17.268  0.00  0.00    +0.000 HD
ENDBRANCH  17  20
ENDBRANCH   1  16
TORSDOF 5
ENDMDL
MODEL 8
REMARK VINA RESULT:    -5.123      2.094      2.618
REMARK INTER + INTRA:          -7.567
REMARK INTER:                  -6.836
REMARK INTRA:                  -0.730
REMARK UNBOUND:                -0.946
REMARK  Name = 
REMARK  6 active torsions:
REMARK  status: ('A' for Active; 'I' for Inactive)
REMARK    1  A    between atoms: C_1  and  C_2
REMARK    2  A    between atoms: N_4  and  C_5
REMARK    3  A    between atoms: C_5  and  C_6
REMARK    4  A    between atoms: C_9  and  C_10
REMARK    5  A    between atoms: C_10  and  N_11
REMARK    6  A    between atoms: C_12  and  C_14
REMARK                            x       y       z     vdW  Elec       q    Type
REMARK                         _______ _______ _______ _____ _____    ______ ____
ROOT
ATOM      1  C   UNL     1      48.515   7.281  13.149  0.00  0.00    +0.000 C 
ENDROOT
BRANCH   1   5
ATOM      2  C   UNL     1      50.054   6.677  17.084  0.00  0.00    +0.000 A 
ATOM      3  C   UNL     1      48.908   5.985  16.705  0.00  0.00    +0.000 A 
ATOM      4  C   UNL     1      48.398   6.170  15.418  0.00  0.00    +0.000 A 
ATOM      5  C   UNL     1      49.019   7.066  14.546  0.00  0.00    +0.000 A 
ATOM      6  C   UNL     1      50.146   7.729  15.017  0.00  0.00    +0.000 A 
ATOM      7  N   UNL     1      50.675   7.554  16.252  0.00  0.00    +0.000 NA
BRANCH   2   8
ATOM      8  C   UNL     1      50.691   6.430  18.445  0.00  0.00    +0.000 C 
BRANCH   8  12
ATOM      9  C   UNL     1      54.675   4.956  16.982  0.00  0.00    +0.000 C 
ATOM     10  C   UNL     1      53.768   4.206  17.956  0.00  0.00    +0.000 C 
ATOM     11  C   UNL     1      52.296   4.675  17.889  0.00  0.00    +0.000 C 
ATOM     12  N   UNL     1      52.121   6.047  18.424  0.00  0.00    +0.000 NA
ATOM     13  C   UNL     1      52.651   6.056  19.808  0.00  0.00    +0.000 C 
ATOM     14  C   UNL     1      54.110   5.579  19.876  0.00  0.00    +0.000 C 
ATOM     15  O   UNL     1      54.276   4.279  19.301  0.00  0.00    +0.000 OA
ENDBRANCH   8  12
ENDBRANCH   2   8
ENDBRANCH   1   5
BRANCH   1  16
ATOM     16  N   UNL     1      47.630   6.223  12.725  0.00  0.00    +0.000 N 
ATOM     17  C   UNL     1      46.285   6.449  12.575  0.00  0.00    +0.000 C 
ATOM     18  O   UNL     1      45.799   7.565  12.739  0.00  0.00    +0.000 OA
ATOM     19  H   UNL     1      47.967   5.266  12.810  0.00  0.00    +0.000 HD
BRANCH  17  20
ATOM     20  C   UNL     1      45.458   5.311  12.153  0.00  0.00    +0.000 A 
ATOM     21  C   UNL     1      44.788   4.561  13.110  0.00  0.00    +0.000 A 
ATOM     22  S   UNL     1      43.841   3.302  12.458  0.00  0.00    +0.000 S 
ATOM     23  C   UNL     1      44.329   3.683  10.874  0.00  0.00    +0.000 A 
ATOM     24  N   UNL     1      43.891   2.951   9.815  0.00  0.00    +0.000 NA
ATOM     25  C   UNL     1      44.366   3.331   8.674  0.00  0.00    +0.000 A 
ATOM     26  N   UNL     1      45.233   4.377   8.499  0.00  0.00    +0.000 N 
ATOM     27  C   UNL     1      45.677   5.165   9.536  0.00  0.00    +0.000 A 
ATOM     28  O   UNL     1      46.415   6.123   9.339  0.00  0.00    +0.000 OA
ATOM     29  C   UNL     1      45.187   4.770  10.841  0.00  0.00    +0.000 A 
ATOM     30  H   UNL     1      45.559   4.627   7.577  0.00  0.00    +0.000 HD
ENDBRANCH  17  20
ENDBRANCH   1  16
TORSDOF 5
ENDMDL
MODEL 9
REMARK VINA RESULT:    -5.080      3.141      8.317
REMARK INTER + INTRA:          -7.511
REMARK INTER:                  -6.926
REMARK INTRA:                  -0.585
REMARK UNBOUND:                -0.946
REMARK  Name = 
REMARK  6 active torsions:
REMARK  status: ('A' for Active; 'I' for Inactive)
REMARK    1  A    between atoms: C_1  and  C_2
REMARK    2  A    between atoms: N_4  and  C_5
REMARK    3  A    between atoms: C_5  and  C_6
REMARK    4  A    between atoms: C_9  and  C_10
REMARK    5  A    between atoms: C_10  and  N_11
REMARK    6  A    between atoms: C_12  and  C_14
REMARK                            x       y       z     vdW  Elec       q    Type
REMARK                         _______ _______ _______ _____ _____    ______ ____
ROOT
ATOM      1  C   UNL     1      50.447   8.256  14.286  0.00  0.00    +0.000 C 
ENDROOT
BRANCH   1   5
ATOM      2  C   UNL     1      46.742   7.990  12.183  0.00  0.00    +0.000 A 
ATOM      3  C   UNL     1      47.881   7.447  11.595  0.00  0.00    +0.000 A 
ATOM      4  C   UNL     1      49.097   7.522  12.276  0.00  0.00    +0.000 A 
ATOM      5  C   UNL     1      49.164   8.167  13.512  0.00  0.00    +0.000 A 
ATOM      6  C   UNL     1      47.981   8.699  14.013  0.00  0.00    +0.000 A 
ATOM      7  N   UNL     1      46.783   8.622  13.385  0.00  0.00    +0.000 NA
BRANCH   2   8
ATOM      8  C   UNL     1      45.382   7.843  11.513  0.00  0.00    +0.000 C 
BRANCH   8  12
ATOM      9  C   UNL     1      43.059   4.350  13.121  0.00  0.00    +0.000 C 
ATOM     10  C   UNL     1      44.579   4.399  12.978  0.00  0.00    +0.000 C 
ATOM     11  C   UNL     1      45.128   5.842  12.890  0.00  0.00    +0.000 C 
ATOM     12  N   UNL     1      44.758   6.504  11.616  0.00  0.00    +0.000 NA
ATOM     13  C   UNL     1      45.248   5.648  10.510  0.00  0.00    +0.000 C 
ATOM     14  C   UNL     1      44.711   4.211  10.604  0.00  0.00    +0.000 C 
ATOM     15  O   UNL     1      45.023   3.605  11.863  0.00  0.00    +0.000 OA
ENDBRANCH   8  12
ENDBRANCH   2   8
ENDBRANCH   1   5
BRANCH   1  16
ATOM     16  N   UNL     1      50.720   7.043  15.020  0.00  0.00    +0.000 N 
ATOM     17  C   UNL     1      50.324   6.909  16.327  0.00  0.00    +0.000 C 
ATOM     18  O   UNL     1      49.678   7.785  16.897  0.00  0.00    +0.000 OA
ATOM     19  H   UNL     1      51.436   6.422  14.651  0.00  0.00    +0.000 HD
BRANCH  17  20
ATOM     20  C   UNL     1      50.656   5.647  17.001  0.00  0.00    +0.000 A 
ATOM     21  C   UNL     1      49.633   4.832  17.468  0.00  0.00    +0.000 A 
ATOM     22  S   UNL     1      50.180   3.388  18.190  0.00  0.00    +0.000 S 
ATOM     23  C   UNL     1      51.807   3.820  17.949  0.00  0.00    +0.000 A 
ATOM     24  N   UNL     1      52.814   3.011  18.374  0.00  0.00    +0.000 NA
ATOM     25  C   UNL     1      53.999   3.478  18.155  0.00  0.00    +0.000 A 
ATOM     26  N   UNL     1      54.266   4.676  17.545  0.00  0.00    +0.000 N 
ATOM     27  C   UNL     1      53.281   5.510  17.069  0.00  0.00    +0.000 A 
ATOM     28  O   UNL     1      53.555   6.553  16.486  0.00  0.00    +0.000 OA
ATOM     29  C   UNL     1      51.931   5.041  17.306  0.00  0.00    +0.000 A 
ATOM     30  H   UNL     1      55.217   4.976  17.396  0.00  0.00    +0.000 HD
ENDBRANCH  17  20
ENDBRANCH   1  16
TORSDOF 5
ENDMDL
