MODEL 1
REMARK VINA RESULT:    -8.096      0.000      0.000
REMARK INTER + INTRA:         -13.395
REMARK INTER:                 -12.592
REMARK INTRA:                  -0.803
REMARK UNBOUND:                -0.803
REMARK  Name = 
REMARK  10 active torsions:
REMARK  status: ('A' for Active; 'I' for Inactive)
REMARK    1  A    between atoms: N_1  and  C_2
REMARK    2  A    between atoms: C_2  and  C_3
REMARK    3  A    between atoms: C_3  and  N_4
REMARK    4  A    between atoms: C_3  and  C_20
REMARK    5  A    between atoms: N_4  and  C_5
REMARK    6  A    between atoms: C_5  and  C_6
REMARK    7  A    between atoms: C_9  and  C_10
REMARK    8  A    between atoms: C_10  and  N_11
REMARK    9  A    between atoms: N_11  and  C_12
REMARK   10  A    between atoms: C_12  and  C_13
REMARK                            x       y       z     vdW  Elec       q    Type
REMARK                         _______ _______ _______ _____ _____    ______ ____
ROOT
ATOM      1  N   UNL     1      48.307   6.144  16.407  0.00  0.00    +0.000 NA
ATOM      2  H   UNL     1      48.935   6.660  17.022  0.00  0.00    +0.000 HD
ENDROOT
BRANCH   1   3
ATOM      3  C   UNL     1      48.381   4.722  16.808  0.00  0.00    +0.000 C 
BRANCH   3   4
ATOM      4  C   UNL     1      49.762   4.537  17.434  0.00  0.00    +0.000 A 
ATOM      5  C   UNL     1      50.434   5.529  18.139  0.00  0.00    +0.000 A 
ATOM      6  S   UNL     1      51.953   5.046  18.733  0.00  0.00    +0.000 S 
ATOM      7  C   UNL     1      51.752   3.473  18.114  0.00  0.00    +0.000 A 
ATOM      8  N   UNL     1      52.700   2.517  18.318  0.00  0.00    +0.000 NA
ATOM      9  C   UNL     1      52.398   1.363  17.831  0.00  0.00    +0.000 A 
ATOM     10  N   UNL     1      51.249   1.077  17.131  0.00  0.00    +0.000 N 
ATOM     11  C   UNL     1      50.287   2.027  16.853  0.00  0.00    +0.000 A 
ATOM     12  O   UNL     1      49.306   1.768  16.166  0.00  0.00    +0.000 OA
ATOM     13  C   UNL     1      50.559   3.331  17.430  0.00  0.00    +0.000 A 
ATOM     14  H   UNL     1      51.088   0.155  16.766  0.00  0.00    +0.000 HD
ENDBRANCH   3   4
BRANCH   3  15
ATOM     15  C   UNL     1      47.250   4.265  17.787  0.00  0.00    +0.000 C 
BRANCH  15  16
ATOM     16  N   UNL     1      46.716   2.919  17.536  0.00  0.00    +0.000 NA
ATOM     17  H   UNL     1      46.043   2.671  18.257  0.00  0.00    +0.000 HD
ATOM     18  H   UNL     1      47.485   2.249  17.587  0.00  0.00    +0.000 HD
ENDBRANCH  15  16
ENDBRANCH   3  15
ENDBRANCH   1   3
BRANCH   1  19
ATOM     19  C   UNL     1      48.670   6.408  15.014  0.00  0.00    +0.000 C 
BRANCH  19  20
ATOM     20  C   UNL     1      47.578   5.965  14.057  0.00  0.00    +0.000 A 
ATOM     21  C   UNL     1      46.906   6.886  13.256  0.00  0.00    +0.000 A 
ATOM     22  N   UNL     1      45.891   6.548  12.423  0.00  0.00    +0.000 NA
ATOM     23  C   UNL     1      45.552   5.233  12.419  0.00  0.00    +0.000 A 
ATOM     24  C   UNL     1      46.237   4.308  13.197  0.00  0.00    +0.000 A 
ATOM     25  N   UNL     1      47.255   4.645  14.022  0.00  0.00    +0.000 NA
BRANCH  23  26
ATOM     26  C   UNL     1      44.441   4.780  11.497  0.00  0.00    +0.000 C 
BRANCH  26  27
ATOM     27  N   UNL     1      44.500   5.363  10.146  0.00  0.00    +0.000 NA
ATOM     28  H   UNL     1      44.739   6.352  10.258  0.00  0.00    +0.000 HD
BRANCH  27  29
ATOM     29  C   UNL     1      45.544   4.728   9.325  0.00  0.00    +0.000 C 
BRANCH  29  30
ATOM     30  C   UNL     1      44.914   3.896   8.182  0.00  0.00    +0.000 C 
ATOM     31  C   UNL     1      45.954   3.373   7.207  0.00  0.00    +0.000 C 
ATOM     32  C   UNL     1      46.478   2.125   7.890  0.00  0.00    +0.000 C 
ATOM     33  C   UNL     1      45.316   1.635   8.742  0.00  0.00    +0.000 C 
ATOM     34  N   UNL     1      44.276   2.666   8.678  0.00  0.00    +0.000 NA
ATOM     35  H   UNL     1      43.897   2.855   9.609  0.00  0.00    +0.000 HD
ENDBRANCH  29  30
ENDBRANCH  27  29
ENDBRANCH  26  27
ENDBRANCH  23  26
ENDBRANCH  19  20
ENDBRANCH   1  19
TORSDOF 10
ENDMDL
MODEL 2
REMARK VINA RESULT:    -7.173      1.675      2.221
REMARK INTER + INTRA:         -11.960
REMARK INTER:                 -11.086
REMARK INTRA:                  -0.873
REMARK UNBOUND:                -0.803
REMARK  Name = 
REMARK  10 active torsions:
REMARK  status: ('A' for Active; 'I' for Inactive)
REMARK    1  A    between atoms: N_1  and  C_2
REMARK    2  A    between atoms: C_2  and  C_3
REMARK    3  A    between atoms: C_3  and  N_4
REMARK    4  A    between atoms: C_3  and  C_20
REMARK    5  A    between atoms: N_4  and  C_5
REMARK    6  A    between atoms: C_5  and  C_6
REMARK    7  A    between atoms: C_9  and  C_10
REMARK    8  A    between atoms: C_10  and  N_11
REMARK    9  A    between atoms: N_11  and  C_12
REMARK   10  A    between atoms: C_12  and  C_13
REMARK                            x       y       z     vdW  Elec       q    Type
REMARK                         _______ _______ _______ _____ _____    ______ ____
ROOT
ATOM      1  N   UNL     1      48.990   6.194  16.829  0.00  0.00    +0.000 NA
ATOM      2  H   UNL     1      49.598   6.584  17.549  0.00  0.00    +0.000 HD
ENDROOT
BRANCH   1   3
ATOM      3  C   UNL     1      48.983   4.727  17.018  0.00  0.00    +0.000 C 
BRANCH   3   4
ATOM      4  C   UNL     1      50.321   4.384  17.671  0.00  0.00    +0.000 A 
ATOM      5  C   UNL     1      51.043   5.264  18.469  0.00  0.00    +0.000 A 
ATOM      6  S   UNL     1      52.497   4.616  19.071  0.00  0.00    +0.000 S 
ATOM      7  C   UNL     1      52.194   3.114  18.330  0.00  0.00    +0.000 A 
ATOM      8  N   UNL     1      53.054   2.072  18.491  0.00  0.00    +0.000 NA
ATOM      9  C   UNL     1      52.680   0.984  17.911  0.00  0.00    +0.000 A 
ATOM     10  N   UNL     1      51.538   0.844  17.156  0.00  0.00    +0.000 N 
ATOM     11  C   UNL     1      50.666   1.888  16.921  0.00  0.00    +0.000 A 
ATOM     12  O   UNL     1      49.693   1.761  16.186  0.00  0.00    +0.000 OA
ATOM     13  C   UNL     1      51.019   3.121  17.601  0.00  0.00    +0.000 A 
ATOM     14  H   UNL     1      51.317  -0.032  16.718  0.00  0.00    +0.000 HD
ENDBRANCH   3   4
BRANCH   3  15
ATOM     15  C   UNL     1      47.785   4.189  17.867  0.00  0.00    +0.000 C 
BRANCH  15  16
ATOM     16  N   UNL     1      46.736   5.176  18.160  0.00  0.00    +0.000 NA
ATOM     17  H   UNL     1      47.153   6.028  18.527  0.00  0.00    +0.000 HD
ATOM     18  H   UNL     1      46.123   4.797  18.882  0.00  0.00    +0.000 HD
ENDBRANCH  15  16
ENDBRANCH   3  15
ENDBRANCH   1   3
BRANCH   1  19
ATOM     19  C   UNL     1      49.450   6.640  15.513  0.00  0.00    +0.000 C 
BRANCH  19  20
ATOM     20  C   UNL     1      48.287   6.952  14.589  0.00  0.00    +0.000 A 
ATOM     21  C   UNL     1      47.581   5.933  13.952  0.00  0.00    +0.000 A 
ATOM     22  N   UNL     1      46.569   6.161  13.079  0.00  0.00    +0.000 NA
ATOM     23  C   UNL     1      46.280   7.468  12.850  0.00  0.00    +0.000 A 
ATOM     24  C   UNL     1      46.964   8.486  13.504  0.00  0.00    +0.000 A 
ATOM     25  N   UNL     1      47.969   8.256  14.380  0.00  0.00    +0.000 NA
BRANCH  23  26
ATOM     26  C   UNL     1      45.145   7.798  11.902  0.00  0.00    +0.000 C 
BRANCH  26  27
ATOM     27  N   UNL     1      44.821   6.723  10.950  0.00  0.00    +0.000 NA
ATOM     28  H   UNL     1      45.598   6.057  10.975  0.00  0.00    +0.000 HD
BRANCH  27  29
ATOM     29  C   UNL     1      43.592   6.010  11.334  0.00  0.00    +0.000 C 
BRANCH  29  30
ATOM     30  C   UNL     1      43.506   4.639  10.621  0.00  0.00    +0.000 C 
ATOM     31  C   UNL     1      44.864   3.970  10.487  0.00  0.00    +0.000 C 
ATOM     32  C   UNL     1      45.062   3.308  11.837  0.00  0.00    +0.000 C 
ATOM     33  C   UNL     1      43.653   3.017  12.334  0.00  0.00    +0.000 C 
ATOM     34  N   UNL     1      42.728   3.658  11.394  0.00  0.00    +0.000 NA
ATOM     35  H   UNL     1      41.992   4.160  11.897  0.00  0.00    +0.000 HD
ENDBRANCH  29  30
ENDBRANCH  27  29
ENDBRANCH  26  27
ENDBRANCH  23  26
ENDBRANCH  19  20
ENDBRANCH   1  19
TORSDOF 10
ENDMDL
MODEL 3
REMARK VINA RESULT:    -7.130      1.716      2.297
REMARK INTER + INTRA:         -11.892
REMARK INTER:                 -11.099
REMARK INTRA:                  -0.793
REMARK UNBOUND:                -0.803
REMARK  Name = 
REMARK  10 active torsions:
REMARK  status: ('A' for Active; 'I' for Inactive)
REMARK    1  A    between atoms: N_1  and  C_2
REMARK    2  A    between atoms: C_2  and  C_3
REMARK    3  A    between atoms: C_3  and  N_4
REMARK    4  A    between atoms: C_3  and  C_20
REMARK    5  A    between atoms: N_4  and  C_5
REMARK    6  A    between atoms: C_5  and  C_6
REMARK    7  A    between atoms: C_9  and  C_10
REMARK    8  A    between atoms: C_10  and  N_11
REMARK    9  A    between atoms: N_11  and  C_12
REMARK   10  A    between atoms: C_12  and  C_13
REMARK                            x       y       z     vdW  Elec       q    Type
REMARK                         _______ _______ _______ _____ _____    ______ ____
ROOT
ATOM      1  N   UNL     1      47.231   5.249  15.595  0.00  0.00    +0.000 NA
ATOM      2  H   UNL     1      47.121   6.045  16.222  0.00  0.00    +0.000 HD
ENDROOT
BRANCH   1   3
ATOM      3  C   UNL     1      48.196   4.328  16.232  0.00  0.00    +0.000 C 
BRANCH   3   4
ATOM      4  C   UNL     1      48.739   5.070  17.452  0.00  0.00    +0.000 A 
ATOM      5  C   UNL     1      48.101   6.152  18.049  0.00  0.00    +0.000 A 
ATOM      6  S   UNL     1      48.926   6.782  19.397  0.00  0.00    +0.000 S 
ATOM      7  C   UNL     1      50.145   5.602  19.267  0.00  0.00    +0.000 A 
ATOM      8  N   UNL     1      51.164   5.550  20.169  0.00  0.00    +0.000 NA
ATOM      9  C   UNL     1      51.991   4.581  19.975  0.00  0.00    +0.000 A 
ATOM     10  N   UNL     1      51.915   3.672  18.946  0.00  0.00    +0.000 N 
ATOM     11  C   UNL     1      50.932   3.719  17.978  0.00  0.00    +0.000 A 
ATOM     12  O   UNL     1      50.925   2.944  17.028  0.00  0.00    +0.000 OA
ATOM     13  C   UNL     1      49.945   4.763  18.186  0.00  0.00    +0.000 A 
ATOM     14  H   UNL     1      52.608   2.951  18.847  0.00  0.00    +0.000 HD
ENDBRANCH   3   4
BRANCH   3  15
ATOM     15  C   UNL     1      47.599   2.939  16.635  0.00  0.00    +0.000 C 
BRANCH  15  16
ATOM     16  N   UNL     1      46.655   2.971  17.761  0.00  0.00    +0.000 NA
ATOM     17  H   UNL     1      46.764   2.136  18.330  0.00  0.00    +0.000 HD
ATOM     18  H   UNL     1      45.704   2.969  17.389  0.00  0.00    +0.000 HD
ENDBRANCH  15  16
ENDBRANCH   3  15
ENDBRANCH   1   3
BRANCH   1  19
ATOM     19  C   UNL     1      47.624   5.728  14.269  0.00  0.00    +0.000 C 
BRANCH  19  20
ATOM     20  C   UNL     1      46.676   5.234  13.191  0.00  0.00    +0.000 A 
ATOM     21  C   UNL     1      46.444   5.982  12.039  0.00  0.00    +0.000 A 
ATOM     22  N   UNL     1      45.570   5.609  11.072  0.00  0.00    +0.000 NA
ATOM     23  C   UNL     1      44.913   4.443  11.298  0.00  0.00    +0.000 A 
ATOM     24  C   UNL     1      45.161   3.681  12.433  0.00  0.00    +0.000 A 
ATOM     25  N   UNL     1      46.039   4.050  13.394  0.00  0.00    +0.000 NA
BRANCH  23  26
ATOM     26  C   UNL     1      43.937   3.953  10.249  0.00  0.00    +0.000 C 
BRANCH  26  27
ATOM     27  N   UNL     1      44.435   2.831   9.436  0.00  0.00    +0.000 NA
ATOM     28  H   UNL     1      43.667   2.160   9.350  0.00  0.00    +0.000 HD
BRANCH  27  29
ATOM     29  C   UNL     1      44.817   3.267   8.084  0.00  0.00    +0.000 C 
BRANCH  29  30
ATOM     30  C   UNL     1      46.358   3.315   7.937  0.00  0.00    +0.000 C 
ATOM     31  C   UNL     1      46.949   1.957   7.601  0.00  0.00    +0.000 C 
ATOM     32  C   UNL     1      46.763   1.856   6.100  0.00  0.00    +0.000 C 
ATOM     33  C   UNL     1      46.779   3.297   5.611  0.00  0.00    +0.000 C 
ATOM     34  N   UNL     1      46.781   4.151   6.803  0.00  0.00    +0.000 NA
ATOM     35  H   UNL     1      46.109   4.916   6.701  0.00  0.00    +0.000 HD
ENDBRANCH  29  30
ENDBRANCH  27  29
ENDBRANCH  26  27
ENDBRANCH  23  26
ENDBRANCH  19  20
ENDBRANCH   1  19
TORSDOF 10
ENDMDL
MODEL 4
REMARK VINA RESULT:    -6.973      1.949      2.773
REMARK INTER + INTRA:         -11.649
REMARK INTER:                 -10.825
REMARK INTRA:                  -0.823
REMARK UNBOUND:                -0.803
REMARK  Name = 
REMARK  10 active torsions:
REMARK  status: ('A' for Active; 'I' for Inactive)
REMARK    1  A    between atoms: N_1  and  C_2
REMARK    2  A    between atoms: C_2  and  C_3
REMARK    3  A    between atoms: C_3  and  N_4
REMARK    4  A    between atoms: C_3  and  C_20
REMARK    5  A    between atoms: N_4  and  C_5
REMARK    6  A    between atoms: C_5  and  C_6
REMARK    7  A    between atoms: C_9  and  C_10
REMARK    8  A    between atoms: C_10  and  N_11
REMARK    9  A    between atoms: N_11  and  C_12
REMARK   10  A    between atoms: C_12  and  C_13
REMARK                            x       y       z     vdW  Elec       q    Type
REMARK                         _______ _______ _______ _____ _____    ______ ____
ROOT
ATOM      1  N   UNL     1      48.294   5.953  14.531  0.00  0.00    +0.000 NA
ATOM      2  H   UNL     1      49.130   5.388  14.389  0.00  0.00    +0.000 HD
ENDROOT
BRANCH   1   3
ATOM      3  C   UNL     1      48.604   6.921  15.605  0.00  0.00    +0.000 C 
BRANCH   3   4
ATOM      4  C   UNL     1      50.046   6.635  16.020  0.00  0.00    +0.000 A 
ATOM      5  C   UNL     1      51.143   7.361  15.569  0.00  0.00    +0.000 A 
ATOM      6  S   UNL     1      52.631   6.828  16.199  0.00  0.00    +0.000 S 
ATOM      7  C   UNL     1      51.863   5.636  17.140  0.00  0.00    +0.000 A 
ATOM      8  N   UNL     1      52.584   4.834  17.972  0.00  0.00    +0.000 NA
ATOM      9  C   UNL     1      51.871   4.006  18.655  0.00  0.00    +0.000 A 
ATOM     10  N   UNL     1      50.504   3.881  18.567  0.00  0.00    +0.000 N 
ATOM     11  C   UNL     1      49.739   4.634  17.698  0.00  0.00    +0.000 A 
ATOM     12  O   UNL     1      48.532   4.456  17.583  0.00  0.00    +0.000 OA
ATOM     13  C   UNL     1      50.494   5.620  16.946  0.00  0.00    +0.000 A 
ATOM     14  H   UNL     1      50.015   3.200  19.120  0.00  0.00    +0.000 HD
ENDBRANCH   3   4
BRANCH   3  15
ATOM     15  C   UNL     1      48.420   8.421  15.198  0.00  0.00    +0.000 C 
BRANCH  15  16
ATOM     16  N   UNL     1      47.162   8.727  14.504  0.00  0.00    +0.000 NA
ATOM     17  H   UNL     1      46.392   8.742  15.169  0.00  0.00    +0.000 HD
ATOM     18  H   UNL     1      46.972   7.985  13.830  0.00  0.00    +0.000 HD
ENDBRANCH  15  16
ENDBRANCH   3  15
ENDBRANCH   1   3
BRANCH   1  19
ATOM     19  C   UNL     1      47.157   5.074  14.808  0.00  0.00    +0.000 C 
BRANCH  19  20
ATOM     20  C   UNL     1      46.332   4.814  13.561  0.00  0.00    +0.000 A 
ATOM     21  C   UNL     1      45.871   5.865  12.771  0.00  0.00    +0.000 A 
ATOM     22  N   UNL     1      45.090   5.688  11.677  0.00  0.00    +0.000 NA
ATOM     23  C   UNL     1      44.768   4.400  11.392  0.00  0.00    +0.000 A 
ATOM     24  C   UNL     1      45.248   3.347  12.162  0.00  0.00    +0.000 A 
ATOM     25  N   UNL     1      46.034   3.525  13.249  0.00  0.00    +0.000 NA
BRANCH  23  26
ATOM     26  C   UNL     1      43.916   4.125  10.171  0.00  0.00    +0.000 C 
BRANCH  26  27
ATOM     27  N   UNL     1      44.492   4.616   8.909  0.00  0.00    +0.000 NA
ATOM     28  H   UNL     1      45.346   5.127   9.148  0.00  0.00    +0.000 HD
BRANCH  27  29
ATOM     29  C   UNL     1      44.855   3.508   8.011  0.00  0.00    +0.000 C 
BRANCH  29  30
ATOM     30  C   UNL     1      46.392   3.323   7.961  0.00  0.00    +0.000 C 
ATOM     31  C   UNL     1      46.791   1.895   7.631  0.00  0.00    +0.000 C 
ATOM     32  C   UNL     1      46.689   1.843   6.119  0.00  0.00    +0.000 C 
ATOM     33  C   UNL     1      46.955   3.272   5.666  0.00  0.00    +0.000 C 
ATOM     34  N   UNL     1      47.010   4.099   6.874  0.00  0.00    +0.000 NA
ATOM     35  H   UNL     1      46.469   4.959   6.749  0.00  0.00    +0.000 HD
ENDBRANCH  29  30
ENDBRANCH  27  29
ENDBRANCH  26  27
ENDBRANCH  23  26
ENDBRANCH  19  20
ENDBRANCH   1  19
TORSDOF 10
ENDMDL
MODEL 5
REMARK VINA RESULT:    -6.905      3.488      9.001
REMARK INTER + INTRA:         -11.543
REMARK INTER:                 -10.378
REMARK INTRA:                  -1.166
REMARK UNBOUND:                -0.803
REMARK  Name = 
REMARK  10 active torsions:
REMARK  status: ('A' for Active; 'I' for Inactive)
REMARK    1  A    between atoms: N_1  and  C_2
REMARK    2  A    between atoms: C_2  and  C_3
REMARK    3  A    between atoms: C_3  and  N_4
REMARK    4  A    between atoms: C_3  and  C_20
REMARK    5  A    between atoms: N_4  and  C_5
REMARK    6  A    between atoms: C_5  and  C_6
REMARK    7  A    between atoms: C_9  and  C_10
REMARK    8  A    between atoms: C_10  and  N_11
REMARK    9  A    between atoms: N_11  and  C_12
REMARK   10  A    between atoms: C_12  and  C_13
REMARK                            x       y       z     vdW  Elec       q    Type
REMARK                         _______ _______ _______ _____ _____    ______ ____
ROOT
ATOM      1  N   UNL     1      46.301   7.465  12.518  0.00  0.00    +0.000 NA
ATOM      2  H   UNL     1      45.761   7.344  13.374  0.00  0.00    +0.000 HD
ENDROOT
BRANCH   1   3
ATOM      3  C   UNL     1      45.363   7.296  11.388  0.00  0.00    +0.000 C 
BRANCH   3   4
ATOM      4  C   UNL     1      44.725   5.921  11.577  0.00  0.00    +0.000 A 
ATOM      5  C   UNL     1      43.974   5.561  12.691  0.00  0.00    +0.000 A 
ATOM      6  S   UNL     1      43.378   3.968  12.636  0.00  0.00    +0.000 S 
ATOM      7  C   UNL     1      44.058   3.713  11.097  0.00  0.00    +0.000 A 
ATOM      8  N   UNL     1      43.877   2.533  10.442  0.00  0.00    +0.000 NA
ATOM      9  C   UNL     1      44.410   2.492   9.270  0.00  0.00    +0.000 A 
ATOM     10  N   UNL     1      45.136   3.511   8.697  0.00  0.00    +0.000 N 
ATOM     11  C   UNL     1      45.392   4.703   9.345  0.00  0.00    +0.000 A 
ATOM     12  O   UNL     1      46.102   5.568   8.846  0.00  0.00    +0.000 OA
ATOM     13  C   UNL     1      44.763   4.815  10.649  0.00  0.00    +0.000 A 
ATOM     14  H   UNL     1      45.538   3.402   7.783  0.00  0.00    +0.000 HD
ENDBRANCH   3   4
BRANCH   3  15
ATOM     15  C   UNL     1      44.274   8.415  11.277  0.00  0.00    +0.000 C 
BRANCH  15  16
ATOM     16  N   UNL     1      42.948   7.951  10.846  0.00  0.00    +0.000 NA
ATOM     17  H   UNL     1      43.044   7.262  10.104  0.00  0.00    +0.000 HD
ATOM     18  H   UNL     1      42.433   8.745  10.464  0.00  0.00    +0.000 HD
ENDBRANCH  15  16
ENDBRANCH   3  15
ENDBRANCH   1   3
BRANCH   1  19
ATOM     19  C   UNL     1      47.430   6.533  12.522  0.00  0.00    +0.000 C 
BRANCH  19  20
ATOM     20  C   UNL     1      47.623   5.893  13.885  0.00  0.00    +0.000 A 
ATOM     21  C   UNL     1      48.478   6.456  14.830  0.00  0.00    +0.000 A 
ATOM     22  N   UNL     1      48.723   5.895  16.040  0.00  0.00    +0.000 NA
ATOM     23  C   UNL     1      48.080   4.725  16.282  0.00  0.00    +0.000 A 
ATOM     24  C   UNL     1      47.206   4.174  15.353  0.00  0.00    +0.000 A 
ATOM     25  N   UNL     1      46.956   4.738  14.148  0.00  0.00    +0.000 NA
BRANCH  23  26
ATOM     26  C   UNL     1      48.289   4.053  17.623  0.00  0.00    +0.000 C 
BRANCH  26  27
ATOM     27  N   UNL     1      47.384   4.526  18.684  0.00  0.00    +0.000 NA
ATOM     28  H   UNL     1      47.144   3.712  19.257  0.00  0.00    +0.000 HD
BRANCH  27  29
ATOM     29  C   UNL     1      48.036   5.522  19.550  0.00  0.00    +0.000 C 
BRANCH  29  30
ATOM     30  C   UNL     1      47.267   6.865  19.517  0.00  0.00    +0.000 C 
ATOM     31  C   UNL     1      47.652   7.780  20.667  0.00  0.00    +0.000 C 
ATOM     32  C   UNL     1      48.925   8.442  20.176  0.00  0.00    +0.000 C 
ATOM     33  C   UNL     1      48.793   8.454  18.660  0.00  0.00    +0.000 C 
ATOM     34  N   UNL     1      47.601   7.667  18.329  0.00  0.00    +0.000 NA
ATOM     35  H   UNL     1      47.794   7.026  17.555  0.00  0.00    +0.000 HD
ENDBRANCH  29  30
ENDBRANCH  27  29
ENDBRANCH  26  27
ENDBRANCH  23  26
ENDBRANCH  19  20
ENDBRANCH   1  19
TORSDOF 10
ENDMDL
MODEL 6
REMARK VINA RESULT:    -6.778      1.825      2.535
REMARK INTER + INTRA:         -11.345
REMARK INTER:                 -10.518
REMARK INTRA:                  -0.827
REMARK UNBOUND:                -0.803
REMARK  Name = 
REMARK  10 active torsions:
REMARK  status: ('A' for Active; 'I' for Inactive)
REMARK    1  A    between atoms: N_1  and  C_2
REMARK    2  A    between atoms: C_2  and  C_3
REMARK    3  A    between atoms: C_3  and  N_4
REMARK    4  A    between atoms: C_3  and  C_20
REMARK    5  A    between atoms: N_4  and  C_5
REMARK    6  A    between atoms: C_5  and  C_6
REMARK    7  A    between atoms: C_9  and  C_10
REMARK    8  A    between atoms: C_10  and  N_11
REMARK    9  A    between atoms: N_11  and  C_12
REMARK   10  A    between atoms: C_12  and  C_13
REMARK                            x       y       z     vdW  Elec       q    Type
REMARK                         _______ _______ _______ _____ _____    ______ ____
ROOT
ATOM      1  N   UNL     1      49.029   6.298  14.862  0.00  0.00    +0.000 NA
ATOM      2  H   UNL     1      48.647   5.380  15.090  0.00  0.00    +0.000 HD
ENDROOT
BRANCH   1   3
ATOM      3  C   UNL     1      49.181   7.032  16.136  0.00  0.00    +0.000 C 
BRANCH   3   4
ATOM      4  C   UNL     1      50.574   6.679  16.656  0.00  0.00    +0.000 A 
ATOM      5  C   UNL     1      51.631   7.580  16.716  0.00  0.00    +0.000 A 
ATOM      6  S   UNL     1      53.067   6.919  17.345  0.00  0.00    +0.000 S 
ATOM      7  C   UNL     1      52.319   5.414  17.610  0.00  0.00    +0.000 A 
ATOM      8  N   UNL     1      53.003   4.387  18.184  0.00  0.00    +0.000 NA
ATOM      9  C   UNL     1      52.302   3.321  18.363  0.00  0.00    +0.000 A 
ATOM     10  N   UNL     1      50.985   3.170  17.996  0.00  0.00    +0.000 N 
ATOM     11  C   UNL     1      50.268   4.165  17.362  0.00  0.00    +0.000 A 
ATOM     12  O   UNL     1      49.118   3.985  16.977  0.00  0.00    +0.000 OA
ATOM     13  C   UNL     1      51.002   5.405  17.188  0.00  0.00    +0.000 A 
ATOM     14  H   UNL     1      50.506   2.302  18.152  0.00  0.00    +0.000 HD
ENDBRANCH   3   4
BRANCH   3  15
ATOM     15  C   UNL     1      48.997   8.581  16.018  0.00  0.00    +0.000 C 
BRANCH  15  16
ATOM     16  N   UNL     1      47.738   9.101  16.569  0.00  0.00    +0.000 NA
ATOM     17  H   UNL     1      47.268   8.378  17.107  0.00  0.00    +0.000 HD
ATOM     18  H   UNL     1      47.125   9.358  15.795  0.00  0.00    +0.000 HD
ENDBRANCH  15  16
ENDBRANCH   3  15
ENDBRANCH   1   3
BRANCH   1  19
ATOM     19  C   UNL     1      48.163   6.950  13.879  0.00  0.00    +0.000 C 
BRANCH  19  20
ATOM     20  C   UNL     1      46.946   6.104  13.554  0.00  0.00    +0.000 A 
ATOM     21  C   UNL     1      46.859   4.777  13.972  0.00  0.00    +0.000 A 
ATOM     22  N   UNL     1      45.818   3.966  13.664  0.00  0.00    +0.000 NA
ATOM     23  C   UNL     1      44.845   4.529  12.903  0.00  0.00    +0.000 A 
ATOM     24  C   UNL     1      44.915   5.859  12.507  0.00  0.00    +0.000 A 
ATOM     25  N   UNL     1      45.951   6.670  12.820  0.00  0.00    +0.000 NA
BRANCH  23  26
ATOM     26  C   UNL     1      43.639   3.687  12.539  0.00  0.00    +0.000 C 
BRANCH  26  27
ATOM     27  N   UNL     1      43.937   2.563  11.636  0.00  0.00    +0.000 NA
ATOM     28  H   UNL     1      43.051   2.281  11.208  0.00  0.00    +0.000 HD
BRANCH  27  29
ATOM     29  C   UNL     1      44.861   2.959  10.562  0.00  0.00    +0.000 C 
BRANCH  29  30
ATOM     30  C   UNL     1      44.415   2.361   9.205  0.00  0.00    +0.000 C 
ATOM     31  C   UNL     1      44.592   3.338   8.056  0.00  0.00    +0.000 C 
ATOM     32  C   UNL     1      46.057   3.190   7.693  0.00  0.00    +0.000 C 
ATOM     33  C   UNL     1      46.409   1.762   8.085  0.00  0.00    +0.000 C 
ATOM     34  N   UNL     1      45.251   1.219   8.801  0.00  0.00    +0.000 NA
ATOM     35  H   UNL     1      45.548   0.726   9.647  0.00  0.00    +0.000 HD
ENDBRANCH  29  30
ENDBRANCH  27  29
ENDBRANCH  26  27
ENDBRANCH  23  26
ENDBRANCH  19  20
ENDBRANCH   1  19
TORSDOF 10
ENDMDL
MODEL 7
REMARK VINA RESULT:    -6.674      3.015      8.990
REMARK INTER + INTRA:         -11.184
REMARK INTER:                 -10.636
REMARK INTRA:                  -0.548
REMARK UNBOUND:                -0.803
REMARK  Name = 
REMARK  10 active torsions:
REMARK  status: ('A' for Active; 'I' for Inactive)
REMARK    1  A    between atoms: N_1  and  C_2
REMARK    2  A    between atoms: C_2  and  C_3
REMARK    3  A    between atoms: C_3  and  N_4
REMARK    4  A    between atoms: C_3  and  C_20
REMARK    5  A    between atoms: N_4  and  C_5
REMARK    6  A    between atoms: C_5  and  C_6
REMARK    7  A    between atoms: C_9  and  C_10
REMARK    8  A    between atoms: C_10  and  N_11
REMARK    9  A    between atoms: N_11  and  C_12
REMARK   10  A    between atoms: C_12  and  C_13
REMARK                            x       y       z     vdW  Elec       q    Type
REMARK                         _______ _______ _______ _____ _____    ______ ____
ROOT
ATOM      1  N   UNL     1      46.066   6.831  12.837  0.00  0.00    +0.000 NA
ATOM      2  H   UNL     1      45.441   6.464  13.554  0.00  0.00    +0.000 HD
ENDROOT
BRANCH   1   3
ATOM      3  C   UNL     1      45.344   6.746  11.549  0.00  0.00    +0.000 C 
BRANCH   3   4
ATOM      4  C   UNL     1      44.766   5.333  11.487  0.00  0.00    +0.000 A 
ATOM      5  C   UNL     1      44.033   4.749  12.514  0.00  0.00    +0.000 A 
ATOM      6  S   UNL     1      43.507   3.167  12.173  0.00  0.00    +0.000 S 
ATOM      7  C   UNL     1      44.195   3.219  10.617  0.00  0.00    +0.000 A 
ATOM      8  N   UNL     1      44.065   2.168   9.762  0.00  0.00    +0.000 NA
ATOM      9  C   UNL     1      44.598   2.360   8.604  0.00  0.00    +0.000 A 
ATOM     10  N   UNL     1      45.278   3.494   8.227  0.00  0.00    +0.000 N 
ATOM     11  C   UNL     1      45.482   4.561   9.078  0.00  0.00    +0.000 A 
ATOM     12  O   UNL     1      46.153   5.532   8.746  0.00  0.00    +0.000 OA
ATOM     13  C   UNL     1      44.851   4.412  10.377  0.00  0.00    +0.000 A 
ATOM     14  H   UNL     1      45.683   3.567   7.310  0.00  0.00    +0.000 HD
ENDBRANCH   3   4
BRANCH   3  15
ATOM     15  C   UNL     1      44.225   7.823  11.362  0.00  0.00    +0.000 C 
BRANCH  15  16
ATOM     16  N   UNL     1      42.906   7.292  10.993  0.00  0.00    +0.000 NA
ATOM     17  H   UNL     1      42.617   7.669  10.093  0.00  0.00    +0.000 HD
ATOM     18  H   UNL     1      42.224   7.598  11.688  0.00  0.00    +0.000 HD
ENDBRANCH  15  16
ENDBRANCH   3  15
ENDBRANCH   1   3
BRANCH   1  19
ATOM     19  C   UNL     1      47.333   6.100  12.878  0.00  0.00    +0.000 C 
BRANCH  19  20
ATOM     20  C   UNL     1      47.608   5.531  14.258  0.00  0.00    +0.000 A 
ATOM     21  C   UNL     1      47.008   4.347  14.682  0.00  0.00    +0.000 A 
ATOM     22  N   UNL     1      47.181   3.826  15.921  0.00  0.00    +0.000 NA
ATOM     23  C   UNL     1      47.983   4.543  16.749  0.00  0.00    +0.000 A 
ATOM     24  C   UNL     1      48.604   5.710  16.322  0.00  0.00    +0.000 A 
ATOM     25  N   UNL     1      48.437   6.226  15.082  0.00  0.00    +0.000 NA
BRANCH  23  26
ATOM     26  C   UNL     1      48.239   4.009  18.143  0.00  0.00    +0.000 C 
BRANCH  26  27
ATOM     27  N   UNL     1      49.190   2.885  18.195  0.00  0.00    +0.000 NA
ATOM     28  H   UNL     1      48.734   2.087  17.745  0.00  0.00    +0.000 HD
BRANCH  27  29
ATOM     29  C   UNL     1      50.426   3.185  17.456  0.00  0.00    +0.000 C 
BRANCH  29  30
ATOM     30  C   UNL     1      51.602   3.438  18.430  0.00  0.00    +0.000 C 
ATOM     31  C   UNL     1      52.760   4.161  17.765  0.00  0.00    +0.000 C 
ATOM     32  C   UNL     1      52.340   5.618  17.820  0.00  0.00    +0.000 C 
ATOM     33  C   UNL     1      51.444   5.714  19.046  0.00  0.00    +0.000 C 
ATOM     34  N   UNL     1      51.229   4.346  19.526  0.00  0.00    +0.000 NA
ATOM     35  H   UNL     1      50.242   4.191  19.748  0.00  0.00    +0.000 HD
ENDBRANCH  29  30
ENDBRANCH  27  29
ENDBRANCH  26  27
ENDBRANCH  23  26
ENDBRANCH  19  20
ENDBRANCH   1  19
TORSDOF 10
ENDMDL
MODEL 8
REMARK VINA RESULT:    -6.571      2.377      3.730
REMARK INTER + INTRA:         -11.022
REMARK INTER:                 -10.006
REMARK INTRA:                  -1.017
REMARK UNBOUND:                -0.803
REMARK  Name = 
REMARK  10 active torsions:
REMARK  status: ('A' for Active; 'I' for Inactive)
REMARK    1  A    between atoms: N_1  and  C_2
REMARK    2  A    between atoms: C_2  and  C_3
REMARK    3  A    between atoms: C_3  and  N_4
REMARK    4  A    between atoms: C_3  and  C_20
REMARK    5  A    between atoms: N_4  and  C_5
REMARK    6  A    between atoms: C_5  and  C_6
REMARK    7  A    between atoms: C_9  and  C_10
REMARK    8  A    between atoms: C_10  and  N_11
REMARK    9  A    between atoms: N_11  and  C_12
REMARK   10  A    between atoms: C_12  and  C_13
REMARK                            x       y       z     vdW  Elec       q    Type
REMARK                         _______ _______ _______ _____ _____    ______ ____
ROOT
ATOM      1  N   UNL     1      48.793   5.167  16.218  0.00  0.00    +0.000 NA
ATOM      2  H   UNL     1      49.475   5.156  15.461  0.00  0.00    +0.000 HD
ENDROOT
BRANCH   1   3
ATOM      3  C   UNL     1      49.490   4.694  17.433  0.00  0.00    +0.000 C 
BRANCH   3   4
ATOM      4  C   UNL     1      48.936   5.530  18.585  0.00  0.00    +0.000 A 
ATOM      5  C   UNL     1      48.182   5.009  19.630  0.00  0.00    +0.000 A 
ATOM      6  S   UNL     1      47.699   6.168  20.779  0.00  0.00    +0.000 S 
ATOM      7  C   UNL     1      48.522   7.406  19.951  0.00  0.00    +0.000 A 
ATOM      8  N   UNL     1      48.546   8.676  20.441  0.00  0.00    +0.000 NA
ATOM      9  C   UNL     1      49.240   9.501  19.736  0.00  0.00    +0.000 A 
ATOM     10  N   UNL     1      49.892   9.186  18.567  0.00  0.00    +0.000 N 
ATOM     11  C   UNL     1      49.850   7.926  18.004  0.00  0.00    +0.000 A 
ATOM     12  O   UNL     1      50.377   7.685  16.924  0.00  0.00    +0.000 OA
ATOM     13  C   UNL     1      49.124   6.948  18.793  0.00  0.00    +0.000 A 
ATOM     14  H   UNL     1      50.403   9.887  18.059  0.00  0.00    +0.000 HD
ENDBRANCH   3   4
BRANCH   3  15
ATOM     15  C   UNL     1      49.330   3.164  17.718  0.00  0.00    +0.000 C 
BRANCH  15  16
ATOM     16  N   UNL     1      50.588   2.406  17.772  0.00  0.00    +0.000 NA
ATOM     17  H   UNL     1      51.107   2.652  18.612  0.00  0.00    +0.000 HD
ATOM     18  H   UNL     1      51.160   2.666  16.969  0.00  0.00    +0.000 HD
ENDBRANCH  15  16
ENDBRANCH   3  15
ENDBRANCH   1   3
BRANCH   1  19
ATOM     19  C   UNL     1      47.627   4.372  15.832  0.00  0.00    +0.000 C 
BRANCH  19  20
ATOM     20  C   UNL     1      47.028   4.856  14.524  0.00  0.00    +0.000 A 
ATOM     21  C   UNL     1      47.507   6.003  13.893  0.00  0.00    +0.000 A 
ATOM     22  N   UNL     1      46.972   6.504  12.752  0.00  0.00    +0.000 NA
ATOM     23  C   UNL     1      45.915   5.815  12.251  0.00  0.00    +0.000 A 
ATOM     24  C   UNL     1      45.452   4.656  12.863  0.00  0.00    +0.000 A 
ATOM     25  N   UNL     1      45.990   4.153  13.997  0.00  0.00    +0.000 NA
BRANCH  23  26
ATOM     26  C   UNL     1      45.282   6.305  10.966  0.00  0.00    +0.000 C 
BRANCH  26  27
ATOM     27  N   UNL     1      44.717   5.236  10.125  0.00  0.00    +0.000 NA
ATOM     28  H   UNL     1      43.902   5.630   9.648  0.00  0.00    +0.000 HD
BRANCH  27  29
ATOM     29  C   UNL     1      45.675   4.787   9.102  0.00  0.00    +0.000 C 
BRANCH  29  30
ATOM     30  C   UNL     1      44.982   3.873   8.063  0.00  0.00    +0.000 C 
ATOM     31  C   UNL     1      45.972   3.225   7.111  0.00  0.00    +0.000 C 
ATOM     32  C   UNL     1      46.478   2.029   7.893  0.00  0.00    +0.000 C 
ATOM     33  C   UNL     1      45.330   1.662   8.822  0.00  0.00    +0.000 C 
ATOM     34  N   UNL     1      44.322   2.718   8.692  0.00  0.00    +0.000 NA
ATOM     35  H   UNL     1      43.980   3.008   9.612  0.00  0.00    +0.000 HD
ENDBRANCH  29  30
ENDBRANCH  27  29
ENDBRANCH  26  27
ENDBRANCH  23  26
ENDBRANCH  19  20
ENDBRANCH   1  19
TORSDOF 10
ENDMDL
MODEL 9
REMARK VINA RESULT:    -6.554      2.488      3.607
REMARK INTER + INTRA:         -10.997
REMARK INTER:                 -10.452
REMARK INTRA:                  -0.545
REMARK UNBOUND:                -0.803
REMARK  Name = 
REMARK  10 active torsions:
REMARK  status: ('A' for Active; 'I' for Inactive)
REMARK    1  A    between atoms: N_1  and  C_2
REMARK    2  A    between atoms: C_2  and  C_3
REMARK    3  A    between atoms: C_3  and  N_4
REMARK    4  A    between atoms: C_3  and  C_20
REMARK    5  A    between atoms: N_4  and  C_5
REMARK    6  A    between atoms: C_5  and  C_6
REMARK    7  A    between atoms: C_9  and  C_10
REMARK    8  A    between atoms: C_10  and  N_11
REMARK    9  A    between atoms: N_11  and  C_12
REMARK   10  A    between atoms: C_12  and  C_13
REMARK                            x       y       z     vdW  Elec       q    Type
REMARK                         _______ _______ _______ _____ _____    ______ ____
ROOT
ATOM      1  N   UNL     1      49.043   6.632  14.686  0.00  0.00    +0.000 NA
ATOM      2  H   UNL     1      48.470   6.100  15.339  0.00  0.00    +0.000 HD
ENDROOT
BRANCH   1   3
ATOM      3  C   UNL     1      49.730   7.681  15.469  0.00  0.00    +0.000 C 
BRANCH   3   4
ATOM      4  C   UNL     1      49.038   7.705  16.831  0.00  0.00    +0.000 A 
ATOM      5  C   UNL     1      48.385   8.818  17.350  0.00  0.00    +0.000 A 
ATOM      6  S   UNL     1      47.698   8.562  18.885  0.00  0.00    +0.000 S 
ATOM      7  C   UNL     1      48.202   6.937  18.896  0.00  0.00    +0.000 A 
ATOM      8  N   UNL     1      47.889   6.116  19.936  0.00  0.00    +0.000 NA
ATOM      9  C   UNL     1      48.297   4.903  19.793  0.00  0.00    +0.000 A 
ATOM     10  N   UNL     1      49.016   4.433  18.720  0.00  0.00    +0.000 N 
ATOM     11  C   UNL     1      49.404   5.240  17.669  0.00  0.00    +0.000 A 
ATOM     12  O   UNL     1      50.107   4.819  16.758  0.00  0.00    +0.000 OA
ATOM     13  C   UNL     1      48.919   6.606  17.761  0.00  0.00    +0.000 A 
ATOM     14  H   UNL     1      49.316   3.475  18.683  0.00  0.00    +0.000 HD
ENDBRANCH   3   4
BRANCH   3  15
ATOM     15  C   UNL     1      51.273   7.470  15.623  0.00  0.00    +0.000 C 
BRANCH  15  16
ATOM     16  N   UNL     1      52.055   7.685  14.398  0.00  0.00    +0.000 NA
ATOM     17  H   UNL     1      53.002   7.971  14.635  0.00  0.00    +0.000 HD
ATOM     18  H   UNL     1      51.628   8.444  13.867  0.00  0.00    +0.000 HD
ENDBRANCH  15  16
ENDBRANCH   3  15
ENDBRANCH   1   3
BRANCH   1  19
ATOM     19  C   UNL     1      48.201   7.132  13.599  0.00  0.00    +0.000 C 
BRANCH  19  20
ATOM     20  C   UNL     1      46.993   6.240  13.370  0.00  0.00    +0.000 A 
ATOM     21  C   UNL     1      46.948   4.945  13.882  0.00  0.00    +0.000 A 
ATOM     22  N   UNL     1      45.916   4.094  13.663  0.00  0.00    +0.000 NA
ATOM     23  C   UNL     1      44.909   4.582  12.894  0.00  0.00    +0.000 A 
ATOM     24  C   UNL     1      44.939   5.882  12.404  0.00  0.00    +0.000 A 
ATOM     25  N   UNL     1      45.966   6.733  12.629  0.00  0.00    +0.000 NA
BRANCH  23  26
ATOM     26  C   UNL     1      43.713   3.693  12.626  0.00  0.00    +0.000 C 
BRANCH  26  27
ATOM     27  N   UNL     1      43.984   2.576  11.707  0.00  0.00    +0.000 NA
ATOM     28  H   UNL     1      43.088   2.307  11.290  0.00  0.00    +0.000 HD
BRANCH  27  29
ATOM     29  C   UNL     1      44.895   2.973  10.622  0.00  0.00    +0.000 C 
BRANCH  29  30
ATOM     30  C   UNL     1      44.425   2.390   9.267  0.00  0.00    +0.000 C 
ATOM     31  C   UNL     1      44.558   3.388   8.130  0.00  0.00    +0.000 C 
ATOM     32  C   UNL     1      46.015   3.268   7.728  0.00  0.00    +0.000 C 
ATOM     33  C   UNL     1      46.398   1.840   8.088  0.00  0.00    +0.000 C 
ATOM     34  N   UNL     1      45.267   1.267   8.824  0.00  0.00    +0.000 NA
ATOM     35  H   UNL     1      45.592   0.765   9.653  0.00  0.00    +0.000 HD
ENDBRANCH  29  30
ENDBRANCH  27  29
ENDBRANCH  26  27
ENDBRANCH  23  26
ENDBRANCH  19  20
ENDBRANCH   1  19
TORSDOF 10
ENDMDL
