MODEL 1
REMARK VINA RESULT:    -8.017      0.000      0.000
REMARK INTER + INTRA:         -10.542
REMARK INTER:                 -10.126
REMARK INTRA:                  -0.416
REMARK UNBOUND:                -0.416
REMARK  Name = 
REMARK  5 active torsions:
REMARK  status: ('A' for Active; 'I' for Inactive)
REMARK    1  A    between atoms: N_1  and  C_2
REMARK    2  A    between atoms: C_2  and  C_3
REMARK    3  A    between atoms: C_6  and  C_7
REMARK    4  A    between atoms: C_7  and  N_8
REMARK    5  A    between atoms: C_12  and  C_13
REMARK                            x       y       z     vdW  Elec       q    Type
REMARK                         _______ _______ _______ _____ _____    ______ ____
ROOT
ATOM      1  N   UNL     1      43.784   4.932   9.573  0.00  0.00    +0.000 N 
ATOM      2  C   UNL     1      44.629   3.951   9.102  0.00  0.00    +0.000 A 
ATOM      3  C   UNL     1      44.712   2.649   9.612  0.00  0.00    +0.000 A 
ATOM      4  N   UNL     1      45.503   1.669   9.094  0.00  0.00    +0.000 NA
ATOM      5  C   UNL     1      46.209   2.046   7.993  0.00  0.00    +0.000 A 
ATOM      6  C   UNL     1      46.134   3.325   7.469  0.00  0.00    +0.000 A 
ATOM      7  N   UNL     1      45.356   4.295   8.018  0.00  0.00    +0.000 NA
ATOM      8  H   UNL     1      44.042   5.819   9.148  0.00  0.00    +0.000 HD
ENDROOT
BRANCH   5   9
ATOM      9  C   UNL     1      47.073   1.025   7.341  0.00  0.00    +0.000 C 
ATOM     10  N   UNL     1      46.775  -0.281   7.620  0.00  0.00    +0.000 N 
ATOM     11  O   UNL     1      47.997   1.331   6.598  0.00  0.00    +0.000 OA
ATOM     12  H   UNL     1      45.995  -0.504   8.229  0.00  0.00    +0.000 HD
ATOM     13  H   UNL     1      47.317  -1.017   7.193  0.00  0.00    +0.000 HD
ENDBRANCH   5   9
BRANCH   1  14
ATOM     14  C   UNL     1      43.398   4.991  10.969  0.00  0.00    +0.000 C 
BRANCH  14  18
ATOM     15  C   UNL     1      46.848   6.158  13.339  0.00  0.00    +0.000 A 
ATOM     16  C   UNL     1      46.114   5.015  13.677  0.00  0.00    +0.000 A 
ATOM     17  C   UNL     1      44.990   4.640  12.936  0.00  0.00    +0.000 A 
ATOM     18  C   UNL     1      44.552   5.418  11.854  0.00  0.00    +0.000 A 
ATOM     19  C   UNL     1      45.282   6.571  11.525  0.00  0.00    +0.000 A 
ATOM     20  C   UNL     1      46.414   6.939  12.260  0.00  0.00    +0.000 A 
BRANCH  15  21
ATOM     21  C   UNL     1      48.086   6.529  14.116  0.00  0.00    +0.000 C 
BRANCH  21  22
ATOM     22  N   UNL     1      49.263   6.565  13.254  0.00  0.00    +0.000 NA
ATOM     23  H   UNL     1      49.088   7.190  12.471  0.00  0.00    +0.000 HD
ATOM     24  H   UNL     1      49.408   5.637  12.859  0.00  0.00    +0.000 HD
ENDBRANCH  21  22
ENDBRANCH  15  21
ENDBRANCH  14  18
ENDBRANCH   1  14
TORSDOF 5
ENDMDL
MODEL 2
REMARK VINA RESULT:    -7.965      2.957      6.531
REMARK INTER + INTRA:         -10.477
REMARK INTER:                 -10.064
REMARK INTRA:                  -0.413
REMARK UNBOUND:                -0.416
REMARK  Name = 
REMARK  5 active torsions:
REMARK  status: ('A' for Active; 'I' for Inactive)
REMARK    1  A    between atoms: N_1  and  C_2
REMARK    2  A    between atoms: C_2  and  C_3
REMARK    3  A    between atoms: C_6  and  C_7
REMARK    4  A    between atoms: C_7  and  N_8
REMARK    5  A    between atoms: C_12  and  C_13
REMARK                            x       y       z     vdW  Elec       q    Type
REMARK                         _______ _______ _______ _____ _____    ______ ____
ROOT
ATOM      1  N   UNL     1      44.464   2.945  11.914  0.00  0.00    +0.000 N 
ATOM      2  C   UNL     1      45.360   3.809  12.504  0.00  0.00    +0.000 A 
ATOM      3  C   UNL     1      45.333   5.204  12.378  0.00  0.00    +0.000 A 
ATOM      4  N   UNL     1      46.184   6.050  13.021  0.00  0.00    +0.000 NA
ATOM      5  C   UNL     1      47.072   5.430  13.844  0.00  0.00    +0.000 A 
ATOM      6  C   UNL     1      47.110   4.053  13.989  0.00  0.00    +0.000 A 
ATOM      7  N   UNL     1      46.265   3.226  13.317  0.00  0.00    +0.000 NA
ATOM      8  H   UNL     1      44.805   1.993  12.024  0.00  0.00    +0.000 HD
ENDROOT
BRANCH   5   9
ATOM      9  C   UNL     1      48.018   6.283  14.614  0.00  0.00    +0.000 C 
ATOM     10  N   UNL     1      47.811   7.633  14.532  0.00  0.00    +0.000 N 
ATOM     11  O   UNL     1      48.927   5.810  15.283  0.00  0.00    +0.000 OA
ATOM     12  H   UNL     1      47.040   7.996  13.981  0.00  0.00    +0.000 HD
ATOM     13  H   UNL     1      48.410   8.261  15.046  0.00  0.00    +0.000 HD
ENDBRANCH   5   9
BRANCH   1  14
ATOM     14  C   UNL     1      43.849   3.250  10.638  0.00  0.00    +0.000 C 
BRANCH  14  18
ATOM     15  C   UNL     1      46.463   2.785   7.198  0.00  0.00    +0.000 A 
ATOM     16  C   UNL     1      46.075   1.666   7.946  0.00  0.00    +0.000 A 
ATOM     17  C   UNL     1      45.252   1.805   9.068  0.00  0.00    +0.000 A 
ATOM     18  C   UNL     1      44.819   3.071   9.488  0.00  0.00    +0.000 A 
ATOM     19  C   UNL     1      45.221   4.192   8.745  0.00  0.00    +0.000 A 
ATOM     20  C   UNL     1      46.035   4.052   7.616  0.00  0.00    +0.000 A 
BRANCH  15  21
ATOM     21  C   UNL     1      47.314   2.622   5.964  0.00  0.00    +0.000 C 
BRANCH  21  22
ATOM     22  N   UNL     1      48.501   1.821   6.242  0.00  0.00    +0.000 NA
ATOM     23  H   UNL     1      49.145   1.888   5.457  0.00  0.00    +0.000 HD
ATOM     24  H   UNL     1      48.228   0.842   6.311  0.00  0.00    +0.000 HD
ENDBRANCH  21  22
ENDBRANCH  15  21
ENDBRANCH  14  18
ENDBRANCH   1  14
TORSDOF 5
ENDMDL
MODEL 3
REMARK VINA RESULT:    -7.679      3.081      6.794
REMARK INTER + INTRA:         -10.115
REMARK INTER:                  -9.816
REMARK INTRA:                  -0.299
REMARK UNBOUND:                -0.416
REMARK  Name = 
REMARK  5 active torsions:
REMARK  status: ('A' for Active; 'I' for Inactive)
REMARK    1  A    between atoms: N_1  and  C_2
REMARK    2  A    between atoms: C_2  and  C_3
REMARK    3  A    between atoms: C_6  and  C_7
REMARK    4  A    between atoms: C_7  and  N_8
REMARK    5  A    between atoms: C_12  and  C_13
REMARK                            x       y       z     vdW  Elec       q    Type
REMARK                         _______ _______ _______ _____ _____    ______ ____
ROOT
ATOM      1  N   UNL     1      44.919   3.237  11.602  0.00  0.00    +0.000 N 
ATOM      2  C   UNL     1      45.090   4.579  11.864  0.00  0.00    +0.000 A 
ATOM      3  C   UNL     1      44.157   5.581  11.569  0.00  0.00    +0.000 A 
ATOM      4  N   UNL     1      44.310   6.893  11.895  0.00  0.00    +0.000 NA
ATOM      5  C   UNL     1      45.456   7.170  12.574  0.00  0.00    +0.000 A 
ATOM      6  C   UNL     1      46.387   6.193  12.884  0.00  0.00    +0.000 A 
ATOM      7  N   UNL     1      46.224   4.891  12.526  0.00  0.00    +0.000 NA
ATOM      8  H   UNL     1      45.803   2.757  11.755  0.00  0.00    +0.000 HD
ENDROOT
BRANCH   5   9
ATOM      9  C   UNL     1      45.688   8.577  13.001  0.00  0.00    +0.000 C 
ATOM     10  N   UNL     1      46.655   8.765  13.951  0.00  0.00    +0.000 N 
ATOM     11  O   UNL     1      45.055   9.513  12.532  0.00  0.00    +0.000 OA
ATOM     12  H   UNL     1      47.173   7.970  14.311  0.00  0.00    +0.000 HD
ATOM     13  H   UNL     1      46.867   9.699  14.267  0.00  0.00    +0.000 HD
ENDBRANCH   5   9
BRANCH   1  14
ATOM     14  C   UNL     1      44.144   2.783  10.465  0.00  0.00    +0.000 C 
BRANCH  14  18
ATOM     15  C   UNL     1      46.674   2.784   6.932  0.00  0.00    +0.000 A 
ATOM     16  C   UNL     1      46.017   3.955   7.330  0.00  0.00    +0.000 A 
ATOM     17  C   UNL     1      45.184   3.962   8.452  0.00  0.00    +0.000 A 
ATOM     18  C   UNL     1      44.962   2.789   9.188  0.00  0.00    +0.000 A 
ATOM     19  C   UNL     1      45.611   1.615   8.779  0.00  0.00    +0.000 A 
ATOM     20  C   UNL     1      46.454   1.610   7.663  0.00  0.00    +0.000 A 
BRANCH  15  21
ATOM     21  C   UNL     1      47.607   2.796   5.747  0.00  0.00    +0.000 C 
BRANCH  21  22
ATOM     22  N   UNL     1      48.533   1.669   5.790  0.00  0.00    +0.000 NA
ATOM     23  H   UNL     1      48.107   0.865   5.336  0.00  0.00    +0.000 HD
ATOM     24  H   UNL     1      48.687   1.408   6.763  0.00  0.00    +0.000 HD
ENDBRANCH  21  22
ENDBRANCH  15  21
ENDBRANCH  14  18
ENDBRANCH   1  14
TORSDOF 5
ENDMDL
MODEL 4
REMARK VINA RESULT:    -7.621      3.040      6.618
REMARK INTER + INTRA:         -10.041
REMARK INTER:                  -9.728
REMARK INTRA:                  -0.314
REMARK UNBOUND:                -0.416
REMARK  Name = 
REMARK  5 active torsions:
REMARK  status: ('A' for Active; 'I' for Inactive)
REMARK    1  A    between atoms: N_1  and  C_2
REMARK    2  A    between atoms: C_2  and  C_3
REMARK    3  A    between atoms: C_6  and  C_7
REMARK    4  A    between atoms: C_7  and  N_8
REMARK    5  A    between atoms: C_12  and  C_13
REMARK                            x       y       z     vdW  Elec       q    Type
REMARK                         _______ _______ _______ _____ _____    ______ ____
ROOT
ATOM      1  N   UNL     1      44.968   5.284  10.726  0.00  0.00    +0.000 N 
ATOM      2  C   UNL     1      45.479   4.982  11.970  0.00  0.00    +0.000 A 
ATOM      3  C   UNL     1      45.892   3.709  12.382  0.00  0.00    +0.000 A 
ATOM      4  N   UNL     1      46.458   3.439  13.590  0.00  0.00    +0.000 NA
ATOM      5  C   UNL     1      46.627   4.530  14.385  0.00  0.00    +0.000 A 
ATOM      6  C   UNL     1      46.233   5.798  13.992  0.00  0.00    +0.000 A 
ATOM      7  N   UNL     1      45.647   6.041  12.790  0.00  0.00    +0.000 NA
ATOM      8  H   UNL     1      44.593   6.229  10.746  0.00  0.00    +0.000 HD
ENDROOT
BRANCH   5   9
ATOM      9  C   UNL     1      47.271   4.330  15.711  0.00  0.00    +0.000 C 
ATOM     10  N   UNL     1      47.915   5.418  16.236  0.00  0.00    +0.000 N 
ATOM     11  O   UNL     1      47.230   3.259  16.302  0.00  0.00    +0.000 OA
ATOM     12  H   UNL     1      47.921   6.297  15.729  0.00  0.00    +0.000 HD
ATOM     13  H   UNL     1      48.357   5.347  17.140  0.00  0.00    +0.000 HD
ENDBRANCH   5   9
BRANCH   1  14
ATOM     14  C   UNL     1      44.197   4.315   9.972  0.00  0.00    +0.000 C 
BRANCH  14  18
ATOM     15  C   UNL     1      46.816   2.109   7.297  0.00  0.00    +0.000 A 
ATOM     16  C   UNL     1      46.682   3.497   7.167  0.00  0.00    +0.000 A 
ATOM     17  C   UNL     1      45.826   4.216   8.008  0.00  0.00    +0.000 A 
ATOM     18  C   UNL     1      45.059   3.559   8.981  0.00  0.00    +0.000 A 
ATOM     19  C   UNL     1      45.185   2.167   9.099  0.00  0.00    +0.000 A 
ATOM     20  C   UNL     1      46.050   1.449   8.266  0.00  0.00    +0.000 A 
BRANCH  15  21
ATOM     21  C   UNL     1      47.775   1.349   6.416  0.00  0.00    +0.000 C 
BRANCH  21  22
ATOM     22  N   UNL     1      48.408   2.228   5.439  0.00  0.00    +0.000 NA
ATOM     23  H   UNL     1      49.379   2.380   5.701  0.00  0.00    +0.000 HD
ATOM     24  H   UNL     1      47.952   3.139   5.473  0.00  0.00    +0.000 HD
ENDBRANCH  21  22
ENDBRANCH  15  21
ENDBRANCH  14  18
ENDBRANCH   1  14
TORSDOF 5
ENDMDL
MODEL 5
REMARK VINA RESULT:    -7.529      2.887      6.665
REMARK INTER + INTRA:          -9.925
REMARK INTER:                  -9.673
REMARK INTRA:                  -0.252
REMARK UNBOUND:                -0.416
REMARK  Name = 
REMARK  5 active torsions:
REMARK  status: ('A' for Active; 'I' for Inactive)
REMARK    1  A    between atoms: N_1  and  C_2
REMARK    2  A    between atoms: C_2  and  C_3
REMARK    3  A    between atoms: C_6  and  C_7
REMARK    4  A    between atoms: C_7  and  N_8
REMARK    5  A    between atoms: C_12  and  C_13
REMARK                            x       y       z     vdW  Elec       q    Type
REMARK                         _______ _______ _______ _____ _____    ______ ____
ROOT
ATOM      1  N   UNL     1      44.117   5.735  10.415  0.00  0.00    +0.000 N 
ATOM      2  C   UNL     1      45.003   6.176  11.374  0.00  0.00    +0.000 A 
ATOM      3  C   UNL     1      46.096   5.445  11.856  0.00  0.00    +0.000 A 
ATOM      4  N   UNL     1      47.002   5.919  12.753  0.00  0.00    +0.000 NA
ATOM      5  C   UNL     1      46.783   7.205  13.142  0.00  0.00    +0.000 A 
ATOM      6  C   UNL     1      45.713   7.948  12.671  0.00  0.00    +0.000 A 
ATOM      7  N   UNL     1      44.806   7.444  11.792  0.00  0.00    +0.000 NA
ATOM      8  H   UNL     1      43.330   6.379  10.373  0.00  0.00    +0.000 HD
ENDROOT
BRANCH   5   9
ATOM      9  C   UNL     1      47.747   7.815  14.096  0.00  0.00    +0.000 C 
ATOM     10  N   UNL     1      47.340   8.971  14.705  0.00  0.00    +0.000 N 
ATOM     11  O   UNL     1      48.841   7.317  14.327  0.00  0.00    +0.000 OA
ATOM     12  H   UNL     1      46.422   9.353  14.504  0.00  0.00    +0.000 HD
ATOM     13  H   UNL     1      47.945   9.422  15.374  0.00  0.00    +0.000 HD
ENDBRANCH   5   9
BRANCH   1  14
ATOM     14  C   UNL     1      43.788   4.330  10.281  0.00  0.00    +0.000 C 
BRANCH  14  18
ATOM     15  C   UNL     1      46.516   2.303   7.573  0.00  0.00    +0.000 A 
ATOM     16  C   UNL     1      46.316   3.685   7.470  0.00  0.00    +0.000 A 
ATOM     17  C   UNL     1      45.425   4.346   8.321  0.00  0.00    +0.000 A 
ATOM     18  C   UNL     1      44.687   3.635   9.278  0.00  0.00    +0.000 A 
ATOM     19  C   UNL     1      44.879   2.248   9.370  0.00  0.00    +0.000 A 
ATOM     20  C   UNL     1      45.779   1.588   8.526  0.00  0.00    +0.000 A 
BRANCH  15  21
ATOM     21  C   UNL     1      47.512   1.606   6.681  0.00  0.00    +0.000 C 
BRANCH  21  22
ATOM     22  N   UNL     1      48.603   2.500   6.306  0.00  0.00    +0.000 NA
ATOM     23  H   UNL     1      49.398   2.336   6.918  0.00  0.00    +0.000 HD
ATOM     24  H   UNL     1      48.307   3.462   6.463  0.00  0.00    +0.000 HD
ENDBRANCH  21  22
ENDBRANCH  15  21
ENDBRANCH  14  18
ENDBRANCH   1  14
TORSDOF 5
ENDMDL
MODEL 6
REMARK VINA RESULT:    -7.116      1.952      2.459
REMARK INTER + INTRA:          -9.403
REMARK INTER:                  -9.231
REMARK INTRA:                  -0.172
REMARK UNBOUND:                -0.416
REMARK  Name = 
REMARK  5 active torsions:
REMARK  status: ('A' for Active; 'I' for Inactive)
REMARK    1  A    between atoms: N_1  and  C_2
REMARK    2  A    between atoms: C_2  and  C_3
REMARK    3  A    between atoms: C_6  and  C_7
REMARK    4  A    between atoms: C_7  and  N_8
REMARK    5  A    between atoms: C_12  and  C_13
REMARK                            x       y       z     vdW  Elec       q    Type
REMARK                         _______ _______ _______ _____ _____    ______ ____
ROOT
ATOM      1  N   UNL     1      44.402   2.618  10.744  0.00  0.00    +0.000 N 
ATOM      2  C   UNL     1      45.070   2.701   9.542  0.00  0.00    +0.000 A 
ATOM      3  C   UNL     1      45.344   3.890   8.854  0.00  0.00    +0.000 A 
ATOM      4  N   UNL     1      46.065   3.963   7.702  0.00  0.00    +0.000 NA
ATOM      5  C   UNL     1      46.540   2.766   7.263  0.00  0.00    +0.000 A 
ATOM      6  C   UNL     1      46.288   1.580   7.933  0.00  0.00    +0.000 A 
ATOM      7  N   UNL     1      45.545   1.529   9.070  0.00  0.00    +0.000 NA
ATOM      8  H   UNL     1      44.190   1.642  10.935  0.00  0.00    +0.000 HD
ENDROOT
BRANCH   5   9
ATOM      9  C   UNL     1      47.369   2.759   6.027  0.00  0.00    +0.000 C 
ATOM     10  N   UNL     1      48.703   2.511   6.200  0.00  0.00    +0.000 N 
ATOM     11  O   UNL     1      46.889   2.960   4.919  0.00  0.00    +0.000 OA
ATOM     12  H   UNL     1      49.070   2.333   7.130  0.00  0.00    +0.000 HD
ATOM     13  H   UNL     1      49.312   2.477   5.397  0.00  0.00    +0.000 HD
ENDBRANCH   5   9
BRANCH   1  14
ATOM     14  C   UNL     1      43.368   3.569  11.100  0.00  0.00    +0.000 C 
BRANCH  14  18
ATOM     15  C   UNL     1      45.154   7.260  12.538  0.00  0.00    +0.000 A 
ATOM     16  C   UNL     1      45.536   6.030  13.088  0.00  0.00    +0.000 A 
ATOM     17  C   UNL     1      44.953   4.838  12.650  0.00  0.00    +0.000 A 
ATOM     18  C   UNL     1      43.951   4.847  11.668  0.00  0.00    +0.000 A 
ATOM     19  C   UNL     1      43.561   6.082  11.128  0.00  0.00    +0.000 A 
ATOM     20  C   UNL     1      44.152   7.275  11.559  0.00  0.00    +0.000 A 
BRANCH  15  21
ATOM     21  C   UNL     1      45.820   8.537  12.985  0.00  0.00    +0.000 C 
BRANCH  21  22
ATOM     22  N   UNL     1      44.930   9.682  12.828  0.00  0.00    +0.000 NA
ATOM     23  H   UNL     1      43.982   9.408  13.074  0.00  0.00    +0.000 HD
ATOM     24  H   UNL     1      44.910   9.950  11.845  0.00  0.00    +0.000 HD
ENDBRANCH  21  22
ENDBRANCH  15  21
ENDBRANCH  14  18
ENDBRANCH   1  14
TORSDOF 5
ENDMDL
MODEL 7
REMARK VINA RESULT:    -6.683      1.679      2.355
REMARK INTER + INTRA:          -8.857
REMARK INTER:                  -8.635
REMARK INTRA:                  -0.222
REMARK UNBOUND:                -0.416
REMARK  Name = 
REMARK  5 active torsions:
REMARK  status: ('A' for Active; 'I' for Inactive)
REMARK    1  A    between atoms: N_1  and  C_2
REMARK    2  A    between atoms: C_2  and  C_3
REMARK    3  A    between atoms: C_6  and  C_7
REMARK    4  A    between atoms: C_7  and  N_8
REMARK    5  A    between atoms: C_12  and  C_13
REMARK                            x       y       z     vdW  Elec       q    Type
REMARK                         _______ _______ _______ _____ _____    ______ ____
ROOT
ATOM      1  N   UNL     1      44.322   4.043  10.869  0.00  0.00    +0.000 N 
ATOM      2  C   UNL     1      44.987   3.681   9.717  0.00  0.00    +0.000 A 
ATOM      3  C   UNL     1      45.677   4.564   8.877  0.00  0.00    +0.000 A 
ATOM      4  N   UNL     1      46.387   4.183   7.779  0.00  0.00    +0.000 NA
ATOM      5  C   UNL     1      46.403   2.839   7.564  0.00  0.00    +0.000 A 
ATOM      6  C   UNL     1      45.734   1.950   8.387  0.00  0.00    +0.000 A 
ATOM      7  N   UNL     1      45.011   2.356   9.465  0.00  0.00    +0.000 NA
ATOM      8  H   UNL     1      43.770   3.252  11.192  0.00  0.00    +0.000 HD
ENDROOT
BRANCH   5   9
ATOM      9  C   UNL     1      47.185   2.333   6.404  0.00  0.00    +0.000 C 
ATOM     10  N   UNL     1      47.161   3.109   5.277  0.00  0.00    +0.000 N 
ATOM     11  O   UNL     1      47.815   1.284   6.449  0.00  0.00    +0.000 OA
ATOM     12  H   UNL     1      46.642   3.981   5.274  0.00  0.00    +0.000 HD
ATOM     13  H   UNL     1      47.686   2.825   4.465  0.00  0.00    +0.000 HD
ENDBRANCH   5   9
BRANCH   1  14
ATOM     14  C   UNL     1      43.696   5.344  11.002  0.00  0.00    +0.000 C 
BRANCH  14  18
ATOM     15  C   UNL     1      46.347   8.262  12.830  0.00  0.00    +0.000 A 
ATOM     16  C   UNL     1      45.331   8.679  11.960  0.00  0.00    +0.000 A 
ATOM     17  C   UNL     1      44.485   7.748  11.349  0.00  0.00    +0.000 A 
ATOM     18  C   UNL     1      44.654   6.373  11.569  0.00  0.00    +0.000 A 
ATOM     19  C   UNL     1      45.681   5.958  12.430  0.00  0.00    +0.000 A 
ATOM     20  C   UNL     1      46.520   6.890  13.050  0.00  0.00    +0.000 A 
BRANCH  15  21
ATOM     21  C   UNL     1      47.226   9.276  13.519  0.00  0.00    +0.000 C 
BRANCH  21  22
ATOM     22  N   UNL     1      47.349   8.987  14.944  0.00  0.00    +0.000 NA
ATOM     23  H   UNL     1      47.333   9.860  15.467  0.00  0.00    +0.000 HD
ATOM     24  H   UNL     1      48.258   8.561  15.116  0.00  0.00    +0.000 HD
ENDBRANCH  21  22
ENDBRANCH  15  21
ENDBRANCH  14  18
ENDBRANCH   1  14
TORSDOF 5
ENDMDL
MODEL 8
REMARK VINA RESULT:    -6.262      3.659      6.826
REMARK INTER + INTRA:          -8.325
REMARK INTER:                  -8.010
REMARK INTRA:                  -0.314
REMARK UNBOUND:                -0.416
REMARK  Name = 
REMARK  5 active torsions:
REMARK  status: ('A' for Active; 'I' for Inactive)
REMARK    1  A    between atoms: N_1  and  C_2
REMARK    2  A    between atoms: C_2  and  C_3
REMARK    3  A    between atoms: C_6  and  C_7
REMARK    4  A    between atoms: C_7  and  N_8
REMARK    5  A    between atoms: C_12  and  C_13
REMARK                            x       y       z     vdW  Elec       q    Type
REMARK                         _______ _______ _______ _____ _____    ______ ____
ROOT
ATOM      1  N   UNL     1      46.372   5.829  13.782  0.00  0.00    +0.000 N 
ATOM      2  C   UNL     1      47.063   4.986  14.624  0.00  0.00    +0.000 A 
ATOM      3  C   UNL     1      47.053   3.587  14.548  0.00  0.00    +0.000 A 
ATOM      4  N   UNL     1      47.794   2.769  15.344  0.00  0.00    +0.000 NA
ATOM      5  C   UNL     1      48.594   3.424  16.229  0.00  0.00    +0.000 A 
ATOM      6  C   UNL     1      48.625   4.806  16.314  0.00  0.00    +0.000 A 
ATOM      7  N   UNL     1      47.857   5.603  15.524  0.00  0.00    +0.000 NA
ATOM      8  H   UNL     1      46.414   6.774  14.156  0.00  0.00    +0.000 HD
ENDROOT
BRANCH   5   9
ATOM      9  C   UNL     1      49.465   2.606  17.115  0.00  0.00    +0.000 C 
ATOM     10  N   UNL     1      49.365   2.860  18.456  0.00  0.00    +0.000 N 
ATOM     11  O   UNL     1      50.226   1.755  16.676  0.00  0.00    +0.000 OA
ATOM     12  H   UNL     1      48.715   3.562  18.792  0.00  0.00    +0.000 HD
ATOM     13  H   UNL     1      49.920   2.325  19.107  0.00  0.00    +0.000 HD
ENDBRANCH   5   9
BRANCH   1  14
ATOM     14  C   UNL     1      45.105   5.439  13.197  0.00  0.00    +0.000 C 
BRANCH  14  18
ATOM     15  C   UNL     1      45.413   4.094   9.077  0.00  0.00    +0.000 A 
ATOM     16  C   UNL     1      44.940   3.226  10.069  0.00  0.00    +0.000 A 
ATOM     17  C   UNL     1      44.856   3.639  11.402  0.00  0.00    +0.000 A 
ATOM     18  C   UNL     1      45.273   4.924  11.782  0.00  0.00    +0.000 A 
ATOM     19  C   UNL     1      45.758   5.787  10.788  0.00  0.00    +0.000 A 
ATOM     20  C   UNL     1      45.831   5.377   9.452  0.00  0.00    +0.000 A 
BRANCH  15  21
ATOM     21  C   UNL     1      45.457   3.654   7.635  0.00  0.00    +0.000 C 
BRANCH  21  22
ATOM     22  N   UNL     1      46.671   4.124   6.975  0.00  0.00    +0.000 NA
ATOM     23  H   UNL     1      47.100   3.352   6.470  0.00  0.00    +0.000 HD
ATOM     24  H   UNL     1      47.339   4.415   7.686  0.00  0.00    +0.000 HD
ENDBRANCH  21  22
ENDBRANCH  15  21
ENDBRANCH  14  18
ENDBRANCH   1  14
TORSDOF 5
ENDMDL
MODEL 9
REMARK VINA RESULT:    -6.194      4.479      6.330
REMARK INTER + INTRA:          -8.239
REMARK INTER:                  -7.997
REMARK INTRA:                  -0.242
REMARK UNBOUND:                -0.416
REMARK  Name = 
REMARK  5 active torsions:
REMARK  status: ('A' for Active; 'I' for Inactive)
REMARK    1  A    between atoms: N_1  and  C_2
REMARK    2  A    between atoms: C_2  and  C_3
REMARK    3  A    between atoms: C_6  and  C_7
REMARK    4  A    between atoms: C_7  and  N_8
REMARK    5  A    between atoms: C_12  and  C_13
REMARK                            x       y       z     vdW  Elec       q    Type
REMARK                         _______ _______ _______ _____ _____    ______ ____
ROOT
ATOM      1  N   UNL     1      47.213   3.555  14.752  0.00  0.00    +0.000 N 
ATOM      2  C   UNL     1      46.298   3.980  13.814  0.00  0.00    +0.000 A 
ATOM      3  C   UNL     1      45.865   5.303  13.655  0.00  0.00    +0.000 A 
ATOM      4  N   UNL     1      45.012   5.720  12.679  0.00  0.00    +0.000 NA
ATOM      5  C   UNL     1      44.617   4.737  11.825  0.00  0.00    +0.000 A 
ATOM      6  C   UNL     1      45.041   3.426  11.959  0.00  0.00    +0.000 A 
ATOM      7  N   UNL     1      45.875   3.027  12.957  0.00  0.00    +0.000 NA
ATOM      8  H   UNL     1      47.220   2.538  14.766  0.00  0.00    +0.000 HD
ENDROOT
BRANCH   5   9
ATOM      9  C   UNL     1      43.711   5.113  10.706  0.00  0.00    +0.000 C 
ATOM     10  N   UNL     1      44.137   4.778   9.449  0.00  0.00    +0.000 N 
ATOM     11  O   UNL     1      42.646   5.687  10.894  0.00  0.00    +0.000 OA
ATOM     12  H   UNL     1      45.018   4.290   9.326  0.00  0.00    +0.000 HD
ATOM     13  H   UNL     1      43.556   4.992   8.653  0.00  0.00    +0.000 HD
ENDBRANCH   5   9
BRANCH   1  14
ATOM     14  C   UNL     1      47.327   4.204  16.043  0.00  0.00    +0.000 C 
BRANCH  14  18
ATOM     15  C   UNL     1      51.186   3.305  17.827  0.00  0.00    +0.000 A 
ATOM     16  C   UNL     1      50.338   2.267  17.421  0.00  0.00    +0.000 A 
ATOM     17  C   UNL     1      49.084   2.543  16.866  0.00  0.00    +0.000 A 
ATOM     18  C   UNL     1      48.635   3.865  16.730  0.00  0.00    +0.000 A 
ATOM     19  C   UNL     1      49.482   4.902  17.150  0.00  0.00    +0.000 A 
ATOM     20  C   UNL     1      50.740   4.626  17.695  0.00  0.00    +0.000 A 
BRANCH  15  21
ATOM     21  C   UNL     1      52.554   3.000  18.384  0.00  0.00    +0.000 C 
BRANCH  21  22
ATOM     22  N   UNL     1      52.802   1.562  18.420  0.00  0.00    +0.000 NA
ATOM     23  H   UNL     1      53.215   1.269  17.538  0.00  0.00    +0.000 HD
ATOM     24  H   UNL     1      51.910   1.077  18.500  0.00  0.00    +0.000 HD
ENDBRANCH  21  22
ENDBRANCH  15  21
ENDBRANCH  14  18
ENDBRANCH   1  14
TORSDOF 5
ENDMDL
