MODEL 1
REMARK VINA RESULT:    -7.000      0.000      0.000
REMARK INTER + INTRA:         -11.273
REMARK INTER:                 -10.274
REMARK INTRA:                  -1.000
REMARK UNBOUND:                -1.000
REMARK  Name = 
REMARK  12 active torsions:
REMARK  status: ('A' for Active; 'I' for Inactive)
REMARK    1  A    between atoms: C_1  and  C_2
REMARK    2  A    between atoms: C_2  and  C_3
REMARK    3  A    between atoms: C_2  and  O_4
REMARK    4  A    between atoms: O_4  and  C_5
REMARK    5  A    between atoms: C_7  and  C_8
REMARK    6  A    between atoms: C_13  and  N_14
REMARK    7  A    between atoms: N_14  and  C_15
REMARK    8  A    between atoms: C_15  and  C_16
REMARK    9  A    between atoms: C_16  and  C_17
REMARK   10  A    between atoms: C_16  and  C_18
REMARK   11  A    between atoms: C_16  and  C_19
REMARK   12  A    between atoms: C_22  and  C_23
REMARK                            x       y       z     vdW  Elec       q    Type
REMARK                         _______ _______ _______ _____ _____    ______ ____
ROOT
ATOM      1  C   UNL     1      47.443   7.061  13.193  0.00  0.00    +0.000 A 
ATOM      2  C   UNL     1      48.358   7.335  14.213  0.00  0.00    +0.000 A 
ATOM      3  C   UNL     1      48.640   6.354  15.149  0.00  0.00    +0.000 A 
ATOM      4  N   UNL     1      48.072   5.126  15.154  0.00  0.00    +0.000 NA
ATOM      5  C   UNL     1      47.170   4.897  14.170  0.00  0.00    +0.000 A 
ATOM      6  C   UNL     1      46.813   5.792  13.148  0.00  0.00    +0.000 A 
ENDROOT
BRANCH   3   7
ATOM      7  C   UNL     1      49.635   6.655  16.225  0.00  0.00    +0.000 C 
ATOM      8  N   UNL     1      49.492   7.862  16.846  0.00  0.00    +0.000 N 
ATOM      9  O   UNL     1      50.527   5.875  16.540  0.00  0.00    +0.000 OA
ATOM     10  H   UNL     1      48.740   8.481  16.568  0.00  0.00    +0.000 HD
ATOM     11  H   UNL     1      50.125   8.116  17.590  0.00  0.00    +0.000 HD
ENDBRANCH   3   7
BRANCH   6  12
ATOM     12  N   UNL     1      45.793   5.516  12.219  0.00  0.00    +0.000 N 
ATOM     13  H   UNL     1      45.895   6.062  11.365  0.00  0.00    +0.000 HD
BRANCH  12  14
ATOM     14  C   UNL     1      45.205   4.170  12.124  0.00  0.00    +0.000 C 
BRANCH  14  15
ATOM     15  C   UNL     1      44.228   3.958  10.920  0.00  0.00    +0.000 C 
ATOM     16  C   UNL     1      43.168   2.889  11.264  0.00  0.00    +0.000 C 
ATOM     17  C   UNL     1      43.479   5.285  10.651  0.00  0.00    +0.000 C 
BRANCH  15  18
ATOM     18  C   UNL     1      45.032   3.474   9.676  0.00  0.00    +0.000 A 
ATOM     19  C   UNL     1      45.603   4.410   8.786  0.00  0.00    +0.000 A 
ATOM     20  C   UNL     1      46.366   4.005   7.681  0.00  0.00    +0.000 A 
ATOM     21  C   UNL     1      46.582   2.650   7.434  0.00  0.00    +0.000 A 
ATOM     22  C   UNL     1      46.019   1.706   8.291  0.00  0.00    +0.000 A 
ATOM     23  C   UNL     1      45.252   2.113   9.392  0.00  0.00    +0.000 A 
BRANCH  21  24
ATOM     24  C   UNL     1      47.384   2.233   6.321  0.00  0.00    +0.000 C 
ATOM     25  N   UNL     1      48.036   1.893   5.421  0.00  0.00    +0.000 NA
ENDBRANCH  21  24
ENDBRANCH  15  18
ENDBRANCH  14  15
ENDBRANCH  12  14
ENDBRANCH   6  12
BRANCH   1  26
ATOM     26  O   UNL     1      47.128   7.970  12.198  0.00  0.00    +0.000 OA
BRANCH  26  28
ATOM     27  C   UNL     1      47.410  10.348  11.854  0.00  0.00    +0.000 C 
ATOM     28  C   UNL     1      46.630   9.266  12.594  0.00  0.00    +0.000 C 
ATOM     29  C   UNL     1      45.141   9.376  12.273  0.00  0.00    +0.000 C 
ENDBRANCH  26  28
ENDBRANCH   1  26
TORSDOF 8
ENDMDL
MODEL 2
REMARK VINA RESULT:    -6.938      1.893      3.270
REMARK INTER + INTRA:         -11.183
REMARK INTER:                 -10.144
REMARK INTRA:                  -1.039
REMARK UNBOUND:                -1.000
REMARK  Name = 
REMARK  12 active torsions:
REMARK  status: ('A' for Active; 'I' for Inactive)
REMARK    1  A    between atoms: C_1  and  C_2
REMARK    2  A    between atoms: C_2  and  C_3
REMARK    3  A    between atoms: C_2  and  O_4
REMARK    4  A    between atoms: O_4  and  C_5
REMARK    5  A    between atoms: C_7  and  C_8
REMARK    6  A    between atoms: C_13  and  N_14
REMARK    7  A    between atoms: N_14  and  C_15
REMARK    8  A    between atoms: C_15  and  C_16
REMARK    9  A    between atoms: C_16  and  C_17
REMARK   10  A    between atoms: C_16  and  C_18
REMARK   11  A    between atoms: C_16  and  C_19
REMARK   12  A    between atoms: C_22  and  C_23
REMARK                            x       y       z     vdW  Elec       q    Type
REMARK                         _______ _______ _______ _____ _____    ______ ____
ROOT
ATOM      1  C   UNL     1      47.205   5.344  14.465  0.00  0.00    +0.000 A 
ATOM      2  C   UNL     1      48.357   6.134  14.504  0.00  0.00    +0.000 A 
ATOM      3  C   UNL     1      48.586   7.046  13.488  0.00  0.00    +0.000 A 
ATOM      4  N   UNL     1      47.762   7.223  12.429  0.00  0.00    +0.000 NA
ATOM      5  C   UNL     1      46.667   6.426  12.404  0.00  0.00    +0.000 A 
ATOM      6  C   UNL     1      46.304   5.483  13.379  0.00  0.00    +0.000 A 
ENDROOT
BRANCH   3   7
ATOM      7  C   UNL     1      49.814   7.897  13.552  0.00  0.00    +0.000 C 
ATOM      8  N   UNL     1      50.815   7.437  14.359  0.00  0.00    +0.000 N 
ATOM      9  O   UNL     1      49.929   8.943  12.923  0.00  0.00    +0.000 OA
ATOM     10  H   UNL     1      50.693   6.565  14.859  0.00  0.00    +0.000 HD
ATOM     11  H   UNL     1      51.674   7.961  14.433  0.00  0.00    +0.000 HD
ENDBRANCH   3   7
BRANCH   6  12
ATOM     12  N   UNL     1      45.202   4.622  13.231  0.00  0.00    +0.000 N 
ATOM     13  H   UNL     1      44.316   5.112  13.338  0.00  0.00    +0.000 HD
BRANCH  12  14
ATOM     14  C   UNL     1      45.261   3.475  12.309  0.00  0.00    +0.000 C 
BRANCH  14  15
ATOM     15  C   UNL     1      44.217   3.507  11.144  0.00  0.00    +0.000 C 
ATOM     16  C   UNL     1      43.162   2.394  11.330  0.00  0.00    +0.000 C 
ATOM     17  C   UNL     1      43.473   4.864  11.184  0.00  0.00    +0.000 C 
BRANCH  15  18
ATOM     18  C   UNL     1      44.944   3.276   9.786  0.00  0.00    +0.000 A 
ATOM     19  C   UNL     1      45.354   4.374   8.998  0.00  0.00    +0.000 A 
ATOM     20  C   UNL     1      46.047   4.197   7.792  0.00  0.00    +0.000 A 
ATOM     21  C   UNL     1      46.353   2.915   7.337  0.00  0.00    +0.000 A 
ATOM     22  C   UNL     1      45.949   1.814   8.090  0.00  0.00    +0.000 A 
ATOM     23  C   UNL     1      45.252   1.993   9.294  0.00  0.00    +0.000 A 
BRANCH  21  24
ATOM     24  C   UNL     1      47.084   2.731   6.118  0.00  0.00    +0.000 C 
ATOM     25  N   UNL     1      47.676   2.578   5.129  0.00  0.00    +0.000 NA
ENDBRANCH  21  24
ENDBRANCH  15  18
ENDBRANCH  14  15
ENDBRANCH  12  14
ENDBRANCH   6  12
BRANCH   1  26
ATOM     26  O   UNL     1      46.881   4.432  15.455  0.00  0.00    +0.000 OA
BRANCH  26  28
ATOM     27  C   UNL     1      47.207   4.680  17.839  0.00  0.00    +0.000 C 
ATOM     28  C   UNL     1      47.829   4.223  16.524  0.00  0.00    +0.000 C 
ATOM     29  C   UNL     1      48.210   2.745  16.605  0.00  0.00    +0.000 C 
ENDBRANCH  26  28
ENDBRANCH   1  26
TORSDOF 8
ENDMDL
MODEL 3
REMARK VINA RESULT:    -6.773      1.857      2.394
REMARK INTER + INTRA:         -10.940
REMARK INTER:                 -10.063
REMARK INTRA:                  -0.876
REMARK UNBOUND:                -1.000
REMARK  Name = 
REMARK  12 active torsions:
REMARK  status: ('A' for Active; 'I' for Inactive)
REMARK    1  A    between atoms: C_1  and  C_2
REMARK    2  A    between atoms: C_2  and  C_3
REMARK    3  A    between atoms: C_2  and  O_4
REMARK    4  A    between atoms: O_4  and  C_5
REMARK    5  A    between atoms: C_7  and  C_8
REMARK    6  A    between atoms: C_13  and  N_14
REMARK    7  A    between atoms: N_14  and  C_15
REMARK    8  A    between atoms: C_15  and  C_16
REMARK    9  A    between atoms: C_16  and  C_17
REMARK   10  A    between atoms: C_16  and  C_18
REMARK   11  A    between atoms: C_16  and  C_19
REMARK   12  A    between atoms: C_22  and  C_23
REMARK                            x       y       z     vdW  Elec       q    Type
REMARK                         _______ _______ _______ _____ _____    ______ ____
ROOT
ATOM      1  C   UNL     1      47.798   6.065  14.405  0.00  0.00    +0.000 A 
ATOM      2  C   UNL     1      48.280   5.835  15.696  0.00  0.00    +0.000 A 
ATOM      3  C   UNL     1      47.998   4.631  16.319  0.00  0.00    +0.000 A 
ATOM      4  N   UNL     1      47.263   3.642  15.759  0.00  0.00    +0.000 NA
ATOM      5  C   UNL     1      46.787   3.902  14.517  0.00  0.00    +0.000 A 
ATOM      6  C   UNL     1      47.019   5.066  13.767  0.00  0.00    +0.000 A 
ENDROOT
BRANCH   3   7
ATOM      7  C   UNL     1      48.535   4.392  17.694  0.00  0.00    +0.000 C 
ATOM      8  N   UNL     1      47.821   3.525  18.469  0.00  0.00    +0.000 N 
ATOM      9  O   UNL     1      49.554   4.933  18.111  0.00  0.00    +0.000 OA
ATOM     10  H   UNL     1      46.988   3.089  18.094  0.00  0.00    +0.000 HD
ATOM     11  H   UNL     1      48.141   3.313  19.403  0.00  0.00    +0.000 HD
ENDBRANCH   3   7
BRANCH   6  12
ATOM     12  N   UNL     1      46.407   5.304  12.523  0.00  0.00    +0.000 N 
ATOM     13  H   UNL     1      46.764   4.686  11.796  0.00  0.00    +0.000 HD
BRANCH  12  14
ATOM     14  C   UNL     1      45.002   5.738  12.446  0.00  0.00    +0.000 C 
BRANCH  14  15
ATOM     15  C   UNL     1      44.050   4.766  11.673  0.00  0.00    +0.000 C 
ATOM     16  C   UNL     1      43.738   3.518  12.527  0.00  0.00    +0.000 C 
ATOM     17  C   UNL     1      42.710   5.494  11.407  0.00  0.00    +0.000 C 
BRANCH  15  18
ATOM     18  C   UNL     1      44.737   4.302  10.354  0.00  0.00    +0.000 A 
ATOM     19  C   UNL     1      44.659   2.954   9.942  0.00  0.00    +0.000 A 
ATOM     20  C   UNL     1      45.232   2.516   8.739  0.00  0.00    +0.000 A 
ATOM     21  C   UNL     1      45.899   3.415   7.909  0.00  0.00    +0.000 A 
ATOM     22  C   UNL     1      46.001   4.750   8.299  0.00  0.00    +0.000 A 
ATOM     23  C   UNL     1      45.431   5.185   9.505  0.00  0.00    +0.000 A 
BRANCH  21  24
ATOM     24  C   UNL     1      46.464   2.977   6.666  0.00  0.00    +0.000 C 
ATOM     25  N   UNL     1      46.918   2.624   5.657  0.00  0.00    +0.000 NA
ENDBRANCH  21  24
ENDBRANCH  15  18
ENDBRANCH  14  15
ENDBRANCH  12  14
ENDBRANCH   6  12
BRANCH   1  26
ATOM     26  O   UNL     1      48.060   7.224  13.697  0.00  0.00    +0.000 OA
BRANCH  26  28
ATOM     27  C   UNL     1      48.943   7.801  11.519  0.00  0.00    +0.000 C 
ATOM     28  C   UNL     1      49.273   7.286  12.916  0.00  0.00    +0.000 C 
ATOM     29  C   UNL     1      50.286   8.207  13.593  0.00  0.00    +0.000 C 
ENDBRANCH  26  28
ENDBRANCH   1  26
TORSDOF 8
ENDMDL
MODEL 4
REMARK VINA RESULT:    -6.552      3.424      7.817
REMARK INTER + INTRA:         -10.616
REMARK INTER:                  -9.673
REMARK INTRA:                  -0.943
REMARK UNBOUND:                -1.000
REMARK  Name = 
REMARK  12 active torsions:
REMARK  status: ('A' for Active; 'I' for Inactive)
REMARK    1  A    between atoms: C_1  and  C_2
REMARK    2  A    between atoms: C_2  and  C_3
REMARK    3  A    between atoms: C_2  and  O_4
REMARK    4  A    between atoms: O_4  and  C_5
REMARK    5  A    between atoms: C_7  and  C_8
REMARK    6  A    between atoms: C_13  and  N_14
REMARK    7  A    between atoms: N_14  and  C_15
REMARK    8  A    between atoms: C_15  and  C_16
REMARK    9  A    between atoms: C_16  and  C_17
REMARK   10  A    between atoms: C_16  and  C_18
REMARK   11  A    between atoms: C_16  and  C_19
REMARK   12  A    between atoms: C_22  and  C_23
REMARK                            x       y       z     vdW  Elec       q    Type
REMARK                         _______ _______ _______ _____ _____    ______ ____
ROOT
ATOM      1  C   UNL     1      46.054   5.965  12.857  0.00  0.00    +0.000 A 
ATOM      2  C   UNL     1      45.309   5.557  11.747  0.00  0.00    +0.000 A 
ATOM      3  C   UNL     1      45.008   4.215  11.592  0.00  0.00    +0.000 A 
ATOM      4  N   UNL     1      45.401   3.245  12.450  0.00  0.00    +0.000 NA
ATOM      5  C   UNL     1      46.144   3.666  13.502  0.00  0.00    +0.000 A 
ATOM      6  C   UNL     1      46.497   4.994  13.790  0.00  0.00    +0.000 A 
ENDROOT
BRANCH   3   7
ATOM      7  C   UNL     1      44.194   3.795  10.409  0.00  0.00    +0.000 C 
ATOM      8  N   UNL     1      43.994   4.751   9.455  0.00  0.00    +0.000 N 
ATOM      9  O   UNL     1      43.732   2.666  10.289  0.00  0.00    +0.000 OA
ATOM     10  H   UNL     1      44.396   5.672   9.579  0.00  0.00    +0.000 HD
ATOM     11  H   UNL     1      43.465   4.524   8.627  0.00  0.00    +0.000 HD
ENDBRANCH   3   7
BRANCH   6  12
ATOM     12  N   UNL     1      47.356   5.339  14.849  0.00  0.00    +0.000 N 
ATOM     13  H   UNL     1      47.454   6.348  14.950  0.00  0.00    +0.000 HD
BRANCH  12  14
ATOM     14  C   UNL     1      47.433   4.504  16.059  0.00  0.00    +0.000 C 
BRANCH  14  15
ATOM     15  C   UNL     1      48.421   5.018  17.158  0.00  0.00    +0.000 C 
ATOM     16  C   UNL     1      49.045   6.367  16.738  0.00  0.00    +0.000 C 
ATOM     17  C   UNL     1      47.626   5.260  18.464  0.00  0.00    +0.000 C 
BRANCH  15  18
ATOM     18  C   UNL     1      49.569   3.982  17.353  0.00  0.00    +0.000 A 
ATOM     19  C   UNL     1      49.375   2.627  17.008  0.00  0.00    +0.000 A 
ATOM     20  C   UNL     1      50.402   1.680  17.134  0.00  0.00    +0.000 A 
ATOM     21  C   UNL     1      51.657   2.063  17.607  0.00  0.00    +0.000 A 
ATOM     22  C   UNL     1      51.871   3.393  17.966  0.00  0.00    +0.000 A 
ATOM     23  C   UNL     1      50.840   4.337  17.843  0.00  0.00    +0.000 A 
BRANCH  21  24
ATOM     24  C   UNL     1      52.718   1.104  17.712  0.00  0.00    +0.000 C 
ATOM     25  N   UNL     1      53.576   0.326  17.801  0.00  0.00    +0.000 NA
ENDBRANCH  21  24
ENDBRANCH  15  18
ENDBRANCH  14  15
ENDBRANCH  12  14
ENDBRANCH   6  12
BRANCH   1  26
ATOM     26  O   UNL     1      46.371   7.288  13.108  0.00  0.00    +0.000 OA
BRANCH  26  28
ATOM     27  C   UNL     1      47.146   9.489  12.467  0.00  0.00    +0.000 C 
ATOM     28  C   UNL     1      47.130   8.006  12.111  0.00  0.00    +0.000 C 
ATOM     29  C   UNL     1      48.557   7.464  12.047  0.00  0.00    +0.000 C 
ENDBRANCH  26  28
ENDBRANCH   1  26
TORSDOF 8
ENDMDL
MODEL 5
REMARK VINA RESULT:    -5.685      2.945      8.046
REMARK INTER + INTRA:          -9.343
REMARK INTER:                  -7.922
REMARK INTRA:                  -1.421
REMARK UNBOUND:                -1.000
REMARK  Name = 
REMARK  12 active torsions:
REMARK  status: ('A' for Active; 'I' for Inactive)
REMARK    1  A    between atoms: C_1  and  C_2
REMARK    2  A    between atoms: C_2  and  C_3
REMARK    3  A    between atoms: C_2  and  O_4
REMARK    4  A    between atoms: O_4  and  C_5
REMARK    5  A    between atoms: C_7  and  C_8
REMARK    6  A    between atoms: C_13  and  N_14
REMARK    7  A    between atoms: N_14  and  C_15
REMARK    8  A    between atoms: C_15  and  C_16
REMARK    9  A    between atoms: C_16  and  C_17
REMARK   10  A    between atoms: C_16  and  C_18
REMARK   11  A    between atoms: C_16  and  C_19
REMARK   12  A    between atoms: C_22  and  C_23
REMARK                            x       y       z     vdW  Elec       q    Type
REMARK                         _______ _______ _______ _____ _____    ______ ____
ROOT
ATOM      1  C   UNL     1      46.435   4.843  13.292  0.00  0.00    +0.000 A 
ATOM      2  C   UNL     1      45.761   3.754  12.734  0.00  0.00    +0.000 A 
ATOM      3  C   UNL     1      44.694   3.984  11.882  0.00  0.00    +0.000 A 
ATOM      4  N   UNL     1      44.239   5.215  11.552  0.00  0.00    +0.000 NA
ATOM      5  C   UNL     1      44.895   6.252  12.128  0.00  0.00    +0.000 A 
ATOM      6  C   UNL     1      46.002   6.159  12.986  0.00  0.00    +0.000 A 
ENDROOT
BRANCH   3   7
ATOM      7  C   UNL     1      43.994   2.809  11.277  0.00  0.00    +0.000 C 
ATOM      8  N   UNL     1      44.557   2.299  10.143  0.00  0.00    +0.000 N 
ATOM      9  O   UNL     1      42.977   2.322  11.761  0.00  0.00    +0.000 OA
ATOM     10  H   UNL     1      45.401   2.718   9.772  0.00  0.00    +0.000 HD
ATOM     11  H   UNL     1      44.137   1.497   9.697  0.00  0.00    +0.000 HD
ENDBRANCH   3   7
BRANCH   6  12
ATOM     12  N   UNL     1      46.566   7.279  13.624  0.00  0.00    +0.000 N 
ATOM     13  H   UNL     1      47.204   7.013  14.372  0.00  0.00    +0.000 HD
BRANCH  12  14
ATOM     14  C   UNL     1      46.845   8.512  12.870  0.00  0.00    +0.000 C 
BRANCH  14  15
ATOM     15  C   UNL     1      48.360   8.801  12.608  0.00  0.00    +0.000 C 
ATOM     16  C   UNL     1      48.935   7.795  11.587  0.00  0.00    +0.000 C 
ATOM     17  C   UNL     1      48.496  10.215  11.994  0.00  0.00    +0.000 C 
BRANCH  15  18
ATOM     18  C   UNL     1      49.156   8.661  13.941  0.00  0.00    +0.000 A 
ATOM     19  C   UNL     1      50.106   7.630  14.102  0.00  0.00    +0.000 A 
ATOM     20  C   UNL     1      50.867   7.504  15.273  0.00  0.00    +0.000 A 
ATOM     21  C   UNL     1      50.700   8.410  16.320  0.00  0.00    +0.000 A 
ATOM     22  C   UNL     1      49.759   9.431  16.191  0.00  0.00    +0.000 A 
ATOM     23  C   UNL     1      48.997   9.551  15.020  0.00  0.00    +0.000 A 
BRANCH  21  24
ATOM     24  C   UNL     1      51.494   8.301  17.509  0.00  0.00    +0.000 C 
ATOM     25  N   UNL     1      52.135   8.211  18.475  0.00  0.00    +0.000 NA
ENDBRANCH  21  24
ENDBRANCH  15  18
ENDBRANCH  14  15
ENDBRANCH  12  14
ENDBRANCH   6  12
BRANCH   1  26
ATOM     26  O   UNL     1      47.531   4.706  14.126  0.00  0.00    +0.000 OA
BRANCH  26  28
ATOM     27  C   UNL     1      47.835   3.026  15.841  0.00  0.00    +0.000 C 
ATOM     28  C   UNL     1      47.292   4.415  15.520  0.00  0.00    +0.000 C 
ATOM     29  C   UNL     1      47.972   5.464  16.399  0.00  0.00    +0.000 C 
ENDBRANCH  26  28
ENDBRANCH   1  26
TORSDOF 8
ENDMDL
MODEL 6
REMARK VINA RESULT:    -5.563      3.268      8.721
REMARK INTER + INTRA:          -9.164
REMARK INTER:                  -7.449
REMARK INTRA:                  -1.715
REMARK UNBOUND:                -1.000
REMARK  Name = 
REMARK  12 active torsions:
REMARK  status: ('A' for Active; 'I' for Inactive)
REMARK    1  A    between atoms: C_1  and  C_2
REMARK    2  A    between atoms: C_2  and  C_3
REMARK    3  A    between atoms: C_2  and  O_4
REMARK    4  A    between atoms: O_4  and  C_5
REMARK    5  A    between atoms: C_7  and  C_8
REMARK    6  A    between atoms: C_13  and  N_14
REMARK    7  A    between atoms: N_14  and  C_15
REMARK    8  A    between atoms: C_15  and  C_16
REMARK    9  A    between atoms: C_16  and  C_17
REMARK   10  A    between atoms: C_16  and  C_18
REMARK   11  A    between atoms: C_16  and  C_19
REMARK   12  A    between atoms: C_22  and  C_23
REMARK                            x       y       z     vdW  Elec       q    Type
REMARK                         _______ _______ _______ _____ _____    ______ ____
ROOT
ATOM      1  C   UNL     1      47.020   4.836  14.166  0.00  0.00    +0.000 A 
ATOM      2  C   UNL     1      46.134   3.924  13.588  0.00  0.00    +0.000 A 
ATOM      3  C   UNL     1      45.268   4.357  12.599  0.00  0.00    +0.000 A 
ATOM      4  N   UNL     1      45.208   5.632  12.149  0.00  0.00    +0.000 NA
ATOM      5  C   UNL     1      46.060   6.500  12.745  0.00  0.00    +0.000 A 
ATOM      6  C   UNL     1      47.003   6.188  13.738  0.00  0.00    +0.000 A 
ENDROOT
BRANCH   3   7
ATOM      7  C   UNL     1      44.337   3.365  11.976  0.00  0.00    +0.000 C 
ATOM      8  N   UNL     1      44.256   3.399  10.614  0.00  0.00    +0.000 N 
ATOM      9  O   UNL     1      43.684   2.564  12.637  0.00  0.00    +0.000 OA
ATOM     10  H   UNL     1      44.814   4.067  10.097  0.00  0.00    +0.000 HD
ATOM     11  H   UNL     1      43.654   2.745  10.136  0.00  0.00    +0.000 HD
ENDBRANCH   3   7
BRANCH   6  12
ATOM     12  N   UNL     1      47.784   7.166  14.379  0.00  0.00    +0.000 N 
ATOM     13  H   UNL     1      47.552   7.254  15.367  0.00  0.00    +0.000 HD
BRANCH  12  14
ATOM     14  C   UNL     1      49.173   7.414  13.960  0.00  0.00    +0.000 C 
BRANCH  14  15
ATOM     15  C   UNL     1      50.037   8.228  14.979  0.00  0.00    +0.000 C 
ATOM     16  C   UNL     1      51.489   8.367  14.471  0.00  0.00    +0.000 C 
ATOM     17  C   UNL     1      49.448   9.654  15.099  0.00  0.00    +0.000 C 
BRANCH  15  18
ATOM     18  C   UNL     1      50.063   7.487  16.350  0.00  0.00    +0.000 A 
ATOM     19  C   UNL     1      50.699   6.233  16.473  0.00  0.00    +0.000 A 
ATOM     20  C   UNL     1      50.774   5.561  17.702  0.00  0.00    +0.000 A 
ATOM     21  C   UNL     1      50.216   6.127  18.848  0.00  0.00    +0.000 A 
ATOM     22  C   UNL     1      49.571   7.360  18.751  0.00  0.00    +0.000 A 
ATOM     23  C   UNL     1      49.494   8.026  17.519  0.00  0.00    +0.000 A 
BRANCH  21  24
ATOM     24  C   UNL     1      50.314   5.458  20.112  0.00  0.00    +0.000 C 
ATOM     25  N   UNL     1      50.390   4.918  21.138  0.00  0.00    +0.000 NA
ENDBRANCH  21  24
ENDBRANCH  15  18
ENDBRANCH  14  15
ENDBRANCH  12  14
ENDBRANCH   6  12
BRANCH   1  26
ATOM     26  O   UNL     1      47.942   4.482  15.136  0.00  0.00    +0.000 OA
BRANCH  26  28
ATOM     27  C   UNL     1      48.547   2.688  16.642  0.00  0.00    +0.000 C 
ATOM     28  C   UNL     1      47.479   3.709  16.264  0.00  0.00    +0.000 C 
ATOM     29  C   UNL     1      47.188   4.631  17.447  0.00  0.00    +0.000 C 
ENDBRANCH  26  28
ENDBRANCH   1  26
TORSDOF 8
ENDMDL
MODEL 7
REMARK VINA RESULT:    -5.534      3.924      7.091
REMARK INTER + INTRA:          -9.123
REMARK INTER:                  -8.151
REMARK INTRA:                  -0.972
REMARK UNBOUND:                -1.000
REMARK  Name = 
REMARK  12 active torsions:
REMARK  status: ('A' for Active; 'I' for Inactive)
REMARK    1  A    between atoms: C_1  and  C_2
REMARK    2  A    between atoms: C_2  and  C_3
REMARK    3  A    between atoms: C_2  and  O_4
REMARK    4  A    between atoms: O_4  and  C_5
REMARK    5  A    between atoms: C_7  and  C_8
REMARK    6  A    between atoms: C_13  and  N_14
REMARK    7  A    between atoms: N_14  and  C_15
REMARK    8  A    between atoms: C_15  and  C_16
REMARK    9  A    between atoms: C_16  and  C_17
REMARK   10  A    between atoms: C_16  and  C_18
REMARK   11  A    between atoms: C_16  and  C_19
REMARK   12  A    between atoms: C_22  and  C_23
REMARK                            x       y       z     vdW  Elec       q    Type
REMARK                         _______ _______ _______ _____ _____    ______ ____
ROOT
ATOM      1  C   UNL     1      46.890   5.022  13.591  0.00  0.00    +0.000 A 
ATOM      2  C   UNL     1      45.924   4.110  13.156  0.00  0.00    +0.000 A 
ATOM      3  C   UNL     1      44.989   4.512  12.217  0.00  0.00    +0.000 A 
ATOM      4  N   UNL     1      44.934   5.756  11.687  0.00  0.00    +0.000 NA
ATOM      5  C   UNL     1      45.865   6.626  12.146  0.00  0.00    +0.000 A 
ATOM      6  C   UNL     1      46.881   6.342  13.073  0.00  0.00    +0.000 A 
ENDROOT
BRANCH   3   7
ATOM      7  C   UNL     1      43.973   3.520  11.748  0.00  0.00    +0.000 C 
ATOM      8  N   UNL     1      43.803   2.422  12.541  0.00  0.00    +0.000 N 
ATOM      9  O   UNL     1      43.324   3.672  10.718  0.00  0.00    +0.000 OA
ATOM     10  H   UNL     1      44.347   2.329  13.389  0.00  0.00    +0.000 HD
ATOM     11  H   UNL     1      43.121   1.724  12.283  0.00  0.00    +0.000 HD
ENDBRANCH   3   7
BRANCH   6  12
ATOM     12  N   UNL     1      47.749   7.328  13.575  0.00  0.00    +0.000 N 
ATOM     13  H   UNL     1      47.587   7.514  14.563  0.00  0.00    +0.000 HD
BRANCH  12  14
ATOM     14  C   UNL     1      49.119   7.461  13.052  0.00  0.00    +0.000 C 
BRANCH  14  15
ATOM     15  C   UNL     1      49.481   8.879  12.498  0.00  0.00    +0.000 C 
ATOM     16  C   UNL     1      48.250   9.532  11.830  0.00  0.00    +0.000 C 
ATOM     17  C   UNL     1      49.900   9.782  13.683  0.00  0.00    +0.000 C 
BRANCH  15  18
ATOM     18  C   UNL     1      50.610   8.749  11.432  0.00  0.00    +0.000 A 
ATOM     19  C   UNL     1      51.259   9.900  10.933  0.00  0.00    +0.000 A 
ATOM     20  C   UNL     1      52.306   9.812  10.005  0.00  0.00    +0.000 A 
ATOM     21  C   UNL     1      52.739   8.568   9.549  0.00  0.00    +0.000 A 
ATOM     22  C   UNL     1      52.107   7.416  10.016  0.00  0.00    +0.000 A 
ATOM     23  C   UNL     1      51.056   7.508  10.941  0.00  0.00    +0.000 A 
BRANCH  21  24
ATOM     24  C   UNL     1      53.827   8.472   8.620  0.00  0.00    +0.000 C 
ATOM     25  N   UNL     1      54.707   8.397   7.864  0.00  0.00    +0.000 NA
ENDBRANCH  21  24
ENDBRANCH  15  18
ENDBRANCH  14  15
ENDBRANCH  12  14
ENDBRANCH   6  12
BRANCH   1  26
ATOM     26  O   UNL     1      47.881   4.696  14.500  0.00  0.00    +0.000 OA
BRANCH  26  28
ATOM     27  C   UNL     1      47.871   3.117  16.334  0.00  0.00    +0.000 C 
ATOM     28  C   UNL     1      47.505   4.528  15.884  0.00  0.00    +0.000 C 
ATOM     29  C   UNL     1      48.224   5.561  16.751  0.00  0.00    +0.000 C 
ENDBRANCH  26  28
ENDBRANCH   1  26
TORSDOF 8
ENDMDL
MODEL 8
REMARK VINA RESULT:    -5.521      3.334      8.058
REMARK INTER + INTRA:          -9.103
REMARK INTER:                  -8.195
REMARK INTRA:                  -0.908
REMARK UNBOUND:                -1.000
REMARK  Name = 
REMARK  12 active torsions:
REMARK  status: ('A' for Active; 'I' for Inactive)
REMARK    1  A    between atoms: C_1  and  C_2
REMARK    2  A    between atoms: C_2  and  C_3
REMARK    3  A    between atoms: C_2  and  O_4
REMARK    4  A    between atoms: O_4  and  C_5
REMARK    5  A    between atoms: C_7  and  C_8
REMARK    6  A    between atoms: C_13  and  N_14
REMARK    7  A    between atoms: N_14  and  C_15
REMARK    8  A    between atoms: C_15  and  C_16
REMARK    9  A    between atoms: C_16  and  C_17
REMARK   10  A    between atoms: C_16  and  C_18
REMARK   11  A    between atoms: C_16  and  C_19
REMARK   12  A    between atoms: C_22  and  C_23
REMARK                            x       y       z     vdW  Elec       q    Type
REMARK                         _______ _______ _______ _____ _____    ______ ____
ROOT
ATOM      1  C   UNL     1      45.661   6.475  12.010  0.00  0.00    +0.000 A 
ATOM      2  C   UNL     1      44.867   5.448  11.492  0.00  0.00    +0.000 A 
ATOM      3  C   UNL     1      44.774   4.252  12.182  0.00  0.00    +0.000 A 
ATOM      4  N   UNL     1      45.421   3.994  13.343  0.00  0.00    +0.000 NA
ATOM      5  C   UNL     1      46.203   4.997  13.808  0.00  0.00    +0.000 A 
ATOM      6  C   UNL     1      46.366   6.263  13.222  0.00  0.00    +0.000 A 
ENDROOT
BRANCH   3   7
ATOM      7  C   UNL     1      43.906   3.168  11.625  0.00  0.00    +0.000 C 
ATOM      8  N   UNL     1      43.673   2.108  12.453  0.00  0.00    +0.000 N 
ATOM      9  O   UNL     1      43.425   3.218  10.498  0.00  0.00    +0.000 OA
ATOM     10  H   UNL     1      44.077   2.101  13.381  0.00  0.00    +0.000 HD
ATOM     11  H   UNL     1      43.083   1.352  12.138  0.00  0.00    +0.000 HD
ENDBRANCH   3   7
BRANCH   6  12
ATOM     12  N   UNL     1      47.276   7.217  13.712  0.00  0.00    +0.000 N 
ATOM     13  H   UNL     1      46.831   7.882  14.342  0.00  0.00    +0.000 HD
BRANCH  12  14
ATOM     14  C   UNL     1      48.684   6.861  13.950  0.00  0.00    +0.000 C 
BRANCH  14  15
ATOM     15  C   UNL     1      49.388   7.667  15.091  0.00  0.00    +0.000 C 
ATOM     16  C   UNL     1      50.906   7.772  14.825  0.00  0.00    +0.000 C 
ATOM     17  C   UNL     1      48.818   9.107  15.103  0.00  0.00    +0.000 C 
BRANCH  15  18
ATOM     18  C   UNL     1      49.174   6.940  16.452  0.00  0.00    +0.000 A 
ATOM     19  C   UNL     1      48.591   5.655  16.492  0.00  0.00    +0.000 A 
ATOM     20  C   UNL     1      48.423   4.959  17.698  0.00  0.00    +0.000 A 
ATOM     21  C   UNL     1      48.838   5.528  18.902  0.00  0.00    +0.000 A 
ATOM     22  C   UNL     1      49.406   6.801  18.891  0.00  0.00    +0.000 A 
ATOM     23  C   UNL     1      49.568   7.497  17.683  0.00  0.00    +0.000 A 
BRANCH  21  24
ATOM     24  C   UNL     1      48.693   4.809  20.134  0.00  0.00    +0.000 C 
ATOM     25  N   UNL     1      48.578   4.229  21.135  0.00  0.00    +0.000 NA
ENDBRANCH  21  24
ENDBRANCH  15  18
ENDBRANCH  14  15
ENDBRANCH  12  14
ENDBRANCH   6  12
BRANCH   1  26
ATOM     26  O   UNL     1      45.785   7.712  11.403  0.00  0.00    +0.000 OA
BRANCH  26  28
ATOM     27  C   UNL     1      45.847  10.034  12.081  0.00  0.00    +0.000 C 
ATOM     28  C   UNL     1      44.973   8.798  11.901  0.00  0.00    +0.000 C 
ATOM     29  C   UNL     1      43.836   9.092  10.924  0.00  0.00    +0.000 C 
ENDBRANCH  26  28
ENDBRANCH   1  26
TORSDOF 8
ENDMDL
MODEL 9
REMARK VINA RESULT:    -5.459      3.316      6.842
REMARK INTER + INTRA:          -9.012
REMARK INTER:                  -7.942
REMARK INTRA:                  -1.070
REMARK UNBOUND:                -1.000
REMARK  Name = 
REMARK  12 active torsions:
REMARK  status: ('A' for Active; 'I' for Inactive)
REMARK    1  A    between atoms: C_1  and  C_2
REMARK    2  A    between atoms: C_2  and  C_3
REMARK    3  A    between atoms: C_2  and  O_4
REMARK    4  A    between atoms: O_4  and  C_5
REMARK    5  A    between atoms: C_7  and  C_8
REMARK    6  A    between atoms: C_13  and  N_14
REMARK    7  A    between atoms: N_14  and  C_15
REMARK    8  A    between atoms: C_15  and  C_16
REMARK    9  A    between atoms: C_16  and  C_17
REMARK   10  A    between atoms: C_16  and  C_18
REMARK   11  A    between atoms: C_16  and  C_19
REMARK   12  A    between atoms: C_22  and  C_23
REMARK                            x       y       z     vdW  Elec       q    Type
REMARK                         _______ _______ _______ _____ _____    ______ ____
ROOT
ATOM      1  C   UNL     1      45.712   6.201  11.964  0.00  0.00    +0.000 A 
ATOM      2  C   UNL     1      44.975   5.292  11.200  0.00  0.00    +0.000 A 
ATOM      3  C   UNL     1      44.634   4.068  11.749  0.00  0.00    +0.000 A 
ATOM      4  N   UNL     1      44.980   3.674  12.997  0.00  0.00    +0.000 NA
ATOM      5  C   UNL     1      45.716   4.564  13.705  0.00  0.00    +0.000 A 
ATOM      6  C   UNL     1      46.107   5.844  13.278  0.00  0.00    +0.000 A 
ENDROOT
BRANCH   3   7
ATOM      7  C   UNL     1      43.829   3.112  10.926  0.00  0.00    +0.000 C 
ATOM      8  N   UNL     1      44.098   3.108   9.588  0.00  0.00    +0.000 N 
ATOM      9  O   UNL     1      42.980   2.372  11.411  0.00  0.00    +0.000 OA
ATOM     10  H   UNL     1      44.810   3.725   9.219  0.00  0.00    +0.000 HD
ATOM     11  H   UNL     1      43.597   2.475   8.983  0.00  0.00    +0.000 HD
ENDBRANCH   3   7
BRANCH   6  12
ATOM     12  N   UNL     1      46.956   6.671  14.034  0.00  0.00    +0.000 N 
ATOM     13  H   UNL     1      46.471   7.105  14.817  0.00  0.00    +0.000 HD
BRANCH  12  14
ATOM     14  C   UNL     1      48.383   6.343  14.190  0.00  0.00    +0.000 C 
BRANCH  14  15
ATOM     15  C   UNL     1      49.295   7.541  14.618  0.00  0.00    +0.000 C 
ATOM     16  C   UNL     1      48.439   8.782  14.953  0.00  0.00    +0.000 C 
ATOM     17  C   UNL     1      50.062   7.144  15.903  0.00  0.00    +0.000 C 
BRANCH  15  18
ATOM     18  C   UNL     1      50.259   7.906  13.449  0.00  0.00    +0.000 A 
ATOM     19  C   UNL     1      49.880   7.671  12.109  0.00  0.00    +0.000 A 
ATOM     20  C   UNL     1      50.708   8.027  11.035  0.00  0.00    +0.000 A 
ATOM     21  C   UNL     1      51.942   8.632  11.270  0.00  0.00    +0.000 A 
ATOM     22  C   UNL     1      52.345   8.865  12.584  0.00  0.00    +0.000 A 
ATOM     23  C   UNL     1      51.516   8.503  13.656  0.00  0.00    +0.000 A 
BRANCH  21  24
ATOM     24  C   UNL     1      52.781   9.022  10.174  0.00  0.00    +0.000 C 
ATOM     25  N   UNL     1      53.459   9.342   9.286  0.00  0.00    +0.000 NA
ENDBRANCH  21  24
ENDBRANCH  15  18
ENDBRANCH  14  15
ENDBRANCH  12  14
ENDBRANCH   6  12
BRANCH   1  26
ATOM     26  O   UNL     1      46.067   7.458  11.506  0.00  0.00    +0.000 OA
BRANCH  26  28
ATOM     27  C   UNL     1      46.290   9.781  12.146  0.00  0.00    +0.000 C 
ATOM     28  C   UNL     1      45.338   8.597  12.011  0.00  0.00    +0.000 C 
ATOM     29  C   UNL     1      44.191   8.947  11.065  0.00  0.00    +0.000 C 
ENDBRANCH  26  28
ENDBRANCH   1  26
TORSDOF 8
ENDMDL
