MODEL 1
REMARK VINA RESULT:    -7.793      0.000      0.000
REMARK INTER + INTRA:         -10.223
REMARK INTER:                  -9.843
REMARK INTRA:                  -0.380
REMARK UNBOUND:                -0.380
REMARK  Name = 
REMARK  5 active torsions:
REMARK  status: ('A' for Active; 'I' for Inactive)
REMARK    1  A    between atoms: N_1  and  C_2
REMARK    2  A    between atoms: C_2  and  C_3
REMARK    3  A    between atoms: C_3  and  C_4
REMARK    4  A    between atoms: C_8  and  C_9
REMARK    5  A    between atoms: C_9  and  C_10
REMARK                            x       y       z     vdW  Elec       q    Type
REMARK                         _______ _______ _______ _____ _____    ______ ____
ROOT
ATOM      1  C   UNL     1      46.118   2.380   7.998  0.00  0.00    +0.000 A 
ATOM      2  C   UNL     1      46.068   3.708   7.593  0.00  0.00    +0.000 A 
ATOM      3  N   UNL     1      45.310   4.651   8.195  0.00  0.00    +0.000 NA
ATOM      4  C   UNL     1      44.558   4.253   9.245  0.00  0.00    +0.000 A 
ATOM      5  C   UNL     1      44.521   2.952   9.740  0.00  0.00    +0.000 A 
ATOM      6  C   UNL     1      45.305   2.010   9.071  0.00  0.00    +0.000 A 
ENDROOT
BRANCH   1   7
ATOM      7  C   UNL     1      47.000   1.364   7.323  0.00  0.00    +0.000 C 
BRANCH   7   8
ATOM      8  C   UNL     1      48.301   1.980   6.795  0.00  0.00    +0.000 C 
BRANCH   8   9
ATOM      9  N   UNL     1      48.397   1.841   5.344  0.00  0.00    +0.000 NA
ATOM     10  H   UNL     1      49.206   1.264   5.113  0.00  0.00    +0.000 HD
ATOM     11  H   UNL     1      48.563   2.752   4.917  0.00  0.00    +0.000 HD
ENDBRANCH   8   9
ENDBRANCH   7   8
ENDBRANCH   1   7
BRANCH   5  12
ATOM     12  C   UNL     1      43.621   2.576  10.891  0.00  0.00    +0.000 C 
BRANCH  12  13
ATOM     13  C   UNL     1      43.548   3.532  12.103  0.00  0.00    +0.000 C 
ATOM     14  C   UNL     1      42.737   4.822  11.838  0.00  0.00    +0.000 C 
ATOM     15  C   UNL     1      43.574   6.038  12.262  0.00  0.00    +0.000 C 
ATOM     16  C   UNL     1      44.858   5.440  12.727  0.00  0.00    +0.000 A 
ATOM     17  C   UNL     1      45.974   6.123  13.186  0.00  0.00    +0.000 A 
ATOM     18  C   UNL     1      47.091   5.382  13.557  0.00  0.00    +0.000 A 
ATOM     19  F   UNL     1      48.189   6.018  13.989  0.00  0.00    +0.000 F 
ATOM     20  C   UNL     1      47.096   3.986  13.487  0.00  0.00    +0.000 A 
ATOM     21  C   UNL     1      45.960   3.305  13.042  0.00  0.00    +0.000 A 
ATOM     22  C   UNL     1      44.852   4.046  12.645  0.00  0.00    +0.000 A 
ENDBRANCH  12  13
ENDBRANCH   5  12
TORSDOF 5
ENDMDL
MODEL 2
REMARK VINA RESULT:    -7.299      3.106      5.899
REMARK INTER + INTRA:          -9.599
REMARK INTER:                  -8.903
REMARK INTRA:                  -0.695
REMARK UNBOUND:                -0.380
REMARK  Name = 
REMARK  5 active torsions:
REMARK  status: ('A' for Active; 'I' for Inactive)
REMARK    1  A    between atoms: N_1  and  C_2
REMARK    2  A    between atoms: C_2  and  C_3
REMARK    3  A    between atoms: C_3  and  C_4
REMARK    4  A    between atoms: C_8  and  C_9
REMARK    5  A    between atoms: C_9  and  C_10
REMARK                            x       y       z     vdW  Elec       q    Type
REMARK                         _______ _______ _______ _____ _____    ______ ____
ROOT
ATOM      1  C   UNL     1      46.952   4.921  13.622  0.00  0.00    +0.000 A 
ATOM      2  C   UNL     1      47.988   5.769  13.252  0.00  0.00    +0.000 A 
ATOM      3  N   UNL     1      47.853   6.782  12.367  0.00  0.00    +0.000 NA
ATOM      4  C   UNL     1      46.631   6.955  11.818  0.00  0.00    +0.000 A 
ATOM      5  C   UNL     1      45.518   6.169  12.106  0.00  0.00    +0.000 A 
ATOM      6  C   UNL     1      45.713   5.123  13.009  0.00  0.00    +0.000 A 
ENDROOT
BRANCH   1   7
ATOM      7  C   UNL     1      47.132   3.823  14.636  0.00  0.00    +0.000 C 
BRANCH   7   8
ATOM      8  C   UNL     1      47.353   4.366  16.052  0.00  0.00    +0.000 C 
BRANCH   8   9
ATOM      9  N   UNL     1      46.755   3.484  17.052  0.00  0.00    +0.000 NA
ATOM     10  H   UNL     1      47.488   3.117  17.658  0.00  0.00    +0.000 HD
ATOM     11  H   UNL     1      46.330   2.678  16.595  0.00  0.00    +0.000 HD
ENDBRANCH   8   9
ENDBRANCH   7   8
ENDBRANCH   1   7
BRANCH   5  12
ATOM     12  C   UNL     1      44.195   6.399  11.417  0.00  0.00    +0.000 C 
BRANCH  12  13
ATOM     13  C   UNL     1      43.499   5.189  10.754  0.00  0.00    +0.000 C 
ATOM     14  C   UNL     1      42.904   4.177  11.759  0.00  0.00    +0.000 C 
ATOM     15  C   UNL     1      43.385   2.764  11.394  0.00  0.00    +0.000 C 
ATOM     16  C   UNL     1      44.271   2.985  10.216  0.00  0.00    +0.000 A 
ATOM     17  C   UNL     1      44.986   2.020   9.522  0.00  0.00    +0.000 A 
ATOM     18  C   UNL     1      45.779   2.430   8.456  0.00  0.00    +0.000 A 
ATOM     19  F   UNL     1      46.494   1.521   7.779  0.00  0.00    +0.000 F 
ATOM     20  C   UNL     1      45.849   3.773   8.074  0.00  0.00    +0.000 A 
ATOM     21  C   UNL     1      45.110   4.735   8.766  0.00  0.00    +0.000 A 
ATOM     22  C   UNL     1      44.338   4.331   9.850  0.00  0.00    +0.000 A 
ENDBRANCH  12  13
ENDBRANCH   5  12
TORSDOF 5
ENDMDL
MODEL 3
REMARK VINA RESULT:    -6.871      3.293      5.857
REMARK INTER + INTRA:          -9.059
REMARK INTER:                  -8.516
REMARK INTRA:                  -0.543
REMARK UNBOUND:                -0.380
REMARK  Name = 
REMARK  5 active torsions:
REMARK  status: ('A' for Active; 'I' for Inactive)
REMARK    1  A    between atoms: N_1  and  C_2
REMARK    2  A    between atoms: C_2  and  C_3
REMARK    3  A    between atoms: C_3  and  C_4
REMARK    4  A    between atoms: C_8  and  C_9
REMARK    5  A    between atoms: C_9  and  C_10
REMARK                            x       y       z     vdW  Elec       q    Type
REMARK                         _______ _______ _______ _____ _____    ______ ____
ROOT
ATOM      1  C   UNL     1      47.920   6.532  12.629  0.00  0.00    +0.000 A 
ATOM      2  C   UNL     1      47.797   5.651  13.696  0.00  0.00    +0.000 A 
ATOM      3  N   UNL     1      46.648   5.019  14.023  0.00  0.00    +0.000 NA
ATOM      4  C   UNL     1      45.566   5.282  13.256  0.00  0.00    +0.000 A 
ATOM      5  C   UNL     1      45.564   6.148  12.166  0.00  0.00    +0.000 A 
ATOM      6  C   UNL     1      46.770   6.792  11.881  0.00  0.00    +0.000 A 
ENDROOT
BRANCH   1   7
ATOM      7  C   UNL     1      49.226   7.193  12.276  0.00  0.00    +0.000 C 
BRANCH   7   8
ATOM      8  C   UNL     1      49.727   8.126  13.385  0.00  0.00    +0.000 C 
BRANCH   8   9
ATOM      9  N   UNL     1      51.036   7.702  13.876  0.00  0.00    +0.000 NA
ATOM     10  H   UNL     1      51.676   7.603  13.088  0.00  0.00    +0.000 HD
ATOM     11  H   UNL     1      50.964   6.780  14.306  0.00  0.00    +0.000 HD
ENDBRANCH   8   9
ENDBRANCH   7   8
ENDBRANCH   1   7
BRANCH   5  12
ATOM     12  C   UNL     1      44.303   6.423  11.384  0.00  0.00    +0.000 C 
BRANCH  12  13
ATOM     13  C   UNL     1      43.571   5.227  10.736  0.00  0.00    +0.000 C 
ATOM     14  C   UNL     1      42.953   4.240  11.755  0.00  0.00    +0.000 C 
ATOM     15  C   UNL     1      43.394   2.812  11.401  0.00  0.00    +0.000 C 
ATOM     16  C   UNL     1      44.280   2.997  10.216  0.00  0.00    +0.000 A 
ATOM     17  C   UNL     1      44.965   2.006   9.528  0.00  0.00    +0.000 A 
ATOM     18  C   UNL     1      45.763   2.385   8.454  0.00  0.00    +0.000 A 
ATOM     19  F   UNL     1      46.449   1.450   7.783  0.00  0.00    +0.000 F 
ATOM     20  C   UNL     1      45.868   3.722   8.059  0.00  0.00    +0.000 A 
ATOM     21  C   UNL     1      45.158   4.710   8.745  0.00  0.00    +0.000 A 
ATOM     22  C   UNL     1      44.381   4.337   9.837  0.00  0.00    +0.000 A 
ENDBRANCH  12  13
ENDBRANCH   5  12
TORSDOF 5
ENDMDL
MODEL 4
REMARK VINA RESULT:    -6.740      3.550      6.436
REMARK INTER + INTRA:          -8.893
REMARK INTER:                  -8.302
REMARK INTRA:                  -0.591
REMARK UNBOUND:                -0.380
REMARK  Name = 
REMARK  5 active torsions:
REMARK  status: ('A' for Active; 'I' for Inactive)
REMARK    1  A    between atoms: N_1  and  C_2
REMARK    2  A    between atoms: C_2  and  C_3
REMARK    3  A    between atoms: C_3  and  C_4
REMARK    4  A    between atoms: C_8  and  C_9
REMARK    5  A    between atoms: C_9  and  C_10
REMARK                            x       y       z     vdW  Elec       q    Type
REMARK                         _______ _______ _______ _____ _____    ______ ____
ROOT
ATOM      1  C   UNL     1      46.452   8.811  12.579  0.00  0.00    +0.000 A 
ATOM      2  C   UNL     1      47.803   8.768  12.896  0.00  0.00    +0.000 A 
ATOM      3  N   UNL     1      48.451   7.647  13.284  0.00  0.00    +0.000 NA
ATOM      4  C   UNL     1      47.717   6.516  13.369  0.00  0.00    +0.000 A 
ATOM      5  C   UNL     1      46.357   6.435  13.082  0.00  0.00    +0.000 A 
ATOM      6  C   UNL     1      45.729   7.623  12.706  0.00  0.00    +0.000 A 
ENDROOT
BRANCH   1   7
ATOM      7  C   UNL     1      45.772  10.073  12.118  0.00  0.00    +0.000 C 
BRANCH   7   8
ATOM      8  C   UNL     1      44.389   9.804  11.513  0.00  0.00    +0.000 C 
BRANCH   8   9
ATOM      9  N   UNL     1      43.379  10.680  12.102  0.00  0.00    +0.000 NA
ATOM     10  H   UNL     1      43.740  11.077  12.969  0.00  0.00    +0.000 HD
ATOM     11  H   UNL     1      42.553  10.137  12.356  0.00  0.00    +0.000 HD
ENDBRANCH   8   9
ENDBRANCH   7   8
ENDBRANCH   1   7
BRANCH   5  12
ATOM     12  C   UNL     1      45.596   5.141  13.243  0.00  0.00    +0.000 C 
BRANCH  12  13
ATOM     13  C   UNL     1      44.430   4.855  12.271  0.00  0.00    +0.000 C 
ATOM     14  C   UNL     1      43.547   3.654  12.684  0.00  0.00    +0.000 C 
ATOM     15  C   UNL     1      43.394   2.707  11.484  0.00  0.00    +0.000 C 
ATOM     16  C   UNL     1      44.213   3.352  10.417  0.00  0.00    +0.000 A 
ATOM     17  C   UNL     1      44.431   2.871   9.134  0.00  0.00    +0.000 A 
ATOM     18  C   UNL     1      45.249   3.612   8.287  0.00  0.00    +0.000 A 
ATOM     19  F   UNL     1      45.491   3.162   7.048  0.00  0.00    +0.000 F 
ATOM     20  C   UNL     1      45.827   4.815   8.700  0.00  0.00    +0.000 A 
ATOM     21  C   UNL     1      45.585   5.301   9.987  0.00  0.00    +0.000 A 
ATOM     22  C   UNL     1      44.790   4.549  10.845  0.00  0.00    +0.000 A 
ENDBRANCH  12  13
ENDBRANCH   5  12
TORSDOF 5
ENDMDL
MODEL 5
REMARK VINA RESULT:    -6.677      1.844      2.621
REMARK INTER + INTRA:          -8.814
REMARK INTER:                  -8.325
REMARK INTRA:                  -0.489
REMARK UNBOUND:                -0.380
REMARK  Name = 
REMARK  5 active torsions:
REMARK  status: ('A' for Active; 'I' for Inactive)
REMARK    1  A    between atoms: N_1  and  C_2
REMARK    2  A    between atoms: C_2  and  C_3
REMARK    3  A    between atoms: C_3  and  C_4
REMARK    4  A    between atoms: C_8  and  C_9
REMARK    5  A    between atoms: C_9  and  C_10
REMARK                            x       y       z     vdW  Elec       q    Type
REMARK                         _______ _______ _______ _____ _____    ______ ____
ROOT
ATOM      1  C   UNL     1      45.694   2.560   8.385  0.00  0.00    +0.000 A 
ATOM      2  C   UNL     1      44.665   1.988   9.121  0.00  0.00    +0.000 A 
ATOM      3  N   UNL     1      43.964   2.643  10.073  0.00  0.00    +0.000 NA
ATOM      4  C   UNL     1      44.310   3.928  10.311  0.00  0.00    +0.000 A 
ATOM      5  C   UNL     1      45.325   4.608   9.643  0.00  0.00    +0.000 A 
ATOM      6  C   UNL     1      46.033   3.881   8.683  0.00  0.00    +0.000 A 
ENDROOT
BRANCH   1   7
ATOM      7  C   UNL     1      46.431   1.807   7.309  0.00  0.00    +0.000 C 
BRANCH   7   8
ATOM      8  C   UNL     1      47.752   2.483   6.925  0.00  0.00    +0.000 C 
BRANCH   8   9
ATOM      9  N   UNL     1      48.421   1.754   5.849  0.00  0.00    +0.000 NA
ATOM     10  H   UNL     1      49.382   1.553   6.124  0.00  0.00    +0.000 HD
ATOM     11  H   UNL     1      48.477   2.339   5.015  0.00  0.00    +0.000 HD
ENDBRANCH   8   9
ENDBRANCH   7   8
ENDBRANCH   1   7
BRANCH   5  12
ATOM     12  C   UNL     1      45.681   6.031   9.996  0.00  0.00    +0.000 C 
BRANCH  12  13
ATOM     13  C   UNL     1      45.250   6.568  11.379  0.00  0.00    +0.000 C 
ATOM     14  C   UNL     1      44.488   7.913  11.322  0.00  0.00    +0.000 C 
ATOM     15  C   UNL     1      45.133   8.898  12.309  0.00  0.00    +0.000 C 
ATOM     16  C   UNL     1      46.269   8.126  12.889  0.00  0.00    +0.000 A 
ATOM     17  C   UNL     1      47.193   8.580  13.818  0.00  0.00    +0.000 A 
ATOM     18  C   UNL     1      48.199   7.709  14.224  0.00  0.00    +0.000 A 
ATOM     19  F   UNL     1      49.116   8.128  15.107  0.00  0.00    +0.000 F 
ATOM     20  C   UNL     1      48.277   6.405  13.728  0.00  0.00    +0.000 A 
ATOM     21  C   UNL     1      47.329   5.949  12.808  0.00  0.00    +0.000 A 
ATOM     22  C   UNL     1      46.339   6.827  12.381  0.00  0.00    +0.000 A 
ENDBRANCH  12  13
ENDBRANCH   5  12
TORSDOF 5
ENDMDL
MODEL 6
REMARK VINA RESULT:    -6.583      3.921      6.625
REMARK INTER + INTRA:          -8.695
REMARK INTER:                  -8.279
REMARK INTRA:                  -0.416
REMARK UNBOUND:                -0.380
REMARK  Name = 
REMARK  5 active torsions:
REMARK  status: ('A' for Active; 'I' for Inactive)
REMARK    1  A    between atoms: N_1  and  C_2
REMARK    2  A    between atoms: C_2  and  C_3
REMARK    3  A    between atoms: C_3  and  C_4
REMARK    4  A    between atoms: C_8  and  C_9
REMARK    5  A    between atoms: C_9  and  C_10
REMARK                            x       y       z     vdW  Elec       q    Type
REMARK                         _______ _______ _______ _____ _____    ______ ____
ROOT
ATOM      1  C   UNL     1      47.787   5.280  15.022  0.00  0.00    +0.000 A 
ATOM      2  C   UNL     1      48.458   6.347  15.606  0.00  0.00    +0.000 A 
ATOM      3  N   UNL     1      48.598   7.559  15.025  0.00  0.00    +0.000 NA
ATOM      4  C   UNL     1      48.051   7.715  13.799  0.00  0.00    +0.000 A 
ATOM      5  C   UNL     1      47.360   6.721  13.111  0.00  0.00    +0.000 A 
ATOM      6  C   UNL     1      47.261   5.481  13.744  0.00  0.00    +0.000 A 
ENDROOT
BRANCH   1   7
ATOM      7  C   UNL     1      47.624   3.954  15.715  0.00  0.00    +0.000 C 
BRANCH   7   8
ATOM      8  C   UNL     1      47.090   4.104  17.144  0.00  0.00    +0.000 C 
BRANCH   8   9
ATOM      9  N   UNL     1      46.613   2.824  17.663  0.00  0.00    +0.000 NA
ATOM     10  H   UNL     1      46.625   2.848  18.683  0.00  0.00    +0.000 HD
ATOM     11  H   UNL     1      47.249   2.077  17.386  0.00  0.00    +0.000 HD
ENDBRANCH   8   9
ENDBRANCH   7   8
ENDBRANCH   1   7
BRANCH   5  12
ATOM     12  C   UNL     1      46.815   6.960  11.724  0.00  0.00    +0.000 C 
BRANCH  12  13
ATOM     13  C   UNL     1      45.349   6.564  11.438  0.00  0.00    +0.000 C 
ATOM     14  C   UNL     1      44.511   6.293  12.710  0.00  0.00    +0.000 C 
ATOM     15  C   UNL     1      43.804   4.937  12.566  0.00  0.00    +0.000 C 
ATOM     16  C   UNL     1      44.268   4.434  11.241  0.00  0.00    +0.000 A 
ATOM     17  C   UNL     1      43.939   3.222  10.653  0.00  0.00    +0.000 A 
ATOM     18  C   UNL     1      44.494   2.923   9.412  0.00  0.00    +0.000 A 
ATOM     19  F   UNL     1      44.208   1.751   8.829  0.00  0.00    +0.000 F 
ATOM     20  C   UNL     1      45.348   3.818   8.762  0.00  0.00    +0.000 A 
ATOM     21  C   UNL     1      45.657   5.045   9.353  0.00  0.00    +0.000 A 
ATOM     22  C   UNL     1      45.125   5.334  10.605  0.00  0.00    +0.000 A 
ENDBRANCH  12  13
ENDBRANCH   5  12
TORSDOF 5
ENDMDL
MODEL 7
REMARK VINA RESULT:    -6.512      3.879      7.013
REMARK INTER + INTRA:          -8.605
REMARK INTER:                  -8.168
REMARK INTRA:                  -0.436
REMARK UNBOUND:                -0.380
REMARK  Name = 
REMARK  5 active torsions:
REMARK  status: ('A' for Active; 'I' for Inactive)
REMARK    1  A    between atoms: N_1  and  C_2
REMARK    2  A    between atoms: C_2  and  C_3
REMARK    3  A    between atoms: C_3  and  C_4
REMARK    4  A    between atoms: C_8  and  C_9
REMARK    5  A    between atoms: C_9  and  C_10
REMARK                            x       y       z     vdW  Elec       q    Type
REMARK                         _______ _______ _______ _____ _____    ______ ____
ROOT
ATOM      1  C   UNL     1      47.994   4.856  16.130  0.00  0.00    +0.000 A 
ATOM      2  C   UNL     1      47.819   3.509  15.841  0.00  0.00    +0.000 A 
ATOM      3  N   UNL     1      47.383   3.044  14.649  0.00  0.00    +0.000 NA
ATOM      4  C   UNL     1      47.101   3.964  13.701  0.00  0.00    +0.000 A 
ATOM      5  C   UNL     1      47.232   5.340  13.872  0.00  0.00    +0.000 A 
ATOM      6  C   UNL     1      47.665   5.771  15.127  0.00  0.00    +0.000 A 
ENDROOT
BRANCH   1   7
ATOM      7  C   UNL     1      48.512   5.335  17.460  0.00  0.00    +0.000 C 
BRANCH   7   8
ATOM      8  C   UNL     1      47.717   4.760  18.638  0.00  0.00    +0.000 C 
BRANCH   8   9
ATOM      9  N   UNL     1      46.400   5.384  18.736  0.00  0.00    +0.000 NA
ATOM     10  H   UNL     1      46.113   5.415  19.715  0.00  0.00    +0.000 HD
ATOM     11  H   UNL     1      45.707   4.814  18.252  0.00  0.00    +0.000 HD
ENDBRANCH   8   9
ENDBRANCH   7   8
ENDBRANCH   1   7
BRANCH   5  12
ATOM     12  C   UNL     1      46.854   6.307  12.777  0.00  0.00    +0.000 C 
BRANCH  12  13
ATOM     13  C   UNL     1      45.429   6.219  12.187  0.00  0.00    +0.000 C 
ATOM     14  C   UNL     1      44.386   5.603  13.149  0.00  0.00    +0.000 C 
ATOM     15  C   UNL     1      43.625   4.487  12.417  0.00  0.00    +0.000 C 
ATOM     16  C   UNL     1      44.258   4.452  11.068  0.00  0.00    +0.000 A 
ATOM     17  C   UNL     1      43.950   3.587  10.028  0.00  0.00    +0.000 A 
ATOM     18  C   UNL     1      44.673   3.698   8.845  0.00  0.00    +0.000 A 
ATOM     19  F   UNL     1      44.407   2.864   7.831  0.00  0.00    +0.000 F 
ATOM     20  C   UNL     1      45.674   4.661   8.691  0.00  0.00    +0.000 A 
ATOM     21  C   UNL     1      45.963   5.542   9.736  0.00  0.00    +0.000 A 
ATOM     22  C   UNL     1      45.261   5.414  10.929  0.00  0.00    +0.000 A 
ENDBRANCH  12  13
ENDBRANCH   5  12
TORSDOF 5
ENDMDL
MODEL 8
REMARK VINA RESULT:    -6.377      2.451      3.688
REMARK INTER + INTRA:          -8.435
REMARK INTER:                  -7.970
REMARK INTRA:                  -0.464
REMARK UNBOUND:                -0.380
REMARK  Name = 
REMARK  5 active torsions:
REMARK  status: ('A' for Active; 'I' for Inactive)
REMARK    1  A    between atoms: N_1  and  C_2
REMARK    2  A    between atoms: C_2  and  C_3
REMARK    3  A    between atoms: C_3  and  C_4
REMARK    4  A    between atoms: C_8  and  C_9
REMARK    5  A    between atoms: C_9  and  C_10
REMARK                            x       y       z     vdW  Elec       q    Type
REMARK                         _______ _______ _______ _____ _____    ______ ____
ROOT
ATOM      1  C   UNL     1      45.475   3.640   8.283  0.00  0.00    +0.000 A 
ATOM      2  C   UNL     1      44.525   2.791   8.837  0.00  0.00    +0.000 A 
ATOM      3  N   UNL     1      43.920   3.010  10.025  0.00  0.00    +0.000 NA
ATOM      4  C   UNL     1      44.283   4.123  10.700  0.00  0.00    +0.000 A 
ATOM      5  C   UNL     1      45.225   5.046  10.251  0.00  0.00    +0.000 A 
ATOM      6  C   UNL     1      45.837   4.764   9.028  0.00  0.00    +0.000 A 
ENDROOT
BRANCH   1   7
ATOM      7  C   UNL     1      46.104   3.379   6.940  0.00  0.00    +0.000 C 
BRANCH   7   8
ATOM      8  C   UNL     1      47.135   2.246   6.988  0.00  0.00    +0.000 C 
BRANCH   8   9
ATOM      9  N   UNL     1      48.422   2.685   6.453  0.00  0.00    +0.000 NA
ATOM     10  H   UNL     1      48.513   3.693   6.578  0.00  0.00    +0.000 HD
ATOM     11  H   UNL     1      48.456   2.516   5.448  0.00  0.00    +0.000 HD
ENDBRANCH   8   9
ENDBRANCH   7   8
ENDBRANCH   1   7
BRANCH   5  12
ATOM     12  C   UNL     1      45.609   6.244  11.083  0.00  0.00    +0.000 C 
BRANCH  12  13
ATOM     13  C   UNL     1      46.968   6.215  11.819  0.00  0.00    +0.000 C 
ATOM     14  C   UNL     1      47.013   5.241  13.020  0.00  0.00    +0.000 C 
ATOM     15  C   UNL     1      47.551   5.986  14.251  0.00  0.00    +0.000 C 
ATOM     16  C   UNL     1      47.774   7.374  13.755  0.00  0.00    +0.000 A 
ATOM     17  C   UNL     1      48.228   8.457  14.495  0.00  0.00    +0.000 A 
ATOM     18  C   UNL     1      48.351   9.685  13.853  0.00  0.00    +0.000 A 
ATOM     19  F   UNL     1      48.771  10.751  14.548  0.00  0.00    +0.000 F 
ATOM     20  C   UNL     1      48.042   9.833  12.498  0.00  0.00    +0.000 A 
ATOM     21  C   UNL     1      47.605   8.733  11.757  0.00  0.00    +0.000 A 
ATOM     22  C   UNL     1      47.455   7.511  12.403  0.00  0.00    +0.000 A 
ENDBRANCH  12  13
ENDBRANCH   5  12
TORSDOF 5
ENDMDL
MODEL 9
REMARK VINA RESULT:    -6.102      3.061      4.484
REMARK INTER + INTRA:          -8.087
REMARK INTER:                  -7.593
REMARK INTRA:                  -0.495
REMARK UNBOUND:                -0.380
REMARK  Name = 
REMARK  5 active torsions:
REMARK  status: ('A' for Active; 'I' for Inactive)
REMARK    1  A    between atoms: N_1  and  C_2
REMARK    2  A    between atoms: C_2  and  C_3
REMARK    3  A    between atoms: C_3  and  C_4
REMARK    4  A    between atoms: C_8  and  C_9
REMARK    5  A    between atoms: C_9  and  C_10
REMARK                            x       y       z     vdW  Elec       q    Type
REMARK                         _______ _______ _______ _____ _____    ______ ____
ROOT
ATOM      1  C   UNL     1      44.920   3.717  10.717  0.00  0.00    +0.000 A 
ATOM      2  C   UNL     1      44.923   3.233  12.018  0.00  0.00    +0.000 A 
ATOM      3  N   UNL     1      44.802   4.016  13.113  0.00  0.00    +0.000 NA
ATOM      4  C   UNL     1      44.680   5.346  12.904  0.00  0.00    +0.000 A 
ATOM      5  C   UNL     1      44.669   5.949  11.649  0.00  0.00    +0.000 A 
ATOM      6  C   UNL     1      44.818   5.100  10.550  0.00  0.00    +0.000 A 
ENDROOT
BRANCH   1   7
ATOM      7  C   UNL     1      45.024   2.810   9.519  0.00  0.00    +0.000 C 
BRANCH   7   8
ATOM      8  C   UNL     1      44.778   3.553   8.201  0.00  0.00    +0.000 C 
BRANCH   8   9
ATOM      9  N   UNL     1      46.040   3.937   7.572  0.00  0.00    +0.000 NA
ATOM     10  H   UNL     1      45.848   4.365   6.666  0.00  0.00    +0.000 HD
ATOM     11  H   UNL     1      46.602   3.107   7.384  0.00  0.00    +0.000 HD
ENDBRANCH   8   9
ENDBRANCH   7   8
ENDBRANCH   1   7
BRANCH   5  12
ATOM     12  C   UNL     1      44.574   7.447  11.498  0.00  0.00    +0.000 C 
BRANCH  12  13
ATOM     13  C   UNL     1      45.468   8.328  12.399  0.00  0.00    +0.000 C 
ATOM     14  C   UNL     1      45.132   9.837  12.336  0.00  0.00    +0.000 C 
ATOM     15  C   UNL     1      46.422  10.628  12.074  0.00  0.00    +0.000 C 
ATOM     16  C   UNL     1      47.468   9.572  11.955  0.00  0.00    +0.000 A 
ATOM     17  C   UNL     1      48.815   9.764  11.683  0.00  0.00    +0.000 A 
ATOM     18  C   UNL     1      49.632   8.642  11.591  0.00  0.00    +0.000 A 
ATOM     19  F   UNL     1      50.934   8.798  11.313  0.00  0.00    +0.000 F 
ATOM     20  C   UNL     1      49.125   7.354  11.779  0.00  0.00    +0.000 A 
ATOM     21  C   UNL     1      47.771   7.172  12.072  0.00  0.00    +0.000 A 
ATOM     22  C   UNL     1      46.947   8.290  12.138  0.00  0.00    +0.000 A 
ENDBRANCH  12  13
ENDBRANCH   5  12
TORSDOF 5
ENDMDL
