MODEL 1
REMARK VINA RESULT:    -8.344      0.000      0.000
REMARK INTER + INTRA:         -10.734
REMARK INTER:                 -10.295
REMARK INTRA:                  -0.439
REMARK UNBOUND:                -0.439
REMARK  Name = 
REMARK  4 active torsions:
REMARK  status: ('A' for Active; 'I' for Inactive)
REMARK    1  A    between atoms: C_2  and  C_4
REMARK    2  A    between atoms: N_8  and  C_9
REMARK    3  A    between atoms: C_9  and  C_10
REMARK    4  A    between atoms: C_12  and  C_13
REMARK                            x       y       z     vdW  Elec       q    Type
REMARK                         _______ _______ _______ _____ _____    ______ ____
ROOT
ATOM      1  C   UNL     1      46.543   2.526   7.351  0.00  0.00    +0.000 A 
ATOM      2  C   UNL     1      46.035   1.476   8.108  0.00  0.00    +0.000 A 
ATOM      3  C   UNL     1      45.123   1.755   9.122  0.00  0.00    +0.000 A 
ATOM      4  C   UNL     1      44.766   3.076   9.389  0.00  0.00    +0.000 A 
ATOM      5  N   UNL     1      43.866   3.296  10.436  0.00  0.00    +0.000 N 
ATOM      6  N   UNL     1      45.268   4.104   8.681  0.00  0.00    +0.000 NA
ATOM      7  C   UNL     1      46.140   3.813   7.680  0.00  0.00    +0.000 A 
ATOM      8  H   UNL     1      42.955   2.931  10.173  0.00  0.00    +0.000 HD
ENDROOT
BRANCH   1  10
ATOM      9  N   UNL     1      47.450   3.224   5.207  0.00  0.00    +0.000 N 
ATOM     10  C   UNL     1      47.499   2.331   6.242  0.00  0.00    +0.000 C 
ATOM     11  O   UNL     1      48.326   1.430   6.263  0.00  0.00    +0.000 OA
ATOM     12  H   UNL     1      48.176   3.139   4.506  0.00  0.00    +0.000 HD
ATOM     13  H   UNL     1      46.961   4.105   5.264  0.00  0.00    +0.000 HD
ENDBRANCH   1  10
BRANCH   5  14
ATOM     14  C   UNL     1      43.776   4.674  10.915  0.00  0.00    +0.000 C 
BRANCH  14  15
ATOM     15  C   UNL     1      44.879   4.907  11.926  0.00  0.00    +0.000 A 
ATOM     16  C   UNL     1      45.868   5.859  11.693  0.00  0.00    +0.000 A 
ATOM     17  C   UNL     1      46.881   6.039  12.631  0.00  0.00    +0.000 A 
ATOM     18  C   UNL     1      46.834   5.260  13.771  0.00  0.00    +0.000 A 
ATOM     19  N   UNL     1      45.868   4.345  13.987  0.00  0.00    +0.000 NA
ATOM     20  N   UNL     1      44.882   4.166  13.057  0.00  0.00    +0.000 NA
BRANCH  17  21
ATOM     21  C   UNL     1      47.989   7.021  12.446  0.00  0.00    +0.000 C 
ATOM     22  F   UNL     1      48.243   7.315  11.140  0.00  0.00    +0.000 F 
ATOM     23  F   UNL     1      47.737   8.212  13.053  0.00  0.00    +0.000 F 
ATOM     24  F   UNL     1      49.168   6.581  12.963  0.00  0.00    +0.000 F 
ENDBRANCH  17  21
ENDBRANCH  14  15
ENDBRANCH   5  14
TORSDOF 4
ENDMDL
MODEL 2
REMARK VINA RESULT:    -7.816      1.836      2.169
REMARK INTER + INTRA:         -10.083
REMARK INTER:                  -9.749
REMARK INTRA:                  -0.334
REMARK UNBOUND:                -0.439
REMARK  Name = 
REMARK  4 active torsions:
REMARK  status: ('A' for Active; 'I' for Inactive)
REMARK    1  A    between atoms: C_2  and  C_4
REMARK    2  A    between atoms: N_8  and  C_9
REMARK    3  A    between atoms: C_9  and  C_10
REMARK    4  A    between atoms: C_12  and  C_13
REMARK                            x       y       z     vdW  Elec       q    Type
REMARK                         _______ _______ _______ _____ _____    ______ ____
ROOT
ATOM      1  C   UNL     1      46.503   2.662   7.433  0.00  0.00    +0.000 A 
ATOM      2  C   UNL     1      46.029   1.717   8.338  0.00  0.00    +0.000 A 
ATOM      3  C   UNL     1      45.092   2.107   9.290  0.00  0.00    +0.000 A 
ATOM      4  C   UNL     1      44.675   3.436   9.349  0.00  0.00    +0.000 A 
ATOM      5  N   UNL     1      43.751   3.772  10.344  0.00  0.00    +0.000 N 
ATOM      6  N   UNL     1      45.142   4.366   8.497  0.00  0.00    +0.000 NA
ATOM      7  C   UNL     1      46.041   3.964   7.559  0.00  0.00    +0.000 A 
ATOM      8  H   UNL     1      42.860   3.332  10.132  0.00  0.00    +0.000 HD
ENDROOT
BRANCH   1  10
ATOM      9  N   UNL     1      47.469   3.123   5.252  0.00  0.00    +0.000 N 
ATOM     10  C   UNL     1      47.483   2.343   6.375  0.00  0.00    +0.000 C 
ATOM     11  O   UNL     1      48.298   1.441   6.510  0.00  0.00    +0.000 OA
ATOM     12  H   UNL     1      48.210   2.959   4.581  0.00  0.00    +0.000 HD
ATOM     13  H   UNL     1      46.989   4.010   5.204  0.00  0.00    +0.000 HD
ENDBRANCH   1  10
BRANCH   5  14
ATOM     14  C   UNL     1      43.595   5.202  10.606  0.00  0.00    +0.000 C 
BRANCH  14  15
ATOM     15  C   UNL     1      44.789   5.679  11.406  0.00  0.00    +0.000 A 
ATOM     16  C   UNL     1      45.288   4.920  12.462  0.00  0.00    +0.000 A 
ATOM     17  C   UNL     1      46.375   5.392  13.192  0.00  0.00    +0.000 A 
ATOM     18  C   UNL     1      46.921   6.601  12.806  0.00  0.00    +0.000 A 
ATOM     19  N   UNL     1      46.431   7.324  11.778  0.00  0.00    +0.000 NA
ATOM     20  N   UNL     1      45.356   6.860  11.072  0.00  0.00    +0.000 NA
BRANCH  17  21
ATOM     21  C   UNL     1      46.954   4.651  14.350  0.00  0.00    +0.000 C 
ATOM     22  F   UNL     1      47.954   5.325  14.983  0.00  0.00    +0.000 F 
ATOM     23  F   UNL     1      46.029   4.372  15.307  0.00  0.00    +0.000 F 
ATOM     24  F   UNL     1      47.487   3.452  13.988  0.00  0.00    +0.000 F 
ENDBRANCH  17  21
ENDBRANCH  14  15
ENDBRANCH   5  14
TORSDOF 4
ENDMDL
MODEL 3
REMARK VINA RESULT:    -7.776      3.796      6.549
REMARK INTER + INTRA:         -10.033
REMARK INTER:                  -9.590
REMARK INTRA:                  -0.443
REMARK UNBOUND:                -0.439
REMARK  Name = 
REMARK  4 active torsions:
REMARK  status: ('A' for Active; 'I' for Inactive)
REMARK    1  A    between atoms: C_2  and  C_4
REMARK    2  A    between atoms: N_8  and  C_9
REMARK    3  A    between atoms: C_9  and  C_10
REMARK    4  A    between atoms: C_12  and  C_13
REMARK                            x       y       z     vdW  Elec       q    Type
REMARK                         _______ _______ _______ _____ _____    ______ ____
ROOT
ATOM      1  C   UNL     1      46.882   5.187  13.936  0.00  0.00    +0.000 A 
ATOM      2  C   UNL     1      47.431   6.069  13.010  0.00  0.00    +0.000 A 
ATOM      3  C   UNL     1      46.742   6.320  11.828  0.00  0.00    +0.000 A 
ATOM      4  C   UNL     1      45.541   5.660  11.571  0.00  0.00    +0.000 A 
ATOM      5  N   UNL     1      44.909   5.934  10.354  0.00  0.00    +0.000 N 
ATOM      6  N   UNL     1      45.010   4.787  12.445  0.00  0.00    +0.000 NA
ATOM      7  C   UNL     1      45.684   4.569  13.606  0.00  0.00    +0.000 A 
ATOM      8  H   UNL     1      44.568   6.892  10.366  0.00  0.00    +0.000 HD
ENDROOT
BRANCH   1  10
ATOM      9  N   UNL     1      47.036   3.802  15.926  0.00  0.00    +0.000 N 
ATOM     10  C   UNL     1      47.526   4.870  15.227  0.00  0.00    +0.000 C 
ATOM     11  O   UNL     1      48.482   5.512  15.639  0.00  0.00    +0.000 OA
ATOM     12  H   UNL     1      47.550   3.534  16.757  0.00  0.00    +0.000 HD
ATOM     13  H   UNL     1      46.424   3.111  15.517  0.00  0.00    +0.000 HD
ENDBRANCH   1  10
BRANCH   5  14
ATOM     14  C   UNL     1      43.860   4.996   9.960  0.00  0.00    +0.000 C 
BRANCH  14  15
ATOM     15  C   UNL     1      44.508   3.794   9.306  0.00  0.00    +0.000 A 
ATOM     16  C   UNL     1      45.417   3.956   8.263  0.00  0.00    +0.000 A 
ATOM     17  C   UNL     1      45.984   2.833   7.667  0.00  0.00    +0.000 A 
ATOM     18  C   UNL     1      45.620   1.598   8.168  0.00  0.00    +0.000 A 
ATOM     19  N   UNL     1      44.742   1.455   9.182  0.00  0.00    +0.000 NA
ATOM     20  N   UNL     1      44.181   2.562   9.756  0.00  0.00    +0.000 NA
BRANCH  17  21
ATOM     21  C   UNL     1      46.948   2.920   6.531  0.00  0.00    +0.000 C 
ATOM     22  F   UNL     1      46.808   4.051   5.785  0.00  0.00    +0.000 F 
ATOM     23  F   UNL     1      48.244   2.904   6.944  0.00  0.00    +0.000 F 
ATOM     24  F   UNL     1      46.822   1.882   5.660  0.00  0.00    +0.000 F 
ENDBRANCH  17  21
ENDBRANCH  14  15
ENDBRANCH   5  14
TORSDOF 4
ENDMDL
MODEL 4
REMARK VINA RESULT:    -7.716      3.857      6.707
REMARK INTER + INTRA:          -9.959
REMARK INTER:                  -9.779
REMARK INTRA:                  -0.180
REMARK UNBOUND:                -0.439
REMARK  Name = 
REMARK  4 active torsions:
REMARK  status: ('A' for Active; 'I' for Inactive)
REMARK    1  A    between atoms: C_2  and  C_4
REMARK    2  A    between atoms: N_8  and  C_9
REMARK    3  A    between atoms: C_9  and  C_10
REMARK    4  A    between atoms: C_12  and  C_13
REMARK                            x       y       z     vdW  Elec       q    Type
REMARK                         _______ _______ _______ _____ _____    ______ ____
ROOT
ATOM      1  C   UNL     1      46.795   5.457  13.821  0.00  0.00    +0.000 A 
ATOM      2  C   UNL     1      45.806   6.347  13.413  0.00  0.00    +0.000 A 
ATOM      3  C   UNL     1      44.761   5.876  12.623  0.00  0.00    +0.000 A 
ATOM      4  C   UNL     1      44.742   4.541  12.221  0.00  0.00    +0.000 A 
ATOM      5  N   UNL     1      43.681   4.135  11.406  0.00  0.00    +0.000 N 
ATOM      6  N   UNL     1      45.704   3.676  12.587  0.00  0.00    +0.000 NA
ATOM      7  C   UNL     1      46.706   4.145  13.377  0.00  0.00    +0.000 A 
ATOM      8  H   UNL     1      42.820   4.154  11.947  0.00  0.00    +0.000 HD
ENDROOT
BRANCH   1  10
ATOM      9  N   UNL     1      47.791   5.686  16.026  0.00  0.00    +0.000 N 
ATOM     10  C   UNL     1      47.932   5.854  14.676  0.00  0.00    +0.000 C 
ATOM     11  O   UNL     1      48.973   6.282  14.196  0.00  0.00    +0.000 OA
ATOM     12  H   UNL     1      48.613   5.866  16.589  0.00  0.00    +0.000 HD
ATOM     13  H   UNL     1      47.061   5.122  16.436  0.00  0.00    +0.000 HD
ENDBRANCH   1  10
BRANCH   5  14
ATOM     14  C   UNL     1      43.859   2.853  10.726  0.00  0.00    +0.000 C 
BRANCH  14  15
ATOM     15  C   UNL     1      44.748   3.067   9.519  0.00  0.00    +0.000 A 
ATOM     16  C   UNL     1      45.453   2.006   8.958  0.00  0.00    +0.000 A 
ATOM     17  C   UNL     1      46.278   2.235   7.859  0.00  0.00    +0.000 A 
ATOM     18  C   UNL     1      46.334   3.525   7.368  0.00  0.00    +0.000 A 
ATOM     19  N   UNL     1      45.642   4.544   7.918  0.00  0.00    +0.000 NA
ATOM     20  N   UNL     1      44.842   4.313   9.003  0.00  0.00    +0.000 NA
BRANCH  17  21
ATOM     21  C   UNL     1      47.083   1.158   7.215  0.00  0.00    +0.000 C 
ATOM     22  F   UNL     1      46.731   0.915   5.921  0.00  0.00    +0.000 F 
ATOM     23  F   UNL     1      48.413   1.443   7.191  0.00  0.00    +0.000 F 
ATOM     24  F   UNL     1      46.970  -0.035   7.860  0.00  0.00    +0.000 F 
ENDBRANCH  17  21
ENDBRANCH  14  15
ENDBRANCH   5  14
TORSDOF 4
ENDMDL
MODEL 5
REMARK VINA RESULT:    -7.117      4.359      6.192
REMARK INTER + INTRA:          -9.220
REMARK INTER:                  -8.831
REMARK INTRA:                  -0.390
REMARK UNBOUND:                -0.439
REMARK  Name = 
REMARK  4 active torsions:
REMARK  status: ('A' for Active; 'I' for Inactive)
REMARK    1  A    between atoms: C_2  and  C_4
REMARK    2  A    between atoms: N_8  and  C_9
REMARK    3  A    between atoms: C_9  and  C_10
REMARK    4  A    between atoms: C_12  and  C_13
REMARK                            x       y       z     vdW  Elec       q    Type
REMARK                         _______ _______ _______ _____ _____    ______ ____
ROOT
ATOM      1  C   UNL     1      45.287   4.517  11.519  0.00  0.00    +0.000 A 
ATOM      2  C   UNL     1      45.831   5.756  11.843  0.00  0.00    +0.000 A 
ATOM      3  C   UNL     1      46.498   5.901  13.055  0.00  0.00    +0.000 A 
ATOM      4  C   UNL     1      46.577   4.826  13.939  0.00  0.00    +0.000 A 
ATOM      5  N   UNL     1      47.237   5.042  15.152  0.00  0.00    +0.000 N 
ATOM      6  N   UNL     1      46.034   3.629  13.649  0.00  0.00    +0.000 NA
ATOM      7  C   UNL     1      45.405   3.496  12.452  0.00  0.00    +0.000 A 
ATOM      8  H   UNL     1      48.228   5.176  14.971  0.00  0.00    +0.000 HD
ENDROOT
BRANCH   1  10
ATOM      9  N   UNL     1      45.102   4.808   9.113  0.00  0.00    +0.000 N 
ATOM     10  C   UNL     1      44.578   4.256  10.250  0.00  0.00    +0.000 C 
ATOM     11  O   UNL     1      43.583   3.545  10.208  0.00  0.00    +0.000 OA
ATOM     12  H   UNL     1      44.666   4.538   8.240  0.00  0.00    +0.000 HD
ATOM     13  H   UNL     1      46.036   5.188   9.068  0.00  0.00    +0.000 HD
ENDBRANCH   1  10
BRANCH   5  14
ATOM     14  C   UNL     1      47.011   4.032  16.185  0.00  0.00    +0.000 C 
BRANCH  14  15
ATOM     15  C   UNL     1      48.341   3.403  16.545  0.00  0.00    +0.000 A 
ATOM     16  C   UNL     1      49.227   4.055  17.399  0.00  0.00    +0.000 A 
ATOM     17  C   UNL     1      50.451   3.463  17.698  0.00  0.00    +0.000 A 
ATOM     18  C   UNL     1      50.712   2.228  17.135  0.00  0.00    +0.000 A 
ATOM     19  N   UNL     1      49.842   1.605  16.314  0.00  0.00    +0.000 NA
ATOM     20  N   UNL     1      48.646   2.198  16.016  0.00  0.00    +0.000 NA
BRANCH  17  21
ATOM     21  C   UNL     1      51.465   4.105  18.584  0.00  0.00    +0.000 C 
ATOM     22  F   UNL     1      52.018   5.231  18.053  0.00  0.00    +0.000 F 
ATOM     23  F   UNL     1      50.947   4.477  19.786  0.00  0.00    +0.000 F 
ATOM     24  F   UNL     1      52.508   3.278  18.869  0.00  0.00    +0.000 F 
ENDBRANCH  17  21
ENDBRANCH  14  15
ENDBRANCH   5  14
TORSDOF 4
ENDMDL
MODEL 6
REMARK VINA RESULT:    -6.736      4.748      7.989
REMARK INTER + INTRA:          -8.751
REMARK INTER:                  -8.466
REMARK INTRA:                  -0.285
REMARK UNBOUND:                -0.439
REMARK  Name = 
REMARK  4 active torsions:
REMARK  status: ('A' for Active; 'I' for Inactive)
REMARK    1  A    between atoms: C_2  and  C_4
REMARK    2  A    between atoms: N_8  and  C_9
REMARK    3  A    between atoms: C_9  and  C_10
REMARK    4  A    between atoms: C_12  and  C_13
REMARK                            x       y       z     vdW  Elec       q    Type
REMARK                         _______ _______ _______ _____ _____    ______ ____
ROOT
ATOM      1  C   UNL     1      49.279   4.545  17.983  0.00  0.00    +0.000 A 
ATOM      2  C   UNL     1      48.638   3.312  17.917  0.00  0.00    +0.000 A 
ATOM      3  C   UNL     1      47.817   3.036  16.828  0.00  0.00    +0.000 A 
ATOM      4  C   UNL     1      47.618   4.006  15.846  0.00  0.00    +0.000 A 
ATOM      5  N   UNL     1      46.762   3.679  14.790  0.00  0.00    +0.000 N 
ATOM      6  N   UNL     1      48.211   5.211  15.908  0.00  0.00    +0.000 NA
ATOM      7  C   UNL     1      49.027   5.457  16.968  0.00  0.00    +0.000 A 
ATOM      8  H   UNL     1      47.197   2.959  14.220  0.00  0.00    +0.000 HD
ENDROOT
BRANCH   1  10
ATOM      9  N   UNL     1      49.902   4.426  20.328  0.00  0.00    +0.000 N 
ATOM     10  C   UNL     1      50.184   4.925  19.086  0.00  0.00    +0.000 C 
ATOM     11  O   UNL     1      51.166   5.627  18.894  0.00  0.00    +0.000 OA
ATOM     12  H   UNL     1      50.586   4.611  21.052  0.00  0.00    +0.000 HD
ATOM     13  H   UNL     1      49.259   3.664  20.482  0.00  0.00    +0.000 HD
ENDBRANCH   1  10
BRANCH   5  14
ATOM     14  C   UNL     1      46.303   4.803  13.976  0.00  0.00    +0.000 C 
BRANCH  14  15
ATOM     15  C   UNL     1      45.376   4.274  12.902  0.00  0.00    +0.000 A 
ATOM     16  C   UNL     1      45.683   4.439  11.553  0.00  0.00    +0.000 A 
ATOM     17  C   UNL     1      44.803   3.960  10.587  0.00  0.00    +0.000 A 
ATOM     18  C   UNL     1      43.663   3.317  11.030  0.00  0.00    +0.000 A 
ATOM     19  N   UNL     1      43.380   3.160  12.340  0.00  0.00    +0.000 NA
ATOM     20  N   UNL     1      44.244   3.642  13.284  0.00  0.00    +0.000 NA
BRANCH  17  21
ATOM     21  C   UNL     1      45.047   4.116   9.123  0.00  0.00    +0.000 C 
ATOM     22  F   UNL     1      43.916   4.374   8.408  0.00  0.00    +0.000 F 
ATOM     23  F   UNL     1      45.905   5.133   8.842  0.00  0.00    +0.000 F 
ATOM     24  F   UNL     1      45.594   3.002   8.564  0.00  0.00    +0.000 F 
ENDBRANCH  17  21
ENDBRANCH  14  15
ENDBRANCH   5  14
TORSDOF 4
ENDMDL
MODEL 7
REMARK VINA RESULT:    -6.532      3.816      6.448
REMARK INTER + INTRA:          -8.498
REMARK INTER:                  -8.060
REMARK INTRA:                  -0.438
REMARK UNBOUND:                -0.439
REMARK  Name = 
REMARK  4 active torsions:
REMARK  status: ('A' for Active; 'I' for Inactive)
REMARK    1  A    between atoms: C_2  and  C_4
REMARK    2  A    between atoms: N_8  and  C_9
REMARK    3  A    between atoms: C_9  and  C_10
REMARK    4  A    between atoms: C_12  and  C_13
REMARK                            x       y       z     vdW  Elec       q    Type
REMARK                         _______ _______ _______ _____ _____    ______ ____
ROOT
ATOM      1  C   UNL     1      49.527   7.752  12.713  0.00  0.00    +0.000 A 
ATOM      2  C   UNL     1      49.036   7.221  13.901  0.00  0.00    +0.000 A 
ATOM      3  C   UNL     1      47.784   6.614  13.901  0.00  0.00    +0.000 A 
ATOM      4  C   UNL     1      47.028   6.583  12.730  0.00  0.00    +0.000 A 
ATOM      5  N   UNL     1      45.767   5.983  12.798  0.00  0.00    +0.000 N 
ATOM      6  N   UNL     1      47.479   7.115  11.580  0.00  0.00    +0.000 NA
ATOM      7  C   UNL     1      48.714   7.685  11.591  0.00  0.00    +0.000 A 
ATOM      8  H   UNL     1      45.882   4.984  12.943  0.00  0.00    +0.000 HD
ENDROOT
BRANCH   1  10
ATOM      9  N   UNL     1      51.827   7.973  13.466  0.00  0.00    +0.000 N 
ATOM     10  C   UNL     1      50.851   8.398  12.607  0.00  0.00    +0.000 C 
ATOM     11  O   UNL     1      51.079   9.253  11.762  0.00  0.00    +0.000 OA
ATOM     12  H   UNL     1      52.755   8.351  13.314  0.00  0.00    +0.000 HD
ATOM     13  H   UNL     1      51.755   7.121  14.001  0.00  0.00    +0.000 HD
ENDBRANCH   1  10
BRANCH   5  14
ATOM     14  C   UNL     1      44.870   6.264  11.679  0.00  0.00    +0.000 C 
BRANCH  14  15
ATOM     15  C   UNL     1      44.727   5.007  10.847  0.00  0.00    +0.000 A 
ATOM     16  C   UNL     1      45.510   4.812   9.713  0.00  0.00    +0.000 A 
ATOM     17  C   UNL     1      45.344   3.655   8.956  0.00  0.00    +0.000 A 
ATOM     18  C   UNL     1      44.407   2.739   9.395  0.00  0.00    +0.000 A 
ATOM     19  N   UNL     1      43.658   2.939  10.499  0.00  0.00    +0.000 NA
ATOM     20  N   UNL     1      43.819   4.082  11.231  0.00  0.00    +0.000 NA
BRANCH  17  21
ATOM     21  C   UNL     1      46.128   3.381   7.716  0.00  0.00    +0.000 C 
ATOM     22  F   UNL     1      46.889   2.253   7.791  0.00  0.00    +0.000 F 
ATOM     23  F   UNL     1      45.335   3.222   6.622  0.00  0.00    +0.000 F 
ATOM     24  F   UNL     1      46.988   4.390   7.409  0.00  0.00    +0.000 F 
ENDBRANCH  17  21
ENDBRANCH  14  15
ENDBRANCH   5  14
TORSDOF 4
ENDMDL
MODEL 8
REMARK VINA RESULT:    -6.369      5.043      7.917
REMARK INTER + INTRA:          -8.298
REMARK INTER:                  -7.964
REMARK INTRA:                  -0.334
REMARK UNBOUND:                -0.439
REMARK  Name = 
REMARK  4 active torsions:
REMARK  status: ('A' for Active; 'I' for Inactive)
REMARK    1  A    between atoms: C_2  and  C_4
REMARK    2  A    between atoms: N_8  and  C_9
REMARK    3  A    between atoms: C_9  and  C_10
REMARK    4  A    between atoms: C_12  and  C_13
REMARK                            x       y       z     vdW  Elec       q    Type
REMARK                         _______ _______ _______ _____ _____    ______ ____
ROOT
ATOM      1  C   UNL     1      51.096   2.372  17.496  0.00  0.00    +0.000 A 
ATOM      2  C   UNL     1      51.156   3.718  17.844  0.00  0.00    +0.000 A 
ATOM      3  C   UNL     1      50.077   4.542  17.540  0.00  0.00    +0.000 A 
ATOM      4  C   UNL     1      48.977   4.021  16.860  0.00  0.00    +0.000 A 
ATOM      5  N   UNL     1      47.935   4.904  16.559  0.00  0.00    +0.000 N 
ATOM      6  N   UNL     1      48.915   2.728  16.495  0.00  0.00    +0.000 NA
ATOM      7  C   UNL     1      49.967   1.931  16.819  0.00  0.00    +0.000 A 
ATOM      8  H   UNL     1      47.476   5.182  17.422  0.00  0.00    +0.000 HD
ENDROOT
BRANCH   1  10
ATOM      9  N   UNL     1      51.815   0.146  18.154  0.00  0.00    +0.000 N 
ATOM     10  C   UNL     1      52.180   1.414  17.793  0.00  0.00    +0.000 C 
ATOM     11  O   UNL     1      53.357   1.728  17.687  0.00  0.00    +0.000 OA
ATOM     12  H   UNL     1      52.566  -0.526  18.254  0.00  0.00    +0.000 HD
ATOM     13  H   UNL     1      50.882  -0.217  18.019  0.00  0.00    +0.000 HD
ENDBRANCH   1  10
BRANCH   5  14
ATOM     14  C   UNL     1      46.972   4.432  15.565  0.00  0.00    +0.000 C 
BRANCH  14  15
ATOM     15  C   UNL     1      47.154   5.238  14.296  0.00  0.00    +0.000 A 
ATOM     16  C   UNL     1      46.178   5.231  13.303  0.00  0.00    +0.000 A 
ATOM     17  C   UNL     1      46.380   5.966  12.138  0.00  0.00    +0.000 A 
ATOM     18  C   UNL     1      47.552   6.691  12.041  0.00  0.00    +0.000 A 
ATOM     19  N   UNL     1      48.487   6.693  13.013  0.00  0.00    +0.000 NA
ATOM     20  N   UNL     1      48.287   5.961  14.150  0.00  0.00    +0.000 NA
BRANCH  17  21
ATOM     21  C   UNL     1      45.395   5.993  11.018  0.00  0.00    +0.000 C 
ATOM     22  F   UNL     1      44.395   5.077  11.151  0.00  0.00    +0.000 F 
ATOM     23  F   UNL     1      44.780   7.200  10.892  0.00  0.00    +0.000 F 
ATOM     24  F   UNL     1      45.970   5.741   9.811  0.00  0.00    +0.000 F 
ENDBRANCH  17  21
ENDBRANCH  14  15
ENDBRANCH   5  14
TORSDOF 4
ENDMDL
MODEL 9
REMARK VINA RESULT:    -6.218      3.786      6.214
REMARK INTER + INTRA:          -8.112
REMARK INTER:                  -7.660
REMARK INTRA:                  -0.452
REMARK UNBOUND:                -0.439
REMARK  Name = 
REMARK  4 active torsions:
REMARK  status: ('A' for Active; 'I' for Inactive)
REMARK    1  A    between atoms: C_2  and  C_4
REMARK    2  A    between atoms: N_8  and  C_9
REMARK    3  A    between atoms: C_9  and  C_10
REMARK    4  A    between atoms: C_12  and  C_13
REMARK                            x       y       z     vdW  Elec       q    Type
REMARK                         _______ _______ _______ _____ _____    ______ ____
ROOT
ATOM      1  C   UNL     1      48.946   8.390  12.149  0.00  0.00    +0.000 A 
ATOM      2  C   UNL     1      47.677   8.957  12.211  0.00  0.00    +0.000 A 
ATOM      3  C   UNL     1      46.628   8.206  12.732  0.00  0.00    +0.000 A 
ATOM      4  C   UNL     1      46.852   6.893  13.143  0.00  0.00    +0.000 A 
ATOM      5  N   UNL     1      45.754   6.181  13.634  0.00  0.00    +0.000 N 
ATOM      6  N   UNL     1      48.068   6.323  13.067  0.00  0.00    +0.000 NA
ATOM      7  C   UNL     1      49.087   7.077  12.576  0.00  0.00    +0.000 A 
ATOM      8  H   UNL     1      45.467   6.582  14.522  0.00  0.00    +0.000 HD
ENDROOT
BRANCH   1  10
ATOM      9  N   UNL     1      49.918  10.353  11.097  0.00  0.00    +0.000 N 
ATOM     10  C   UNL     1      50.127   9.111  11.631  0.00  0.00    +0.000 C 
ATOM     11  O   UNL     1      51.251   8.636  11.709  0.00  0.00    +0.000 OA
ATOM     12  H   UNL     1      50.747  10.876  10.840  0.00  0.00    +0.000 HD
ATOM     13  H   UNL     1      49.064  10.874  11.233  0.00  0.00    +0.000 HD
ENDBRANCH   1  10
BRANCH   5  14
ATOM     14  C   UNL     1      45.929   4.733  13.731  0.00  0.00    +0.000 C 
BRANCH  14  15
ATOM     15  C   UNL     1      45.180   4.078  12.589  0.00  0.00    +0.000 A 
ATOM     16  C   UNL     1      45.582   4.273  11.270  0.00  0.00    +0.000 A 
ATOM     17  C   UNL     1      44.862   3.674  10.239  0.00  0.00    +0.000 A 
ATOM     18  C   UNL     1      43.782   2.889  10.593  0.00  0.00    +0.000 A 
ATOM     19  N   UNL     1      43.406   2.705  11.876  0.00  0.00    +0.000 NA
ATOM     20  N   UNL     1      44.111   3.304  12.883  0.00  0.00    +0.000 NA
BRANCH  17  21
ATOM     21  C   UNL     1      45.214   3.851   8.800  0.00  0.00    +0.000 C 
ATOM     22  F   UNL     1      44.132   4.056   7.998  0.00  0.00    +0.000 F 
ATOM     23  F   UNL     1      46.040   4.911   8.590  0.00  0.00    +0.000 F 
ATOM     24  F   UNL     1      45.858   2.769   8.284  0.00  0.00    +0.000 F 
ENDBRANCH  17  21
ENDBRANCH  14  15
ENDBRANCH   5  14
TORSDOF 4
ENDMDL
