MODEL 1
REMARK VINA RESULT:    -9.269      0.000      0.000
REMARK INTER + INTRA:         -12.375
REMARK INTER:                 -11.436
REMARK INTRA:                  -0.938
REMARK UNBOUND:                -0.938
REMARK  Name = 
REMARK  4 active torsions:
REMARK  status: ('A' for Active; 'I' for Inactive)
REMARK    1  A    between atoms: C_2  and  C_4
REMARK    2  A    between atoms: N_8  and  C_9
REMARK    3  A    between atoms: C_9  and  C_10
REMARK    4  A    between atoms: C_14  and  C_15
REMARK                            x       y       z     vdW  Elec       q    Type
REMARK                         _______ _______ _______ _____ _____    ______ ____
ROOT
ATOM      1  C   UNL     1      44.104   4.699  11.496  0.00  0.00    +0.000 C 
ATOM      2  C   UNL     1      42.782   4.776  12.250  0.00  0.00    +0.000 C 
ATOM      3  C   UNL     1      43.042   5.710  11.114  0.00  0.00    +0.000 C 
ENDROOT
BRANCH   1   8
ATOM      4  C   UNL     1      46.611   2.757   7.354  0.00  0.00    +0.000 A 
ATOM      5  C   UNL     1      46.421   4.074   7.748  0.00  0.00    +0.000 A 
ATOM      6  C   UNL     1      45.649   4.342   8.881  0.00  0.00    +0.000 A 
ATOM      7  C   UNL     1      45.112   3.292   9.617  0.00  0.00    +0.000 A 
ATOM      8  N   UNL     1      44.293   3.467  10.727  0.00  0.00    +0.000 N 
ATOM      9  N   UNL     1      45.305   2.006   9.250  0.00  0.00    +0.000 NA
ATOM     10  C   UNL     1      46.026   1.763   8.125  0.00  0.00    +0.000 A 
ATOM     11  H   UNL     1      44.154   2.568  11.177  0.00  0.00    +0.000 HD
BRANCH   4  13
ATOM     12  N   UNL     1      47.175   3.150   5.025  0.00  0.00    +0.000 N 
ATOM     13  C   UNL     1      47.351   2.372   6.136  0.00  0.00    +0.000 C 
ATOM     14  O   UNL     1      48.107   1.409   6.121  0.00  0.00    +0.000 OA
ATOM     15  H   UNL     1      47.746   2.924   4.221  0.00  0.00    +0.000 HD
ATOM     16  H   UNL     1      46.757   4.068   5.063  0.00  0.00    +0.000 HD
ENDBRANCH   4  13
ENDBRANCH   1   8
BRANCH   1  17
ATOM     17  C   UNL     1      45.374   5.184  12.188  0.00  0.00    +0.000 A 
ATOM     18  C   UNL     1      45.949   6.428  11.887  0.00  0.00    +0.000 A 
ATOM     19  C   UNL     1      47.028   6.926  12.615  0.00  0.00    +0.000 A 
ATOM     20  C   UNL     1      47.531   6.204  13.697  0.00  0.00    +0.000 A 
ATOM     21  C   UNL     1      46.982   4.962  14.055  0.00  0.00    +0.000 A 
ATOM     22  C   UNL     1      45.952   4.451  13.246  0.00  0.00    +0.000 A 
BRANCH  21  23
ATOM     23  C   UNL     1      47.382   4.258  15.290  0.00  0.00    +0.000 A 
ATOM     24  C   UNL     1      47.190   4.831  16.551  0.00  0.00    +0.000 A 
ATOM     25  C   UNL     1      47.517   4.107  17.696  0.00  0.00    +0.000 A 
ATOM     26  C   UNL     1      48.032   2.827  17.557  0.00  0.00    +0.000 A 
ATOM     27  C   UNL     1      48.194   2.323  16.278  0.00  0.00    +0.000 A 
ATOM     28  N   UNL     1      47.878   3.001  15.150  0.00  0.00    +0.000 NA
ENDBRANCH  21  23
ENDBRANCH   1  17
TORSDOF 4
ENDMDL
MODEL 2
REMARK VINA RESULT:    -8.856      1.994      3.949
REMARK INTER + INTRA:         -11.866
REMARK INTER:                 -10.759
REMARK INTRA:                  -1.106
REMARK UNBOUND:                -0.938
REMARK  Name = 
REMARK  4 active torsions:
REMARK  status: ('A' for Active; 'I' for Inactive)
REMARK    1  A    between atoms: C_2  and  C_4
REMARK    2  A    between atoms: N_8  and  C_9
REMARK    3  A    between atoms: C_9  and  C_10
REMARK    4  A    between atoms: C_14  and  C_15
REMARK                            x       y       z     vdW  Elec       q    Type
REMARK                         _______ _______ _______ _____ _____    ______ ____
ROOT
ATOM      1  C   UNL     1      43.941   4.967  11.529  0.00  0.00    +0.000 C 
ATOM      2  C   UNL     1      42.548   5.163  12.115  0.00  0.00    +0.000 C 
ATOM      3  C   UNL     1      43.008   6.034  10.994  0.00  0.00    +0.000 C 
ENDROOT
BRANCH   1   8
ATOM      4  C   UNL     1      46.494   2.805   7.527  0.00  0.00    +0.000 A 
ATOM      5  C   UNL     1      46.313   4.141   7.855  0.00  0.00    +0.000 A 
ATOM      6  C   UNL     1      45.525   4.471   8.961  0.00  0.00    +0.000 A 
ATOM      7  C   UNL     1      44.965   3.462   9.736  0.00  0.00    +0.000 A 
ATOM      8  N   UNL     1      44.130   3.698  10.823  0.00  0.00    +0.000 N 
ATOM      9  N   UNL     1      45.150   2.158   9.434  0.00  0.00    +0.000 NA
ATOM     10  C   UNL     1      45.886   1.855   8.334  0.00  0.00    +0.000 A 
ATOM     11  H   UNL     1      43.973   2.822  11.312  0.00  0.00    +0.000 HD
BRANCH   4  13
ATOM     12  N   UNL     1      47.102   3.082   5.193  0.00  0.00    +0.000 N 
ATOM     13  C   UNL     1      47.251   2.356   6.341  0.00  0.00    +0.000 C 
ATOM     14  O   UNL     1      47.996   1.385   6.385  0.00  0.00    +0.000 OA
ATOM     15  H   UNL     1      47.684   2.811   4.410  0.00  0.00    +0.000 HD
ATOM     16  H   UNL     1      46.694   4.005   5.179  0.00  0.00    +0.000 HD
ENDBRANCH   4  13
ENDBRANCH   1   8
BRANCH   1  17
ATOM     17  C   UNL     1      45.152   5.387  12.356  0.00  0.00    +0.000 A 
ATOM     18  C   UNL     1      45.753   4.515  13.278  0.00  0.00    +0.000 A 
ATOM     19  C   UNL     1      46.937   4.851  13.930  0.00  0.00    +0.000 A 
ATOM     20  C   UNL     1      47.575   6.056  13.639  0.00  0.00    +0.000 A 
ATOM     21  C   UNL     1      47.030   6.958  12.712  0.00  0.00    +0.000 A 
ATOM     22  C   UNL     1      45.790   6.625  12.137  0.00  0.00    +0.000 A 
BRANCH  21  23
ATOM     23  C   UNL     1      47.764   8.158  12.263  0.00  0.00    +0.000 A 
ATOM     24  C   UNL     1      49.100   8.086  11.856  0.00  0.00    +0.000 A 
ATOM     25  C   UNL     1      49.737   9.227  11.374  0.00  0.00    +0.000 A 
ATOM     26  C   UNL     1      49.029  10.417  11.312  0.00  0.00    +0.000 A 
ATOM     27  C   UNL     1      47.709  10.414  11.730  0.00  0.00    +0.000 A 
ATOM     28  N   UNL     1      47.063   9.319  12.195  0.00  0.00    +0.000 NA
ENDBRANCH  21  23
ENDBRANCH   1  17
TORSDOF 4
ENDMDL
MODEL 3
REMARK VINA RESULT:    -6.930      3.145      7.650
REMARK INTER + INTRA:          -9.488
REMARK INTER:                  -9.599
REMARK INTRA:                   0.110
REMARK UNBOUND:                -0.938
REMARK  Name = 
REMARK  4 active torsions:
REMARK  status: ('A' for Active; 'I' for Inactive)
REMARK    1  A    between atoms: C_2  and  C_4
REMARK    2  A    between atoms: N_8  and  C_9
REMARK    3  A    between atoms: C_9  and  C_10
REMARK    4  A    between atoms: C_14  and  C_15
REMARK                            x       y       z     vdW  Elec       q    Type
REMARK                         _______ _______ _______ _____ _____    ______ ____
ROOT
ATOM      1  C   UNL     1      48.604   7.888  12.581  0.00  0.00    +0.000 C 
ATOM      2  C   UNL     1      49.708   7.358  11.675  0.00  0.00    +0.000 C 
ATOM      3  C   UNL     1      49.452   8.827  11.748  0.00  0.00    +0.000 C 
ENDROOT
BRANCH   1   8
ATOM      4  C   UNL     1      47.799   4.570  16.525  0.00  0.00    +0.000 A 
ATOM      5  C   UNL     1      47.234   4.606  15.257  0.00  0.00    +0.000 A 
ATOM      6  C   UNL     1      47.574   5.648  14.390  0.00  0.00    +0.000 A 
ATOM      7  C   UNL     1      48.495   6.609  14.791  0.00  0.00    +0.000 A 
ATOM      8  N   UNL     1      48.854   7.705  14.013  0.00  0.00    +0.000 N 
ATOM      9  N   UNL     1      49.061   6.572  16.017  0.00  0.00    +0.000 NA
ATOM     10  C   UNL     1      48.692   5.576  16.862  0.00  0.00    +0.000 A 
ATOM     11  H   UNL     1      49.641   8.173  14.450  0.00  0.00    +0.000 HD
BRANCH   4  13
ATOM     12  N   UNL     1      48.275   3.449  18.626  0.00  0.00    +0.000 N 
ATOM     13  C   UNL     1      47.454   3.551  17.538  0.00  0.00    +0.000 C 
ATOM     14  O   UNL     1      46.464   2.839  17.421  0.00  0.00    +0.000 OA
ATOM     15  H   UNL     1      47.986   2.803  19.349  0.00  0.00    +0.000 HD
ATOM     16  H   UNL     1      48.948   4.160  18.871  0.00  0.00    +0.000 HD
ENDBRANCH   4  13
ENDBRANCH   1   8
BRANCH   1  17
ATOM     17  C   UNL     1      47.150   7.652  12.185  0.00  0.00    +0.000 A 
ATOM     18  C   UNL     1      46.190   8.674  12.262  0.00  0.00    +0.000 A 
ATOM     19  C   UNL     1      44.898   8.495  11.771  0.00  0.00    +0.000 A 
ATOM     20  C   UNL     1      44.549   7.297  11.149  0.00  0.00    +0.000 A 
ATOM     21  C   UNL     1      45.474   6.248  11.027  0.00  0.00    +0.000 A 
ATOM     22  C   UNL     1      46.741   6.431  11.609  0.00  0.00    +0.000 A 
BRANCH  21  23
ATOM     23  C   UNL     1      45.185   5.039  10.230  0.00  0.00    +0.000 A 
ATOM     24  C   UNL     1      45.692   4.880   8.937  0.00  0.00    +0.000 A 
ATOM     25  C   UNL     1      45.454   3.695   8.243  0.00  0.00    +0.000 A 
ATOM     26  C   UNL     1      44.712   2.696   8.854  0.00  0.00    +0.000 A 
ATOM     27  C   UNL     1      44.243   2.922  10.137  0.00  0.00    +0.000 A 
ATOM     28  N   UNL     1      44.465   4.059  10.836  0.00  0.00    +0.000 NA
ENDBRANCH  21  23
ENDBRANCH   1  17
TORSDOF 4
ENDMDL
MODEL 4
REMARK VINA RESULT:    -6.780      3.303      7.231
REMARK INTER + INTRA:          -9.304
REMARK INTER:                  -8.492
REMARK INTRA:                  -0.812
REMARK UNBOUND:                -0.938
REMARK  Name = 
REMARK  4 active torsions:
REMARK  status: ('A' for Active; 'I' for Inactive)
REMARK    1  A    between atoms: C_2  and  C_4
REMARK    2  A    between atoms: N_8  and  C_9
REMARK    3  A    between atoms: C_9  and  C_10
REMARK    4  A    between atoms: C_14  and  C_15
REMARK                            x       y       z     vdW  Elec       q    Type
REMARK                         _______ _______ _______ _____ _____    ______ ____
ROOT
ATOM      1  C   UNL     1      44.046   5.596  11.531  0.00  0.00    +0.000 C 
ATOM      2  C   UNL     1      42.683   6.261  11.390  0.00  0.00    +0.000 C 
ATOM      3  C   UNL     1      43.145   5.798  12.731  0.00  0.00    +0.000 C 
ENDROOT
BRANCH   1   8
ATOM      4  C   UNL     1      48.707   6.987  13.416  0.00  0.00    +0.000 A 
ATOM      5  C   UNL     1      47.688   6.252  14.005  0.00  0.00    +0.000 A 
ATOM      6  C   UNL     1      46.493   6.063  13.306  0.00  0.00    +0.000 A 
ATOM      7  C   UNL     1      46.353   6.581  12.023  0.00  0.00    +0.000 A 
ATOM      8  N   UNL     1      45.184   6.484  11.275  0.00  0.00    +0.000 N 
ATOM      9  N   UNL     1      47.345   7.284  11.437  0.00  0.00    +0.000 NA
ATOM     10  C   UNL     1      48.486   7.491  12.143  0.00  0.00    +0.000 A 
ATOM     11  H   UNL     1      45.373   6.799  10.329  0.00  0.00    +0.000 HD
BRANCH   4  13
ATOM     12  N   UNL     1      50.993   7.803  13.330  0.00  0.00    +0.000 N 
ATOM     13  C   UNL     1      49.980   7.300  14.097  0.00  0.00    +0.000 C 
ATOM     14  O   UNL     1      50.120   7.135  15.303  0.00  0.00    +0.000 OA
ATOM     15  H   UNL     1      51.832   8.086  13.820  0.00  0.00    +0.000 HD
ATOM     16  H   UNL     1      50.844   8.169  12.401  0.00  0.00    +0.000 HD
ENDBRANCH   4  13
ENDBRANCH   1   8
BRANCH   1  17
ATOM     17  C   UNL     1      44.239   4.189  10.975  0.00  0.00    +0.000 A 
ATOM     18  C   UNL     1      43.443   3.113  11.400  0.00  0.00    +0.000 A 
ATOM     19  C   UNL     1      43.530   1.862  10.794  0.00  0.00    +0.000 A 
ATOM     20  C   UNL     1      44.388   1.669   9.712  0.00  0.00    +0.000 A 
ATOM     21  C   UNL     1      45.194   2.714   9.233  0.00  0.00    +0.000 A 
ATOM     22  C   UNL     1      45.144   3.939   9.922  0.00  0.00    +0.000 A 
BRANCH  21  23
ATOM     23  C   UNL     1      45.984   2.587   7.992  0.00  0.00    +0.000 A 
ATOM     24  C   UNL     1      46.027   3.615   7.045  0.00  0.00    +0.000 A 
ATOM     25  C   UNL     1      46.838   3.484   5.920  0.00  0.00    +0.000 A 
ATOM     26  C   UNL     1      47.586   2.328   5.762  0.00  0.00    +0.000 A 
ATOM     27  C   UNL     1      47.496   1.352   6.739  0.00  0.00    +0.000 A 
ATOM     28  N   UNL     1      46.722   1.456   7.845  0.00  0.00    +0.000 NA
ENDBRANCH  21  23
ENDBRANCH   1  17
TORSDOF 4
ENDMDL
MODEL 5
REMARK VINA RESULT:    -6.632      4.087      8.547
REMARK INTER + INTRA:          -9.121
REMARK INTER:                  -8.177
REMARK INTRA:                  -0.945
REMARK UNBOUND:                -0.938
REMARK  Name = 
REMARK  4 active torsions:
REMARK  status: ('A' for Active; 'I' for Inactive)
REMARK    1  A    between atoms: C_2  and  C_4
REMARK    2  A    between atoms: N_8  and  C_9
REMARK    3  A    between atoms: C_9  and  C_10
REMARK    4  A    between atoms: C_14  and  C_15
REMARK                            x       y       z     vdW  Elec       q    Type
REMARK                         _______ _______ _______ _____ _____    ______ ____
ROOT
ATOM      1  C   UNL     1      48.987   7.802  12.536  0.00  0.00    +0.000 C 
ATOM      2  C   UNL     1      49.964   7.866  11.369  0.00  0.00    +0.000 C 
ATOM      3  C   UNL     1      49.689   9.094  12.171  0.00  0.00    +0.000 C 
ENDROOT
BRANCH   1   8
ATOM      4  C   UNL     1      48.799   7.465  17.738  0.00  0.00    +0.000 A 
ATOM      5  C   UNL     1      48.460   8.516  16.897  0.00  0.00    +0.000 A 
ATOM      6  C   UNL     1      48.661   8.380  15.522  0.00  0.00    +0.000 A 
ATOM      7  C   UNL     1      49.162   7.188  15.011  0.00  0.00    +0.000 A 
ATOM      8  N   UNL     1      49.439   6.982  13.663  0.00  0.00    +0.000 N 
ATOM      9  N   UNL     1      49.480   6.155  15.820  0.00  0.00    +0.000 NA
ATOM     10  C   UNL     1      49.314   6.316  17.158  0.00  0.00    +0.000 A 
ATOM     11  H   UNL     1      49.649   6.000  13.518  0.00  0.00    +0.000 HD
BRANCH   4  13
ATOM     12  N   UNL     1      47.669   8.285  19.726  0.00  0.00    +0.000 N 
ATOM     13  C   UNL     1      48.689   7.535  19.210  0.00  0.00    +0.000 C 
ATOM     14  O   UNL     1      49.465   6.933  19.941  0.00  0.00    +0.000 OA
ATOM     15  H   UNL     1      47.557   8.262  20.731  0.00  0.00    +0.000 HD
ATOM     16  H   UNL     1      46.884   8.594  19.171  0.00  0.00    +0.000 HD
ENDBRANCH   4  13
ENDBRANCH   1   8
BRANCH   1  17
ATOM     17  C   UNL     1      47.497   7.658  12.241  0.00  0.00    +0.000 A 
ATOM     18  C   UNL     1      46.612   8.739  12.372  0.00  0.00    +0.000 A 
ATOM     19  C   UNL     1      45.280   8.641  11.971  0.00  0.00    +0.000 A 
ATOM     20  C   UNL     1      44.814   7.464  11.386  0.00  0.00    +0.000 A 
ATOM     21  C   UNL     1      45.660   6.358  11.213  0.00  0.00    +0.000 A 
ATOM     22  C   UNL     1      46.973   6.462  11.706  0.00  0.00    +0.000 A 
BRANCH  21  23
ATOM     23  C   UNL     1      45.242   5.165  10.449  0.00  0.00    +0.000 A 
ATOM     24  C   UNL     1      45.618   4.984   9.114  0.00  0.00    +0.000 A 
ATOM     25  C   UNL     1      45.261   3.814   8.449  0.00  0.00    +0.000 A 
ATOM     26  C   UNL     1      44.532   2.849   9.129  0.00  0.00    +0.000 A 
ATOM     27  C   UNL     1      44.196   3.095  10.449  0.00  0.00    +0.000 A 
ATOM     28  N   UNL     1      44.536   4.219  11.122  0.00  0.00    +0.000 NA
ENDBRANCH  21  23
ENDBRANCH   1  17
TORSDOF 4
ENDMDL
MODEL 6
REMARK VINA RESULT:    -6.594      3.588      5.173
REMARK INTER + INTRA:          -9.074
REMARK INTER:                  -8.170
REMARK INTRA:                  -0.905
REMARK UNBOUND:                -0.938
REMARK  Name = 
REMARK  4 active torsions:
REMARK  status: ('A' for Active; 'I' for Inactive)
REMARK    1  A    between atoms: C_2  and  C_4
REMARK    2  A    between atoms: N_8  and  C_9
REMARK    3  A    between atoms: C_9  and  C_10
REMARK    4  A    between atoms: C_14  and  C_15
REMARK                            x       y       z     vdW  Elec       q    Type
REMARK                         _______ _______ _______ _____ _____    ______ ____
ROOT
ATOM      1  C   UNL     1      48.369   8.438  12.722  0.00  0.00    +0.000 C 
ATOM      2  C   UNL     1      49.137   9.540  12.002  0.00  0.00    +0.000 C 
ATOM      3  C   UNL     1      49.516   8.113  11.788  0.00  0.00    +0.000 C 
ENDROOT
BRANCH   1   8
ATOM      4  C   UNL     1      44.587   4.898  12.113  0.00  0.00    +0.000 A 
ATOM      5  C   UNL     1      45.947   4.726  12.328  0.00  0.00    +0.000 A 
ATOM      6  C   UNL     1      46.774   5.850  12.398  0.00  0.00    +0.000 A 
ATOM      7  C   UNL     1      46.223   7.121  12.288  0.00  0.00    +0.000 A 
ATOM      8  N   UNL     1      46.975   8.291  12.297  0.00  0.00    +0.000 N 
ATOM      9  N   UNL     1      44.898   7.299  12.094  0.00  0.00    +0.000 NA
ATOM     10  C   UNL     1      44.113   6.196  11.990  0.00  0.00    +0.000 A 
ATOM     11  H   UNL     1      46.346   9.085  12.354  0.00  0.00    +0.000 HD
BRANCH   4  13
ATOM     12  N   UNL     1      43.954   2.601  12.582  0.00  0.00    +0.000 N 
ATOM     13  C   UNL     1      43.641   3.775  11.956  0.00  0.00    +0.000 C 
ATOM     14  O   UNL     1      42.608   3.891  11.308  0.00  0.00    +0.000 OA
ATOM     15  H   UNL     1      43.262   1.864  12.532  0.00  0.00    +0.000 HD
ATOM     16  H   UNL     1      44.658   2.538  13.304  0.00  0.00    +0.000 HD
ENDBRANCH   4  13
ENDBRANCH   1   8
BRANCH   1  17
ATOM     17  C   UNL     1      48.565   8.268  14.226  0.00  0.00    +0.000 A 
ATOM     18  C   UNL     1      48.309   9.314  15.125  0.00  0.00    +0.000 A 
ATOM     19  C   UNL     1      48.358   9.115  16.504  0.00  0.00    +0.000 A 
ATOM     20  C   UNL     1      48.621   7.845  17.016  0.00  0.00    +0.000 A 
ATOM     21  C   UNL     1      48.866   6.758  16.162  0.00  0.00    +0.000 A 
ATOM     22  C   UNL     1      48.894   7.013  14.780  0.00  0.00    +0.000 A 
BRANCH  21  23
ATOM     23  C   UNL     1      48.981   5.376  16.670  0.00  0.00    +0.000 A 
ATOM     24  C   UNL     1      47.888   4.504  16.669  0.00  0.00    +0.000 A 
ATOM     25  C   UNL     1      48.054   3.188  17.092  0.00  0.00    +0.000 A 
ATOM     26  C   UNL     1      49.308   2.770  17.511  0.00  0.00    +0.000 A 
ATOM     27  C   UNL     1      50.345   3.686  17.484  0.00  0.00    +0.000 A 
ATOM     28  N   UNL     1      50.213   4.968  17.071  0.00  0.00    +0.000 NA
ENDBRANCH  21  23
ENDBRANCH   1  17
TORSDOF 4
ENDMDL
MODEL 7
REMARK VINA RESULT:    -6.570      3.893      8.448
REMARK INTER + INTRA:          -9.045
REMARK INTER:                  -8.343
REMARK INTRA:                  -0.702
REMARK UNBOUND:                -0.938
REMARK  Name = 
REMARK  4 active torsions:
REMARK  status: ('A' for Active; 'I' for Inactive)
REMARK    1  A    between atoms: C_2  and  C_4
REMARK    2  A    between atoms: N_8  and  C_9
REMARK    3  A    between atoms: C_9  and  C_10
REMARK    4  A    between atoms: C_14  and  C_15
REMARK                            x       y       z     vdW  Elec       q    Type
REMARK                         _______ _______ _______ _____ _____    ______ ____
ROOT
ATOM      1  C   UNL     1      48.264   4.877  17.319  0.00  0.00    +0.000 C 
ATOM      2  C   UNL     1      47.202   5.166  18.372  0.00  0.00    +0.000 C 
ATOM      3  C   UNL     1      47.219   3.843  17.683  0.00  0.00    +0.000 C 
ENDROOT
BRANCH   1   8
ATOM      4  C   UNL     1      52.379   1.687  17.644  0.00  0.00    +0.000 A 
ATOM      5  C   UNL     1      51.068   1.421  17.274  0.00  0.00    +0.000 A 
ATOM      6  C   UNL     1      50.123   2.448  17.327  0.00  0.00    +0.000 A 
ATOM      7  C   UNL     1      50.511   3.726  17.713  0.00  0.00    +0.000 A 
ATOM      8  N   UNL     1      49.630   4.794  17.842  0.00  0.00    +0.000 N 
ATOM      9  N   UNL     1      51.788   3.997  18.060  0.00  0.00    +0.000 NA
ATOM     10  C   UNL     1      52.687   2.980  18.039  0.00  0.00    +0.000 A 
ATOM     11  H   UNL     1      50.165   5.645  17.986  0.00  0.00    +0.000 HD
BRANCH   4  13
ATOM     12  N   UNL     1      53.175  -0.477  18.407  0.00  0.00    +0.000 N 
ATOM     13  C   UNL     1      53.436   0.656  17.687  0.00  0.00    +0.000 C 
ATOM     14  O   UNL     1      54.495   0.797  17.090  0.00  0.00    +0.000 OA
ATOM     15  H   UNL     1      53.873  -1.208  18.366  0.00  0.00    +0.000 HD
ATOM     16  H   UNL     1      52.245  -0.730  18.709  0.00  0.00    +0.000 HD
ENDBRANCH   4  13
ENDBRANCH   1   8
BRANCH   1  17
ATOM     17  C   UNL     1      48.173   5.582  15.969  0.00  0.00    +0.000 A 
ATOM     18  C   UNL     1      49.131   6.523  15.564  0.00  0.00    +0.000 A 
ATOM     19  C   UNL     1      49.121   7.063  14.279  0.00  0.00    +0.000 A 
ATOM     20  C   UNL     1      48.172   6.636  13.351  0.00  0.00    +0.000 A 
ATOM     21  C   UNL     1      47.201   5.682  13.697  0.00  0.00    +0.000 A 
ATOM     22  C   UNL     1      47.187   5.224  15.026  0.00  0.00    +0.000 A 
BRANCH  21  23
ATOM     23  C   UNL     1      46.293   5.092  12.693  0.00  0.00    +0.000 A 
ATOM     24  C   UNL     1      46.002   5.751  11.495  0.00  0.00    +0.000 A 
ATOM     25  C   UNL     1      45.195   5.130  10.543  0.00  0.00    +0.000 A 
ATOM     26  C   UNL     1      44.693   3.865  10.810  0.00  0.00    +0.000 A 
ATOM     27  C   UNL     1      45.024   3.272  12.016  0.00  0.00    +0.000 A 
ATOM     28  N   UNL     1      45.811   3.849  12.954  0.00  0.00    +0.000 NA
ENDBRANCH  21  23
ENDBRANCH   1  17
TORSDOF 4
ENDMDL
