MODEL 1
REMARK VINA RESULT:    -9.239      0.000      0.000
REMARK INTER + INTRA:         -12.269
REMARK INTER:                 -11.399
REMARK INTRA:                  -0.870
REMARK UNBOUND:                -0.870
REMARK  Name = 
REMARK  4 active torsions:
REMARK  status: ('A' for Active; 'I' for Inactive)
REMARK    1  A    between atoms: C_2  and  C_4
REMARK    2  A    between atoms: N_8  and  C_9
REMARK    3  A    between atoms: C_9  and  C_10
REMARK    4  A    between atoms: C_15  and  C_16
REMARK                            x       y       z     vdW  Elec       q    Type
REMARK                         _______ _______ _______ _____ _____    ______ ____
ROOT
ATOM      1  C   UNL     1      43.618   4.861  11.109  0.00  0.00    +0.000 C 
ENDROOT
BRANCH   1   6
ATOM      2  C   UNL     1      46.372   2.257   7.636  0.00  0.00    +0.000 A 
ATOM      3  C   UNL     1      45.757   1.789   8.791  0.00  0.00    +0.000 A 
ATOM      4  C   UNL     1      44.929   2.646   9.519  0.00  0.00    +0.000 A 
ATOM      5  C   UNL     1      44.738   3.953   9.087  0.00  0.00    +0.000 A 
ATOM      6  N   UNL     1      43.853   4.824   9.680  0.00  0.00    +0.000 N 
ATOM      7  N   UNL     1      45.349   4.424   7.982  0.00  0.00    +0.000 NA
ATOM      8  C   UNL     1      46.162   3.581   7.287  0.00  0.00    +0.000 A 
ATOM      9  H   UNL     1      43.926   5.722   9.213  0.00  0.00    +0.000 HD
BRANCH   2  11
ATOM     10  N   UNL     1      48.300   2.004   6.185  0.00  0.00    +0.000 N 
ATOM     11  C   UNL     1      47.227   1.404   6.786  0.00  0.00    +0.000 C 
ATOM     12  O   UNL     1      47.011   0.207   6.654  0.00  0.00    +0.000 OA
ATOM     13  H   UNL     1      48.939   1.393   5.690  0.00  0.00    +0.000 HD
ATOM     14  H   UNL     1      48.650   2.907   6.470  0.00  0.00    +0.000 HD
ENDBRANCH   2  11
ENDBRANCH   1   6
BRANCH   1  15
ATOM     15  C   UNL     1      44.825   5.260  11.932  0.00  0.00    +0.000 A 
ATOM     16  C   UNL     1      45.206   4.468  13.023  0.00  0.00    +0.000 A 
ATOM     17  C   UNL     1      46.249   4.874  13.845  0.00  0.00    +0.000 A 
ATOM     18  F   UNL     1      46.598   4.107  14.888  0.00  0.00    +0.000 F 
ATOM     19  C   UNL     1      46.934   6.063  13.615  0.00  0.00    +0.000 A 
ATOM     20  C   UNL     1      46.593   6.883  12.530  0.00  0.00    +0.000 A 
ATOM     21  C   UNL     1      45.524   6.460  11.708  0.00  0.00    +0.000 A 
BRANCH  20  22
ATOM     22  C   UNL     1      47.335   8.130  12.229  0.00  0.00    +0.000 A 
ATOM     23  C   UNL     1      46.707   9.392  12.265  0.00  0.00    +0.000 A 
ATOM     24  C   UNL     1      47.388  10.563  11.910  0.00  0.00    +0.000 A 
ATOM     25  C   UNL     1      48.723  10.498  11.531  0.00  0.00    +0.000 A 
ATOM     26  C   UNL     1      49.364   9.269  11.515  0.00  0.00    +0.000 A 
ATOM     27  F   UNL     1      50.653   9.201  11.154  0.00  0.00    +0.000 F 
ATOM     28  C   UNL     1      48.689   8.097  11.854  0.00  0.00    +0.000 A 
ENDBRANCH  20  22
ENDBRANCH   1  15
TORSDOF 4
ENDMDL
MODEL 2
REMARK VINA RESULT:    -8.777      1.978      4.264
REMARK INTER + INTRA:         -11.699
REMARK INTER:                 -10.954
REMARK INTRA:                  -0.745
REMARK UNBOUND:                -0.870
REMARK  Name = 
REMARK  4 active torsions:
REMARK  status: ('A' for Active; 'I' for Inactive)
REMARK    1  A    between atoms: C_2  and  C_4
REMARK    2  A    between atoms: N_8  and  C_9
REMARK    3  A    between atoms: C_9  and  C_10
REMARK    4  A    between atoms: C_15  and  C_16
REMARK                            x       y       z     vdW  Elec       q    Type
REMARK                         _______ _______ _______ _____ _____    ______ ____
ROOT
ATOM      1  C   UNL     1      44.388   5.113  11.404  0.00  0.00    +0.000 C 
ENDROOT
BRANCH   1   6
ATOM      2  C   UNL     1      46.545   2.520   7.525  0.00  0.00    +0.000 A 
ATOM      3  C   UNL     1      46.025   2.033   8.718  0.00  0.00    +0.000 A 
ATOM      4  C   UNL     1      45.348   2.903   9.574  0.00  0.00    +0.000 A 
ATOM      5  C   UNL     1      45.210   4.243   9.228  0.00  0.00    +0.000 A 
ATOM      6  N   UNL     1      44.464   5.140   9.958  0.00  0.00    +0.000 N 
ATOM      7  N   UNL     1      45.732   4.731   8.086  0.00  0.00    +0.000 NA
ATOM      8  C   UNL     1      46.400   3.873   7.266  0.00  0.00    +0.000 A 
ATOM      9  H   UNL     1      44.554   6.055   9.529  0.00  0.00    +0.000 HD
BRANCH   2  11
ATOM     10  N   UNL     1      48.122   2.267   5.699  0.00  0.00    +0.000 N 
ATOM     11  C   UNL     1      47.236   1.657   6.545  0.00  0.00    +0.000 C 
ATOM     12  O   UNL     1      47.055   0.448   6.514  0.00  0.00    +0.000 OA
ATOM     13  H   UNL     1      48.668   1.657   5.103  0.00  0.00    +0.000 HD
ATOM     14  H   UNL     1      48.481   3.197   5.862  0.00  0.00    +0.000 HD
ENDBRANCH   2  11
ENDBRANCH   1   6
BRANCH   1  15
ATOM     15  C   UNL     1      45.608   5.673  12.106  0.00  0.00    +0.000 A 
ATOM     16  C   UNL     1      46.411   6.611  11.446  0.00  0.00    +0.000 A 
ATOM     17  C   UNL     1      47.586   7.059  12.037  0.00  0.00    +0.000 A 
ATOM     18  F   UNL     1      48.345   7.954  11.389  0.00  0.00    +0.000 F 
ATOM     19  C   UNL     1      47.995   6.590  13.281  0.00  0.00    +0.000 A 
ATOM     20  C   UNL     1      47.219   5.656  13.982  0.00  0.00    +0.000 A 
ATOM     21  C   UNL     1      46.031   5.206  13.363  0.00  0.00    +0.000 A 
BRANCH  20  22
ATOM     22  C   UNL     1      47.603   5.176  15.331  0.00  0.00    +0.000 A 
ATOM     23  C   UNL     1      48.509   5.891  16.140  0.00  0.00    +0.000 A 
ATOM     24  C   UNL     1      48.928   5.403  17.383  0.00  0.00    +0.000 A 
ATOM     25  C   UNL     1      48.434   4.192  17.853  0.00  0.00    +0.000 A 
ATOM     26  C   UNL     1      47.523   3.487  17.081  0.00  0.00    +0.000 A 
ATOM     27  F   UNL     1      47.040   2.322  17.532  0.00  0.00    +0.000 F 
ATOM     28  C   UNL     1      47.110   3.961  15.838  0.00  0.00    +0.000 A 
ENDBRANCH  20  22
ENDBRANCH   1  15
TORSDOF 4
ENDMDL
MODEL 3
REMARK VINA RESULT:    -8.453      4.153      7.316
REMARK INTER + INTRA:         -11.300
REMARK INTER:                 -10.899
REMARK INTRA:                  -0.402
REMARK UNBOUND:                -0.870
REMARK  Name = 
REMARK  4 active torsions:
REMARK  status: ('A' for Active; 'I' for Inactive)
REMARK    1  A    between atoms: C_2  and  C_4
REMARK    2  A    between atoms: N_8  and  C_9
REMARK    3  A    between atoms: C_9  and  C_10
REMARK    4  A    between atoms: C_15  and  C_16
REMARK                            x       y       z     vdW  Elec       q    Type
REMARK                         _______ _______ _______ _____ _____    ______ ____
ROOT
ATOM      1  C   UNL     1      46.217   7.462  11.744  0.00  0.00    +0.000 C 
ENDROOT
BRANCH   1   6
ATOM      2  C   UNL     1      47.457   4.456  15.726  0.00  0.00    +0.000 A 
ATOM      3  C   UNL     1      46.424   4.306  14.808  0.00  0.00    +0.000 A 
ATOM      4  C   UNL     1      46.358   5.165  13.709  0.00  0.00    +0.000 A 
ATOM      5  C   UNL     1      47.316   6.161  13.552  0.00  0.00    +0.000 A 
ATOM      6  N   UNL     1      47.387   6.973  12.444  0.00  0.00    +0.000 N 
ATOM      7  N   UNL     1      48.307   6.330  14.450  0.00  0.00    +0.000 NA
ATOM      8  C   UNL     1      48.353   5.493  15.522  0.00  0.00    +0.000 A 
ATOM      9  H   UNL     1      48.138   7.641  12.585  0.00  0.00    +0.000 HD
BRANCH   2  11
ATOM     10  N   UNL     1      48.880   3.474  17.428  0.00  0.00    +0.000 N 
ATOM     11  C   UNL     1      47.624   3.563  16.890  0.00  0.00    +0.000 C 
ATOM     12  O   UNL     1      46.679   2.958  17.377  0.00  0.00    +0.000 OA
ATOM     13  H   UNL     1      48.965   2.944  18.287  0.00  0.00    +0.000 HD
ATOM     14  H   UNL     1      49.610   4.139  17.220  0.00  0.00    +0.000 HD
ENDBRANCH   2  11
ENDBRANCH   1   6
BRANCH   1  15
ATOM     15  C   UNL     1      45.392   6.383  11.075  0.00  0.00    +0.000 A 
ATOM     16  C   UNL     1      44.062   6.190  11.469  0.00  0.00    +0.000 A 
ATOM     17  C   UNL     1      43.324   5.141  10.935  0.00  0.00    +0.000 A 
ATOM     18  F   UNL     1      42.054   4.967  11.327  0.00  0.00    +0.000 F 
ATOM     19  C   UNL     1      43.878   4.262  10.009  0.00  0.00    +0.000 A 
ATOM     20  C   UNL     1      45.203   4.422   9.579  0.00  0.00    +0.000 A 
ATOM     21  C   UNL     1      45.942   5.489  10.138  0.00  0.00    +0.000 A 
BRANCH  20  22
ATOM     22  C   UNL     1      45.806   3.533   8.557  0.00  0.00    +0.000 A 
ATOM     23  C   UNL     1      46.323   4.040   7.348  0.00  0.00    +0.000 A 
ATOM     24  C   UNL     1      46.826   3.195   6.352  0.00  0.00    +0.000 A 
ATOM     25  C   UNL     1      46.840   1.820   6.553  0.00  0.00    +0.000 A 
ATOM     26  C   UNL     1      46.358   1.306   7.747  0.00  0.00    +0.000 A 
ATOM     27  F   UNL     1      46.373  -0.019   7.949  0.00  0.00    +0.000 F 
ATOM     28  C   UNL     1      45.845   2.140   8.739  0.00  0.00    +0.000 A 
ENDBRANCH  20  22
ENDBRANCH   1  15
TORSDOF 4
ENDMDL
MODEL 4
REMARK VINA RESULT:    -8.114      2.108      2.760
REMARK INTER + INTRA:         -10.882
REMARK INTER:                 -10.484
REMARK INTRA:                  -0.398
REMARK UNBOUND:                -0.870
REMARK  Name = 
REMARK  4 active torsions:
REMARK  status: ('A' for Active; 'I' for Inactive)
REMARK    1  A    between atoms: C_2  and  C_4
REMARK    2  A    between atoms: N_8  and  C_9
REMARK    3  A    between atoms: C_9  and  C_10
REMARK    4  A    between atoms: C_15  and  C_16
REMARK                            x       y       z     vdW  Elec       q    Type
REMARK                         _______ _______ _______ _____ _____    ______ ____
ROOT
ATOM      1  C   UNL     1      43.530   3.427  11.123  0.00  0.00    +0.000 C 
ENDROOT
BRANCH   1   6
ATOM      2  C   UNL     1      46.681   2.500   7.168  0.00  0.00    +0.000 A 
ATOM      3  C   UNL     1      46.213   3.719   7.644  0.00  0.00    +0.000 A 
ATOM      4  C   UNL     1      45.478   3.752   8.831  0.00  0.00    +0.000 A 
ATOM      5  C   UNL     1      45.217   2.570   9.514  0.00  0.00    +0.000 A 
ATOM      6  N   UNL     1      44.600   2.528  10.744  0.00  0.00    +0.000 N 
ATOM      7  N   UNL     1      45.645   1.380   9.049  0.00  0.00    +0.000 NA
ATOM      8  C   UNL     1      46.351   1.361   7.885  0.00  0.00    +0.000 A 
ATOM      9  H   UNL     1      44.486   1.556  11.011  0.00  0.00    +0.000 HD
BRANCH   2  11
ATOM     10  N   UNL     1      47.336   3.351   4.992  0.00  0.00    +0.000 N 
ATOM     11  C   UNL     1      47.502   2.383   5.946  0.00  0.00    +0.000 C 
ATOM     12  O   UNL     1      48.320   1.485   5.806  0.00  0.00    +0.000 OA
ATOM     13  H   UNL     1      47.975   3.323   4.207  0.00  0.00    +0.000 HD
ATOM     14  H   UNL     1      46.870   4.227   5.180  0.00  0.00    +0.000 HD
ENDBRANCH   2  11
ENDBRANCH   1   6
BRANCH   1  15
ATOM     15  C   UNL     1      43.971   4.854  11.376  0.00  0.00    +0.000 A 
ATOM     16  C   UNL     1      43.099   5.907  11.074  0.00  0.00    +0.000 A 
ATOM     17  C   UNL     1      43.525   7.222  11.207  0.00  0.00    +0.000 A 
ATOM     18  F   UNL     1      42.679   8.218  10.909  0.00  0.00    +0.000 F 
ATOM     19  C   UNL     1      44.813   7.527  11.635  0.00  0.00    +0.000 A 
ATOM     20  C   UNL     1      45.718   6.504  11.956  0.00  0.00    +0.000 A 
ATOM     21  C   UNL     1      45.271   5.173  11.807  0.00  0.00    +0.000 A 
BRANCH  20  22
ATOM     22  C   UNL     1      47.081   6.797  12.461  0.00  0.00    +0.000 A 
ATOM     23  C   UNL     1      47.456   6.506  13.788  0.00  0.00    +0.000 A 
ATOM     24  C   UNL     1      48.718   6.848  14.288  0.00  0.00    +0.000 A 
ATOM     25  C   UNL     1      49.643   7.474  13.461  0.00  0.00    +0.000 A 
ATOM     26  C   UNL     1      49.299   7.746  12.145  0.00  0.00    +0.000 A 
ATOM     27  F   UNL     1      50.189   8.345  11.342  0.00  0.00    +0.000 F 
ATOM     28  C   UNL     1      48.040   7.419  11.644  0.00  0.00    +0.000 A 
ENDBRANCH  20  22
ENDBRANCH   1  15
TORSDOF 4
ENDMDL
MODEL 5
REMARK VINA RESULT:    -8.074      3.948      7.106
REMARK INTER + INTRA:         -10.833
REMARK INTER:                 -10.303
REMARK INTRA:                  -0.530
REMARK UNBOUND:                -0.870
REMARK  Name = 
REMARK  4 active torsions:
REMARK  status: ('A' for Active; 'I' for Inactive)
REMARK    1  A    between atoms: C_2  and  C_4
REMARK    2  A    between atoms: N_8  and  C_9
REMARK    3  A    between atoms: C_9  and  C_10
REMARK    4  A    between atoms: C_15  and  C_16
REMARK                            x       y       z     vdW  Elec       q    Type
REMARK                         _______ _______ _______ _____ _____    ______ ____
ROOT
ATOM      1  C   UNL     1      43.375   6.653  11.185  0.00  0.00    +0.000 C 
ENDROOT
BRANCH   1   6
ATOM      2  C   UNL     1      47.790   7.553  13.660  0.00  0.00    +0.000 A 
ATOM      3  C   UNL     1      47.135   6.345  13.455  0.00  0.00    +0.000 A 
ATOM      4  C   UNL     1      46.015   6.308  12.622  0.00  0.00    +0.000 A 
ATOM      5  C   UNL     1      45.566   7.476  12.017  0.00  0.00    +0.000 A 
ATOM      6  N   UNL     1      44.542   7.506  11.097  0.00  0.00    +0.000 N 
ATOM      7  N   UNL     1      46.179   8.658  12.229  0.00  0.00    +0.000 NA
ATOM      8  C   UNL     1      47.263   8.681  13.052  0.00  0.00    +0.000 A 
ATOM      9  H   UNL     1      44.375   8.473  10.837  0.00  0.00    +0.000 HD
BRANCH   2  11
ATOM     10  N   UNL     1      49.422   8.936  14.805  0.00  0.00    +0.000 N 
ATOM     11  C   UNL     1      49.006   7.671  14.490  0.00  0.00    +0.000 C 
ATOM     12  O   UNL     1      49.595   6.685  14.910  0.00  0.00    +0.000 OA
ATOM     13  H   UNL     1      50.192   9.007  15.459  0.00  0.00    +0.000 HD
ATOM     14  H   UNL     1      48.831   9.747  14.696  0.00  0.00    +0.000 HD
ENDBRANCH   2  11
ENDBRANCH   1   6
BRANCH   1  15
ATOM     15  C   UNL     1      43.653   5.185  10.939  0.00  0.00    +0.000 A 
ATOM     16  C   UNL     1      43.183   4.234  11.853  0.00  0.00    +0.000 A 
ATOM     17  C   UNL     1      43.514   2.894  11.694  0.00  0.00    +0.000 A 
ATOM     18  F   UNL     1      43.061   1.997  12.581  0.00  0.00    +0.000 F 
ATOM     19  C   UNL     1      44.314   2.465  10.639  0.00  0.00    +0.000 A 
ATOM     20  C   UNL     1      44.799   3.381   9.695  0.00  0.00    +0.000 A 
ATOM     21  C   UNL     1      44.460   4.741   9.877  0.00  0.00    +0.000 A 
BRANCH  20  22
ATOM     22  C   UNL     1      45.612   2.949   8.533  0.00  0.00    +0.000 A 
ATOM     23  C   UNL     1      45.992   3.851   7.519  0.00  0.00    +0.000 A 
ATOM     24  C   UNL     1      46.697   3.430   6.385  0.00  0.00    +0.000 A 
ATOM     25  C   UNL     1      47.054   2.094   6.250  0.00  0.00    +0.000 A 
ATOM     26  C   UNL     1      46.709   1.196   7.250  0.00  0.00    +0.000 A 
ATOM     27  F   UNL     1      47.055  -0.092   7.127  0.00  0.00    +0.000 F 
ATOM     28  C   UNL     1      45.998   1.606   8.376  0.00  0.00    +0.000 A 
ENDBRANCH  20  22
ENDBRANCH   1  15
TORSDOF 4
ENDMDL
MODEL 6
REMARK VINA RESULT:    -7.952      3.951      7.223
REMARK INTER + INTRA:         -10.682
REMARK INTER:                  -9.895
REMARK INTRA:                  -0.787
REMARK UNBOUND:                -0.870
REMARK  Name = 
REMARK  4 active torsions:
REMARK  status: ('A' for Active; 'I' for Inactive)
REMARK    1  A    between atoms: C_2  and  C_4
REMARK    2  A    between atoms: N_8  and  C_9
REMARK    3  A    between atoms: C_9  and  C_10
REMARK    4  A    between atoms: C_15  and  C_16
REMARK                            x       y       z     vdW  Elec       q    Type
REMARK                         _______ _______ _______ _____ _____    ______ ____
ROOT
ATOM      1  C   UNL     1      44.705   6.816  11.302  0.00  0.00    +0.000 C 
ENDROOT
BRANCH   1   6
ATOM      2  C   UNL     1      49.472   7.726  12.998  0.00  0.00    +0.000 A 
ATOM      3  C   UNL     1      48.836   8.229  11.869  0.00  0.00    +0.000 A 
ATOM      4  C   UNL     1      47.479   7.965  11.675  0.00  0.00    +0.000 A 
ATOM      5  C   UNL     1      46.785   7.198  12.604  0.00  0.00    +0.000 A 
ATOM      6  N   UNL     1      45.426   6.986  12.546  0.00  0.00    +0.000 N 
ATOM      7  N   UNL     1      47.397   6.684  13.689  0.00  0.00    +0.000 NA
ATOM      8  C   UNL     1      48.723   6.941  13.860  0.00  0.00    +0.000 A 
ATOM      9  H   UNL     1      45.167   6.365  13.305  0.00  0.00    +0.000 HD
BRANCH   2  11
ATOM     10  N   UNL     1      51.343   7.627  14.539  0.00  0.00    +0.000 N 
ATOM     11  C   UNL     1      50.892   7.995  13.300  0.00  0.00    +0.000 C 
ATOM     12  O   UNL     1      51.642   8.490  12.470  0.00  0.00    +0.000 OA
ATOM     13  H   UNL     1      52.339   7.718  14.701  0.00  0.00    +0.000 HD
ATOM     14  H   UNL     1      50.832   6.998  15.140  0.00  0.00    +0.000 HD
ENDBRANCH   2  11
ENDBRANCH   1   6
BRANCH   1  15
ATOM     15  C   UNL     1      44.498   5.374  10.890  0.00  0.00    +0.000 A 
ATOM     16  C   UNL     1      43.671   4.549  11.663  0.00  0.00    +0.000 A 
ATOM     17  C   UNL     1      43.551   3.200  11.354  0.00  0.00    +0.000 A 
ATOM     18  F   UNL     1      42.759   2.424  12.108  0.00  0.00    +0.000 F 
ATOM     19  C   UNL     1      44.240   2.637  10.286  0.00  0.00    +0.000 A 
ATOM     20  C   UNL     1      45.073   3.426   9.479  0.00  0.00    +0.000 A 
ATOM     21  C   UNL     1      45.190   4.794   9.812  0.00  0.00    +0.000 A 
BRANCH  20  22
ATOM     22  C   UNL     1      45.782   2.865   8.304  0.00  0.00    +0.000 A 
ATOM     23  C   UNL     1      46.278   1.546   8.300  0.00  0.00    +0.000 A 
ATOM     24  C   UNL     1      47.011   1.039   7.220  0.00  0.00    +0.000 A 
ATOM     25  C   UNL     1      47.246   1.838   6.108  0.00  0.00    +0.000 A 
ATOM     26  C   UNL     1      46.743   3.130   6.084  0.00  0.00    +0.000 A 
ATOM     27  F   UNL     1      46.964   3.904   5.013  0.00  0.00    +0.000 F 
ATOM     28  C   UNL     1      46.024   3.646   7.161  0.00  0.00    +0.000 A 
ENDBRANCH  20  22
ENDBRANCH   1  15
TORSDOF 4
ENDMDL
MODEL 7
REMARK VINA RESULT:    -7.927      4.890      8.006
REMARK INTER + INTRA:         -10.650
REMARK INTER:                 -10.111
REMARK INTRA:                  -0.540
REMARK UNBOUND:                -0.870
REMARK  Name = 
REMARK  4 active torsions:
REMARK  status: ('A' for Active; 'I' for Inactive)
REMARK    1  A    between atoms: C_2  and  C_4
REMARK    2  A    between atoms: N_8  and  C_9
REMARK    3  A    between atoms: C_9  and  C_10
REMARK    4  A    between atoms: C_15  and  C_16
REMARK                            x       y       z     vdW  Elec       q    Type
REMARK                         _______ _______ _______ _____ _____    ______ ____
ROOT
ATOM      1  C   UNL     1      46.146   5.744  13.675  0.00  0.00    +0.000 C 
ENDROOT
BRANCH   1   6
ATOM      2  C   UNL     1      49.405   4.112  17.300  0.00  0.00    +0.000 A 
ATOM      3  C   UNL     1      49.118   5.414  16.906  0.00  0.00    +0.000 A 
ATOM      4  C   UNL     1      48.084   5.639  15.996  0.00  0.00    +0.000 A 
ATOM      5  C   UNL     1      47.362   4.564  15.490  0.00  0.00    +0.000 A 
ATOM      6  N   UNL     1      46.259   4.707  14.680  0.00  0.00    +0.000 N 
ATOM      7  N   UNL     1      47.648   3.296  15.847  0.00  0.00    +0.000 NA
ATOM      8  C   UNL     1      48.666   3.090  16.727  0.00  0.00    +0.000 A 
ATOM      9  H   UNL     1      45.938   3.783  14.411  0.00  0.00    +0.000 HD
BRANCH   2  11
ATOM     10  N   UNL     1      50.269   4.262  19.563  0.00  0.00    +0.000 N 
ATOM     11  C   UNL     1      50.453   3.791  18.291  0.00  0.00    +0.000 C 
ATOM     12  O   UNL     1      51.422   3.105  18.000  0.00  0.00    +0.000 OA
ATOM     13  H   UNL     1      50.935   3.951  20.259  0.00  0.00    +0.000 HD
ATOM     14  H   UNL     1      49.378   4.604  19.894  0.00  0.00    +0.000 HD
ENDBRANCH   2  11
ENDBRANCH   1   6
BRANCH   1  15
ATOM     15  C   UNL     1      45.273   5.378  12.493  0.00  0.00    +0.000 A 
ATOM     16  C   UNL     1      43.900   5.652  12.542  0.00  0.00    +0.000 A 
ATOM     17  C   UNL     1      43.071   5.233  11.509  0.00  0.00    +0.000 A 
ATOM     18  F   UNL     1      41.759   5.499  11.574  0.00  0.00    +0.000 F 
ATOM     19  C   UNL     1      43.573   4.537  10.414  0.00  0.00    +0.000 A 
ATOM     20  C   UNL     1      44.941   4.248  10.318  0.00  0.00    +0.000 A 
ATOM     21  C   UNL     1      45.769   4.674  11.381  0.00  0.00    +0.000 A 
BRANCH  20  22
ATOM     22  C   UNL     1      45.513   3.551   9.141  0.00  0.00    +0.000 A 
ATOM     23  C   UNL     1      45.946   4.259   8.002  0.00  0.00    +0.000 A 
ATOM     24  C   UNL     1      46.418   3.599   6.861  0.00  0.00    +0.000 A 
ATOM     25  C   UNL     1      46.485   2.211   6.844  0.00  0.00    +0.000 A 
ATOM     26  C   UNL     1      46.087   1.500   7.966  0.00  0.00    +0.000 A 
ATOM     27  F   UNL     1      46.154   0.161   7.956  0.00  0.00    +0.000 F 
ATOM     28  C   UNL     1      45.605   2.150   9.100  0.00  0.00    +0.000 A 
ENDBRANCH  20  22
ENDBRANCH   1  15
TORSDOF 4
ENDMDL
MODEL 8
REMARK VINA RESULT:    -7.453      2.301      3.048
REMARK INTER + INTRA:         -10.066
REMARK INTER:                  -9.394
REMARK INTRA:                  -0.672
REMARK UNBOUND:                -0.870
REMARK  Name = 
REMARK  4 active torsions:
REMARK  status: ('A' for Active; 'I' for Inactive)
REMARK    1  A    between atoms: C_2  and  C_4
REMARK    2  A    between atoms: N_8  and  C_9
REMARK    3  A    between atoms: C_9  and  C_10
REMARK    4  A    between atoms: C_15  and  C_16
REMARK                            x       y       z     vdW  Elec       q    Type
REMARK                         _______ _______ _______ _____ _____    ______ ____
ROOT
ATOM      1  C   UNL     1      44.032   5.297  11.032  0.00  0.00    +0.000 C 
ENDROOT
BRANCH   1   6
ATOM      2  C   UNL     1      46.485   2.248   7.697  0.00  0.00    +0.000 A 
ATOM      3  C   UNL     1      45.841   1.907   8.881  0.00  0.00    +0.000 A 
ATOM      4  C   UNL     1      45.107   2.879   9.563  0.00  0.00    +0.000 A 
ATOM      5  C   UNL     1      45.036   4.173   9.058  0.00  0.00    +0.000 A 
ATOM      6  N   UNL     1      44.246   5.157   9.606  0.00  0.00    +0.000 N 
ATOM      7  N   UNL     1      45.677   4.520   7.924  0.00  0.00    +0.000 NA
ATOM      8  C   UNL     1      46.397   3.565   7.274  0.00  0.00    +0.000 A 
ATOM      9  H   UNL     1      44.399   6.015   9.087  0.00  0.00    +0.000 HD
BRANCH   2  11
ATOM     10  N   UNL     1      48.288   1.754   6.152  0.00  0.00    +0.000 N 
ATOM     11  C   UNL     1      47.244   1.270   6.892  0.00  0.00    +0.000 C 
ATOM     12  O   UNL     1      46.978   0.077   6.914  0.00  0.00    +0.000 OA
ATOM     13  H   UNL     1      48.868   1.066   5.687  0.00  0.00    +0.000 HD
ATOM     14  H   UNL     1      48.689   2.668   6.306  0.00  0.00    +0.000 HD
ENDBRANCH   2  11
ENDBRANCH   1   6
BRANCH   1  15
ATOM     15  C   UNL     1      44.556   6.591  11.619  0.00  0.00    +0.000 A 
ATOM     16  C   UNL     1      43.966   7.804  11.246  0.00  0.00    +0.000 A 
ATOM     17  C   UNL     1      44.498   9.005  11.699  0.00  0.00    +0.000 A 
ATOM     18  F   UNL     1      43.924  10.158  11.327  0.00  0.00    +0.000 F 
ATOM     19  C   UNL     1      45.619   9.035  12.523  0.00  0.00    +0.000 A 
ATOM     20  C   UNL     1      46.238   7.844  12.929  0.00  0.00    +0.000 A 
ATOM     21  C   UNL     1      45.688   6.633  12.452  0.00  0.00    +0.000 A 
BRANCH  20  22
ATOM     22  C   UNL     1      47.403   7.843  13.846  0.00  0.00    +0.000 A 
ATOM     23  C   UNL     1      48.081   6.652  14.177  0.00  0.00    +0.000 A 
ATOM     24  C   UNL     1      49.135   6.639  15.098  0.00  0.00    +0.000 A 
ATOM     25  C   UNL     1      49.547   7.823  15.696  0.00  0.00    +0.000 A 
ATOM     26  C   UNL     1      48.907   9.008  15.362  0.00  0.00    +0.000 A 
ATOM     27  F   UNL     1      49.304  10.154  15.932  0.00  0.00    +0.000 F 
ATOM     28  C   UNL     1      47.850   9.027  14.455  0.00  0.00    +0.000 A 
ENDBRANCH  20  22
ENDBRANCH   1  15
TORSDOF 4
ENDMDL
MODEL 9
REMARK VINA RESULT:    -7.442      2.375      3.568
REMARK INTER + INTRA:         -10.053
REMARK INTER:                  -9.329
REMARK INTRA:                  -0.724
REMARK UNBOUND:                -0.870
REMARK  Name = 
REMARK  4 active torsions:
REMARK  status: ('A' for Active; 'I' for Inactive)
REMARK    1  A    between atoms: C_2  and  C_4
REMARK    2  A    between atoms: N_8  and  C_9
REMARK    3  A    between atoms: C_9  and  C_10
REMARK    4  A    between atoms: C_15  and  C_16
REMARK                            x       y       z     vdW  Elec       q    Type
REMARK                         _______ _______ _______ _____ _____    ______ ____
ROOT
ATOM      1  C   UNL     1      43.467   4.423  11.086  0.00  0.00    +0.000 C 
ENDROOT
BRANCH   1   6
ATOM      2  C   UNL     1      46.557   2.734   7.341  0.00  0.00    +0.000 A 
ATOM      3  C   UNL     1      46.481   4.002   7.905  0.00  0.00    +0.000 A 
ATOM      4  C   UNL     1      45.666   4.206   9.020  0.00  0.00    +0.000 A 
ATOM      5  C   UNL     1      44.937   3.145   9.546  0.00  0.00    +0.000 A 
ATOM      6  N   UNL     1      44.202   3.234  10.705  0.00  0.00    +0.000 N 
ATOM      7  N   UNL     1      44.985   1.917   8.992  0.00  0.00    +0.000 NA
ATOM      8  C   UNL     1      45.775   1.735   7.898  0.00  0.00    +0.000 A 
ATOM      9  H   UNL     1      43.732   2.348  10.854  0.00  0.00    +0.000 HD
BRANCH   2  11
ATOM     10  N   UNL     1      47.306   3.227   5.086  0.00  0.00    +0.000 N 
ATOM     11  C   UNL     1      47.427   2.424   6.189  0.00  0.00    +0.000 C 
ATOM     12  O   UNL     1      48.246   1.517   6.228  0.00  0.00    +0.000 OA
ATOM     13  H   UNL     1      47.977   3.075   4.343  0.00  0.00    +0.000 HD
ATOM     14  H   UNL     1      46.838   4.121   5.112  0.00  0.00    +0.000 HD
ENDBRANCH   2  11
ENDBRANCH   1   6
BRANCH   1  15
ATOM     15  C   UNL     1      44.309   5.498  11.740  0.00  0.00    +0.000 A 
ATOM     16  C   UNL     1      44.217   6.818  11.283  0.00  0.00    +0.000 A 
ATOM     17  C   UNL     1      45.055   7.795  11.806  0.00  0.00    +0.000 A 
ATOM     18  F   UNL     1      44.957   9.053  11.353  0.00  0.00    +0.000 F 
ATOM     19  C   UNL     1      45.998   7.493  12.783  0.00  0.00    +0.000 A 
ATOM     20  C   UNL     1      46.121   6.187  13.277  0.00  0.00    +0.000 A 
ATOM     21  C   UNL     1      45.267   5.204  12.728  0.00  0.00    +0.000 A 
BRANCH  20  22
ATOM     22  C   UNL     1      47.082   5.845  14.352  0.00  0.00    +0.000 A 
ATOM     23  C   UNL     1      46.929   4.686  15.140  0.00  0.00    +0.000 A 
ATOM     24  C   UNL     1      47.794   4.400  16.203  0.00  0.00    +0.000 A 
ATOM     25  C   UNL     1      48.847   5.260  16.488  0.00  0.00    +0.000 A 
ATOM     26  C   UNL     1      49.028   6.391  15.707  0.00  0.00    +0.000 A 
ATOM     27  F   UNL     1      50.045   7.222  15.975  0.00  0.00    +0.000 F 
ATOM     28  C   UNL     1      48.164   6.689  14.655  0.00  0.00    +0.000 A 
ENDBRANCH  20  22
ENDBRANCH   1  15
TORSDOF 4
ENDMDL
