MODEL 1
REMARK VINA RESULT:    -8.762      0.000      0.000
REMARK INTER + INTRA:         -13.628
REMARK INTER:                 -12.860
REMARK INTRA:                  -0.769
REMARK UNBOUND:                -0.769
REMARK  Name = 
REMARK  10 active torsions:
REMARK  status: ('A' for Active; 'I' for Inactive)
REMARK    1  A    between atoms: C_1  and  C_2
REMARK    2  A    between atoms: C_4  and  O_5
REMARK    3  A    between atoms: O_5  and  C_6
REMARK    4  A    between atoms: C_6  and  C_7
REMARK    5  A    between atoms: C_7  and  C_8
REMARK    6  A    between atoms: C_7  and  C_9
REMARK    7  A    between atoms: C_11  and  N_12
REMARK    8  A    between atoms: N_12  and  C_13
REMARK    9  A    between atoms: C_19  and  C_20
REMARK   10  A    between atoms: C_25  and  C_26
REMARK                            x       y       z     vdW  Elec       q    Type
REMARK                         _______ _______ _______ _____ _____    ______ ____
ROOT
ATOM      1  C   UNL     1      44.950   5.887  12.745  0.00  0.00    +0.000 A 
ATOM      2  C   UNL     1      45.461   4.808  13.513  0.00  0.00    +0.000 A 
ATOM      3  C   UNL     1      46.729   4.819  14.101  0.00  0.00    +0.000 A 
ATOM      4  C   UNL     1      47.535   5.934  13.908  0.00  0.00    +0.000 A 
ATOM      5  C   UNL     1      47.044   7.046  13.224  0.00  0.00    +0.000 A 
ATOM      6  C   UNL     1      45.738   7.057  12.686  0.00  0.00    +0.000 A 
ENDROOT
BRANCH   6   7
ATOM      7  C   UNL     1      45.261   8.358  12.132  0.00  0.00    +0.000 C 
ATOM      8  N   UNL     1      45.603   9.486  12.849  0.00  0.00    +0.000 N 
ATOM      9  O   UNL     1      44.598   8.455  11.113  0.00  0.00    +0.000 OA
ATOM     10  H   UNL     1      45.978   9.448  13.786  0.00  0.00    +0.000 HD
ATOM     11  H   UNL     1      45.231  10.367  12.524  0.00  0.00    +0.000 HD
ENDBRANCH   6   7
BRANCH   1  12
ATOM     12  C   UNL     1      43.597   5.671  12.041  0.00  0.00    +0.000 C 
ATOM     13  C   UNL     1      42.714   4.721  12.863  0.00  0.00    +0.000 C 
BRANCH  12  14
ATOM     14  C   UNL     1      43.829   5.123  10.603  0.00  0.00    +0.000 C 
BRANCH  14  15
ATOM     15  O   UNL     1      44.126   3.713  10.530  0.00  0.00    +0.000 OA
BRANCH  15  19
ATOM     16  C   UNL     1      46.527   0.402   7.781  0.00  0.00    +0.000 C 
ATOM     17  C   UNL     1      46.144   1.827   8.079  0.00  0.00    +0.000 A 
ATOM     18  C   UNL     1      45.308   2.117   9.184  0.00  0.00    +0.000 A 
ATOM     19  C   UNL     1      44.957   3.436   9.447  0.00  0.00    +0.000 A 
ATOM     20  N   UNL     1      45.398   4.465   8.694  0.00  0.00    +0.000 NA
ATOM     21  C   UNL     1      46.200   4.175   7.644  0.00  0.00    +0.000 A 
ATOM     22  C   UNL     1      46.588   2.894   7.276  0.00  0.00    +0.000 A 
BRANCH  22  23
ATOM     23  C   UNL     1      47.472   2.720   6.088  0.00  0.00    +0.000 C 
ATOM     24  N   UNL     1      48.807   2.516   6.313  0.00  0.00    +0.000 N 
ATOM     25  O   UNL     1      47.052   2.767   4.939  0.00  0.00    +0.000 OA
ATOM     26  H   UNL     1      49.266   2.637   7.204  0.00  0.00    +0.000 HD
ATOM     27  H   UNL     1      49.399   2.470   5.489  0.00  0.00    +0.000 HD
ENDBRANCH  22  23
ENDBRANCH  15  19
ENDBRANCH  14  15
ENDBRANCH  12  14
ENDBRANCH   1  12
BRANCH   3  28
ATOM     28  N   UNL     1      47.149   3.803  14.967  0.00  0.00    +0.000 N 
ATOM     29  H   UNL     1      46.758   2.882  14.787  0.00  0.00    +0.000 HD
BRANCH  28  30
ATOM     30  C   UNL     1      47.897   3.960  16.183  0.00  0.00    +0.000 C 
ATOM     31  C   UNL     1      48.123   2.624  16.916  0.00  0.00    +0.000 C 
ATOM     32  N   UNL     1      47.610   3.219  18.162  0.00  0.00    +0.000 NA
ATOM     33  C   UNL     1      47.065   4.366  17.409  0.00  0.00    +0.000 C 
ATOM     34  H   UNL     1      48.346   3.474  18.821  0.00  0.00    +0.000 HD
ENDBRANCH  28  30
ENDBRANCH   3  28
TORSDOF 8
ENDMDL
MODEL 2
REMARK VINA RESULT:    -8.053      2.421      7.753
REMARK INTER + INTRA:         -12.588
REMARK INTER:                 -12.080
REMARK INTRA:                  -0.508
REMARK UNBOUND:                -0.769
REMARK  Name = 
REMARK  10 active torsions:
REMARK  status: ('A' for Active; 'I' for Inactive)
REMARK    1  A    between atoms: C_1  and  C_2
REMARK    2  A    between atoms: C_4  and  O_5
REMARK    3  A    between atoms: O_5  and  C_6
REMARK    4  A    between atoms: C_6  and  C_7
REMARK    5  A    between atoms: C_7  and  C_8
REMARK    6  A    between atoms: C_7  and  C_9
REMARK    7  A    between atoms: C_11  and  N_12
REMARK    8  A    between atoms: N_12  and  C_13
REMARK    9  A    between atoms: C_19  and  C_20
REMARK   10  A    between atoms: C_25  and  C_26
REMARK                            x       y       z     vdW  Elec       q    Type
REMARK                         _______ _______ _______ _____ _____    ______ ____
ROOT
ATOM      1  C   UNL     1      45.144   5.131  10.676  0.00  0.00    +0.000 A 
ATOM      2  C   UNL     1      45.774   4.994   9.412  0.00  0.00    +0.000 A 
ATOM      3  C   UNL     1      45.613   3.873   8.593  0.00  0.00    +0.000 A 
ATOM      4  C   UNL     1      44.814   2.833   9.049  0.00  0.00    +0.000 A 
ATOM      5  C   UNL     1      44.116   2.957  10.251  0.00  0.00    +0.000 A 
ATOM      6  C   UNL     1      44.230   4.119  11.046  0.00  0.00    +0.000 A 
ENDROOT
BRANCH   6   7
ATOM      7  C   UNL     1      43.307   4.214  12.215  0.00  0.00    +0.000 C 
ATOM      8  N   UNL     1      42.227   5.061  12.070  0.00  0.00    +0.000 N 
ATOM      9  O   UNL     1      43.473   3.601  13.256  0.00  0.00    +0.000 OA
ATOM     10  H   UNL     1      42.150   5.728  11.316  0.00  0.00    +0.000 HD
ATOM     11  H   UNL     1      41.631   5.187  12.877  0.00  0.00    +0.000 HD
ENDBRANCH   6   7
BRANCH   1  12
ATOM     12  C   UNL     1      45.529   6.356  11.526  0.00  0.00    +0.000 C 
ATOM     13  C   UNL     1      44.744   7.593  11.064  0.00  0.00    +0.000 C 
BRANCH  12  14
ATOM     14  C   UNL     1      47.064   6.598  11.444  0.00  0.00    +0.000 C 
BRANCH  14  15
ATOM     15  O   UNL     1      47.655   7.164  12.633  0.00  0.00    +0.000 OA
BRANCH  15  19
ATOM     16  C   UNL     1      48.857   6.025  17.274  0.00  0.00    +0.000 C 
ATOM     17  C   UNL     1      48.232   5.658  15.955  0.00  0.00    +0.000 A 
ATOM     18  C   UNL     1      48.239   6.588  14.888  0.00  0.00    +0.000 A 
ATOM     19  C   UNL     1      47.654   6.241  13.675  0.00  0.00    +0.000 A 
ATOM     20  N   UNL     1      47.088   5.033  13.466  0.00  0.00    +0.000 NA
ATOM     21  C   UNL     1      47.093   4.152  14.492  0.00  0.00    +0.000 A 
ATOM     22  C   UNL     1      47.622   4.406  15.749  0.00  0.00    +0.000 A 
BRANCH  22  23
ATOM     23  C   UNL     1      47.553   3.342  16.791  0.00  0.00    +0.000 C 
ATOM     24  N   UNL     1      48.646   2.535  16.951  0.00  0.00    +0.000 N 
ATOM     25  O   UNL     1      46.560   3.162  17.485  0.00  0.00    +0.000 OA
ATOM     26  H   UNL     1      49.429   2.494  16.315  0.00  0.00    +0.000 HD
ATOM     27  H   UNL     1      48.550   1.774  17.617  0.00  0.00    +0.000 HD
ENDBRANCH  22  23
ENDBRANCH  15  19
ENDBRANCH  14  15
ENDBRANCH  12  14
ENDBRANCH   1  12
BRANCH   3  28
ATOM     28  N   UNL     1      46.133   3.828   7.294  0.00  0.00    +0.000 N 
ATOM     29  H   UNL     1      46.132   4.710   6.789  0.00  0.00    +0.000 HD
BRANCH  28  30
ATOM     30  C   UNL     1      46.468   2.653   6.540  0.00  0.00    +0.000 C 
ATOM     31  C   UNL     1      47.710   1.927   7.095  0.00  0.00    +0.000 C 
ATOM     32  N   UNL     1      48.309   1.919   5.749  0.00  0.00    +0.000 NA
ATOM     33  C   UNL     1      47.315   2.907   5.283  0.00  0.00    +0.000 C 
ATOM     34  H   UNL     1      48.239   1.016   5.282  0.00  0.00    +0.000 HD
ENDBRANCH  28  30
ENDBRANCH   3  28
TORSDOF 8
ENDMDL
MODEL 3
REMARK VINA RESULT:    -7.215      3.026      8.250
REMARK INTER + INTRA:         -11.358
REMARK INTER:                 -10.568
REMARK INTRA:                  -0.789
REMARK UNBOUND:                -0.769
REMARK  Name = 
REMARK  10 active torsions:
REMARK  status: ('A' for Active; 'I' for Inactive)
REMARK    1  A    between atoms: C_1  and  C_2
REMARK    2  A    between atoms: C_4  and  O_5
REMARK    3  A    between atoms: O_5  and  C_6
REMARK    4  A    between atoms: C_6  and  C_7
REMARK    5  A    between atoms: C_7  and  C_8
REMARK    6  A    between atoms: C_7  and  C_9
REMARK    7  A    between atoms: C_11  and  N_12
REMARK    8  A    between atoms: N_12  and  C_13
REMARK    9  A    between atoms: C_19  and  C_20
REMARK   10  A    between atoms: C_25  and  C_26
REMARK                            x       y       z     vdW  Elec       q    Type
REMARK                         _______ _______ _______ _____ _____    ______ ____
ROOT
ATOM      1  C   UNL     1      45.041   5.705  10.945  0.00  0.00    +0.000 A 
ATOM      2  C   UNL     1      45.828   5.386   9.808  0.00  0.00    +0.000 A 
ATOM      3  C   UNL     1      45.543   4.317   8.954  0.00  0.00    +0.000 A 
ATOM      4  C   UNL     1      44.446   3.517   9.244  0.00  0.00    +0.000 A 
ATOM      5  C   UNL     1      43.602   3.839  10.307  0.00  0.00    +0.000 A 
ATOM      6  C   UNL     1      43.857   4.958  11.131  0.00  0.00    +0.000 A 
ENDROOT
BRANCH   6   7
ATOM      7  C   UNL     1      42.797   5.306  12.122  0.00  0.00    +0.000 C 
ATOM      8  N   UNL     1      41.920   6.304  11.750  0.00  0.00    +0.000 N 
ATOM      9  O   UNL     1      42.688   4.766  13.211  0.00  0.00    +0.000 OA
ATOM     10  H   UNL     1      42.080   6.906  10.955  0.00  0.00    +0.000 HD
ATOM     11  H   UNL     1      41.239   6.596  12.436  0.00  0.00    +0.000 HD
ENDBRANCH   6   7
BRANCH   1  12
ATOM     12  C   UNL     1      45.561   6.820  11.871  0.00  0.00    +0.000 C 
ATOM     13  C   UNL     1      45.028   8.186  11.413  0.00  0.00    +0.000 C 
BRANCH  12  14
ATOM     14  C   UNL     1      47.117   6.804  11.901  0.00  0.00    +0.000 C 
BRANCH  14  15
ATOM     15  O   UNL     1      47.698   5.845  12.811  0.00  0.00    +0.000 OA
BRANCH  15  19
ATOM     16  C   UNL     1      48.850   9.980  15.230  0.00  0.00    +0.000 C 
ATOM     17  C   UNL     1      48.682   8.484  15.198  0.00  0.00    +0.000 A 
ATOM     18  C   UNL     1      48.270   7.846  14.003  0.00  0.00    +0.000 A 
ATOM     19  C   UNL     1      48.113   6.465  13.986  0.00  0.00    +0.000 A 
ATOM     20  N   UNL     1      48.356   5.697  15.069  0.00  0.00    +0.000 NA
ATOM     21  C   UNL     1      48.754   6.318  16.202  0.00  0.00    +0.000 A 
ATOM     22  C   UNL     1      48.915   7.690  16.337  0.00  0.00    +0.000 A 
BRANCH  22  23
ATOM     23  C   UNL     1      49.354   8.242  17.650  0.00  0.00    +0.000 C 
ATOM     24  N   UNL     1      48.383   8.622  18.538  0.00  0.00    +0.000 N 
ATOM     25  O   UNL     1      50.533   8.378  17.949  0.00  0.00    +0.000 OA
ATOM     26  H   UNL     1      47.403   8.712  18.315  0.00  0.00    +0.000 HD
ATOM     27  H   UNL     1      48.705   9.060  19.396  0.00  0.00    +0.000 HD
ENDBRANCH  22  23
ENDBRANCH  15  19
ENDBRANCH  14  15
ENDBRANCH  12  14
ENDBRANCH   1  12
BRANCH   3  28
ATOM     28  N   UNL     1      46.253   4.113   7.765  0.00  0.00    +0.000 N 
ATOM     29  H   UNL     1      46.650   4.947   7.341  0.00  0.00    +0.000 HD
BRANCH  28  30
ATOM     30  C   UNL     1      46.304   2.907   6.988  0.00  0.00    +0.000 C 
ATOM     31  C   UNL     1      46.684   1.674   7.831  0.00  0.00    +0.000 C 
ATOM     32  N   UNL     1      47.735   1.331   6.858  0.00  0.00    +0.000 NA
ATOM     33  C   UNL     1      47.627   2.669   6.244  0.00  0.00    +0.000 C 
ATOM     34  H   UNL     1      47.471   0.570   6.231  0.00  0.00    +0.000 HD
ENDBRANCH  28  30
ENDBRANCH   3  28
TORSDOF 8
ENDMDL
MODEL 4
REMARK VINA RESULT:    -6.959      3.218      7.971
REMARK INTER + INTRA:         -10.982
REMARK INTER:                 -10.143
REMARK INTRA:                  -0.839
REMARK UNBOUND:                -0.769
REMARK  Name = 
REMARK  10 active torsions:
REMARK  status: ('A' for Active; 'I' for Inactive)
REMARK    1  A    between atoms: C_1  and  C_2
REMARK    2  A    between atoms: C_4  and  O_5
REMARK    3  A    between atoms: O_5  and  C_6
REMARK    4  A    between atoms: C_6  and  C_7
REMARK    5  A    between atoms: C_7  and  C_8
REMARK    6  A    between atoms: C_7  and  C_9
REMARK    7  A    between atoms: C_11  and  N_12
REMARK    8  A    between atoms: N_12  and  C_13
REMARK    9  A    between atoms: C_19  and  C_20
REMARK   10  A    between atoms: C_25  and  C_26
REMARK                            x       y       z     vdW  Elec       q    Type
REMARK                         _______ _______ _______ _____ _____    ______ ____
ROOT
ATOM      1  C   UNL     1      45.029   5.128  11.019  0.00  0.00    +0.000 A 
ATOM      2  C   UNL     1      45.516   4.914   9.703  0.00  0.00    +0.000 A 
ATOM      3  C   UNL     1      45.236   3.764   8.960  0.00  0.00    +0.000 A 
ATOM      4  C   UNL     1      44.460   2.773   9.547  0.00  0.00    +0.000 A 
ATOM      5  C   UNL     1      43.899   2.974  10.809  0.00  0.00    +0.000 A 
ATOM      6  C   UNL     1      44.131   4.166  11.531  0.00  0.00    +0.000 A 
ENDROOT
BRANCH   6   7
ATOM      7  C   UNL     1      43.342   4.344  12.785  0.00  0.00    +0.000 C 
ATOM      8  N   UNL     1      42.553   5.474  12.851  0.00  0.00    +0.000 N 
ATOM      9  O   UNL     1      43.376   3.562  13.720  0.00  0.00    +0.000 OA
ATOM     10  H   UNL     1      42.634   6.240  12.198  0.00  0.00    +0.000 HD
ATOM     11  H   UNL     1      42.065   5.643  13.720  0.00  0.00    +0.000 HD
ENDBRANCH   6   7
BRANCH   1  12
ATOM     12  C   UNL     1      45.539   6.376  11.764  0.00  0.00    +0.000 C 
ATOM     13  C   UNL     1      44.834   7.635  11.239  0.00  0.00    +0.000 C 
BRANCH  12  14
ATOM     14  C   UNL     1      47.084   6.490  11.614  0.00  0.00    +0.000 C 
BRANCH  14  15
ATOM     15  O   UNL     1      47.625   7.802  11.880  0.00  0.00    +0.000 OA
BRANCH  15  19
ATOM     16  C   UNL     1      48.974   6.189  16.336  0.00  0.00    +0.000 C 
ATOM     17  C   UNL     1      49.266   6.967  15.081  0.00  0.00    +0.000 A 
ATOM     18  C   UNL     1      48.297   7.033  14.051  0.00  0.00    +0.000 A 
ATOM     19  C   UNL     1      48.579   7.749  12.893  0.00  0.00    +0.000 A 
ATOM     20  N   UNL     1      49.745   8.406  12.716  0.00  0.00    +0.000 NA
ATOM     21  C   UNL     1      50.659   8.339  13.710  0.00  0.00    +0.000 A 
ATOM     22  C   UNL     1      50.492   7.630  14.891  0.00  0.00    +0.000 A 
BRANCH  22  23
ATOM     23  C   UNL     1      51.590   7.637  15.901  0.00  0.00    +0.000 C 
ATOM     24  N   UNL     1      51.619   8.667  16.802  0.00  0.00    +0.000 N 
ATOM     25  O   UNL     1      52.459   6.776  15.938  0.00  0.00    +0.000 OA
ATOM     26  H   UNL     1      51.058   9.504  16.738  0.00  0.00    +0.000 HD
ATOM     27  H   UNL     1      52.414   8.689  17.434  0.00  0.00    +0.000 HD
ENDBRANCH  22  23
ENDBRANCH  15  19
ENDBRANCH  14  15
ENDBRANCH  12  14
ENDBRANCH   1  12
BRANCH   3  28
ATOM     28  N   UNL     1      45.613   3.643   7.617  0.00  0.00    +0.000 N 
ATOM     29  H   UNL     1      44.850   3.635   6.946  0.00  0.00    +0.000 HD
BRANCH  28  30
ATOM     30  C   UNL     1      46.919   3.328   7.113  0.00  0.00    +0.000 C 
ATOM     31  C   UNL     1      46.901   2.939   5.622  0.00  0.00    +0.000 C 
ATOM     32  N   UNL     1      47.662   1.716   5.931  0.00  0.00    +0.000 NA
ATOM     33  C   UNL     1      47.384   1.887   7.371  0.00  0.00    +0.000 C 
ATOM     34  H   UNL     1      48.651   1.786   5.693  0.00  0.00    +0.000 HD
ENDBRANCH  28  30
ENDBRANCH   3  28
TORSDOF 8
ENDMDL
MODEL 5
REMARK VINA RESULT:    -6.401      3.600      6.711
REMARK INTER + INTRA:         -10.163
REMARK INTER:                  -9.025
REMARK INTRA:                  -1.138
REMARK UNBOUND:                -0.769
REMARK  Name = 
REMARK  10 active torsions:
REMARK  status: ('A' for Active; 'I' for Inactive)
REMARK    1  A    between atoms: C_1  and  C_2
REMARK    2  A    between atoms: C_4  and  O_5
REMARK    3  A    between atoms: O_5  and  C_6
REMARK    4  A    between atoms: C_6  and  C_7
REMARK    5  A    between atoms: C_7  and  C_8
REMARK    6  A    between atoms: C_7  and  C_9
REMARK    7  A    between atoms: C_11  and  N_12
REMARK    8  A    between atoms: N_12  and  C_13
REMARK    9  A    between atoms: C_19  and  C_20
REMARK   10  A    between atoms: C_25  and  C_26
REMARK                            x       y       z     vdW  Elec       q    Type
REMARK                         _______ _______ _______ _____ _____    ______ ____
ROOT
ATOM      1  C   UNL     1      48.749   5.255  17.554  0.00  0.00    +0.000 A 
ATOM      2  C   UNL     1      48.862   6.107  16.424  0.00  0.00    +0.000 A 
ATOM      3  C   UNL     1      49.279   7.438  16.507  0.00  0.00    +0.000 A 
ATOM      4  C   UNL     1      49.578   7.958  17.759  0.00  0.00    +0.000 A 
ATOM      5  C   UNL     1      49.553   7.136  18.886  0.00  0.00    +0.000 A 
ATOM      6  C   UNL     1      49.193   5.774  18.791  0.00  0.00    +0.000 A 
ENDROOT
BRANCH   6   7
ATOM      7  C   UNL     1      49.370   4.954  20.024  0.00  0.00    +0.000 C 
ATOM      8  N   UNL     1      48.220   4.429  20.576  0.00  0.00    +0.000 N 
ATOM      9  O   UNL     1      50.453   4.747  20.547  0.00  0.00    +0.000 OA
ATOM     10  H   UNL     1      47.294   4.724  20.300  0.00  0.00    +0.000 HD
ATOM     11  H   UNL     1      48.316   3.928  21.448  0.00  0.00    +0.000 HD
ENDBRANCH   6   7
BRANCH   1  12
ATOM     12  C   UNL     1      48.139   3.859  17.326  0.00  0.00    +0.000 C 
ATOM     13  C   UNL     1      49.246   2.835  17.036  0.00  0.00    +0.000 C 
BRANCH  12  14
ATOM     14  C   UNL     1      47.105   3.915  16.164  0.00  0.00    +0.000 C 
BRANCH  14  15
ATOM     15  O   UNL     1      47.566   3.360  14.913  0.00  0.00    +0.000 OA
BRANCH  15  19
ATOM     16  C   UNL     1      45.948   7.107  12.151  0.00  0.00    +0.000 C 
ATOM     17  C   UNL     1      45.977   5.638  12.478  0.00  0.00    +0.000 A 
ATOM     18  C   UNL     1      46.761   5.172  13.562  0.00  0.00    +0.000 A 
ATOM     19  C   UNL     1      46.785   3.813  13.852  0.00  0.00    +0.000 A 
ATOM     20  N   UNL     1      46.071   2.910  13.146  0.00  0.00    +0.000 NA
ATOM     21  C   UNL     1      45.323   3.369  12.118  0.00  0.00    +0.000 A 
ATOM     22  C   UNL     1      45.250   4.698  11.724  0.00  0.00    +0.000 A 
BRANCH  22  23
ATOM     23  C   UNL     1      44.388   5.062  10.564  0.00  0.00    +0.000 C 
ATOM     24  N   UNL     1      44.911   4.908   9.308  0.00  0.00    +0.000 N 
ATOM     25  O   UNL     1      43.253   5.502  10.696  0.00  0.00    +0.000 OA
ATOM     26  H   UNL     1      45.884   4.724   9.109  0.00  0.00    +0.000 HD
ATOM     27  H   UNL     1      44.333   5.229   8.538  0.00  0.00    +0.000 HD
ENDBRANCH  22  23
ENDBRANCH  15  19
ENDBRANCH  14  15
ENDBRANCH  12  14
ENDBRANCH   1  12
BRANCH   3  28
ATOM     28  N   UNL     1      49.516   8.209  15.363  0.00  0.00    +0.000 N 
ATOM     29  H   UNL     1      48.906   9.013  15.241  0.00  0.00    +0.000 HD
BRANCH  28  30
ATOM     30  C   UNL     1      50.372   7.875  14.260  0.00  0.00    +0.000 C 
ATOM     31  C   UNL     1      50.881   9.120  13.507  0.00  0.00    +0.000 C 
ATOM     32  N   UNL     1      50.439   8.531  12.232  0.00  0.00    +0.000 NA
ATOM     33  C   UNL     1      49.643   7.520  12.955  0.00  0.00    +0.000 C 
ATOM     34  H   UNL     1      51.203   8.135  11.683  0.00  0.00    +0.000 HD
ENDBRANCH  28  30
ENDBRANCH   3  28
TORSDOF 8
ENDMDL
MODEL 6
REMARK VINA RESULT:    -6.350      3.847      6.866
REMARK INTER + INTRA:         -10.088
REMARK INTER:                  -9.983
REMARK INTRA:                  -0.105
REMARK UNBOUND:                -0.769
REMARK  Name = 
REMARK  10 active torsions:
REMARK  status: ('A' for Active; 'I' for Inactive)
REMARK    1  A    between atoms: C_1  and  C_2
REMARK    2  A    between atoms: C_4  and  O_5
REMARK    3  A    between atoms: O_5  and  C_6
REMARK    4  A    between atoms: C_6  and  C_7
REMARK    5  A    between atoms: C_7  and  C_8
REMARK    6  A    between atoms: C_7  and  C_9
REMARK    7  A    between atoms: C_11  and  N_12
REMARK    8  A    between atoms: N_12  and  C_13
REMARK    9  A    between atoms: C_19  and  C_20
REMARK   10  A    between atoms: C_25  and  C_26
REMARK                            x       y       z     vdW  Elec       q    Type
REMARK                         _______ _______ _______ _____ _____    ______ ____
ROOT
ATOM      1  C   UNL     1      49.029   4.392  17.337  0.00  0.00    +0.000 A 
ATOM      2  C   UNL     1      49.202   5.778  17.591  0.00  0.00    +0.000 A 
ATOM      3  C   UNL     1      50.414   6.336  18.005  0.00  0.00    +0.000 A 
ATOM      4  C   UNL     1      51.498   5.489  18.196  0.00  0.00    +0.000 A 
ATOM      5  C   UNL     1      51.394   4.133  17.886  0.00  0.00    +0.000 A 
ATOM      6  C   UNL     1      50.184   3.583  17.406  0.00  0.00    +0.000 A 
ENDROOT
BRANCH   6   7
ATOM      7  C   UNL     1      50.239   2.165  16.944  0.00  0.00    +0.000 C 
ATOM      8  N   UNL     1      50.785   1.258  17.828  0.00  0.00    +0.000 N 
ATOM      9  O   UNL     1      49.842   1.797  15.850  0.00  0.00    +0.000 OA
ATOM     10  H   UNL     1      51.296   1.535  18.654  0.00  0.00    +0.000 HD
ATOM     11  H   UNL     1      50.890   0.306  17.503  0.00  0.00    +0.000 HD
ENDBRANCH   6   7
BRANCH   1  12
ATOM     12  C   UNL     1      47.601   3.906  17.028  0.00  0.00    +0.000 C 
ATOM     13  C   UNL     1      47.252   2.689  17.897  0.00  0.00    +0.000 C 
BRANCH  12  14
ATOM     14  C   UNL     1      47.470   3.572  15.513  0.00  0.00    +0.000 C 
BRANCH  14  15
ATOM     15  O   UNL     1      47.707   4.684  14.623  0.00  0.00    +0.000 OA
BRANCH  15  19
ATOM     16  C   UNL     1      45.107   7.730  11.751  0.00  0.00    +0.000 C 
ATOM     17  C   UNL     1      45.316   6.375  12.373  0.00  0.00    +0.000 A 
ATOM     18  C   UNL     1      46.423   6.154  13.227  0.00  0.00    +0.000 A 
ATOM     19  C   UNL     1      46.609   4.898  13.793  0.00  0.00    +0.000 A 
ATOM     20  N   UNL     1      45.759   3.873  13.573  0.00  0.00    +0.000 NA
ATOM     21  C   UNL     1      44.702   4.099  12.760  0.00  0.00    +0.000 A 
ATOM     22  C   UNL     1      44.438   5.303  12.122  0.00  0.00    +0.000 A 
BRANCH  22  23
ATOM     23  C   UNL     1      43.237   5.410  11.245  0.00  0.00    +0.000 C 
ATOM     24  N   UNL     1      42.135   6.045  11.750  0.00  0.00    +0.000 N 
ATOM     25  O   UNL     1      43.201   4.943  10.115  0.00  0.00    +0.000 OA
ATOM     26  H   UNL     1      42.011   6.301  12.719  0.00  0.00    +0.000 HD
ATOM     27  H   UNL     1      41.307   6.044  11.163  0.00  0.00    +0.000 HD
ENDBRANCH  22  23
ENDBRANCH  15  19
ENDBRANCH  14  15
ENDBRANCH  12  14
ENDBRANCH   1  12
BRANCH   3  28
ATOM     28  N   UNL     1      50.591   7.721  18.111  0.00  0.00    +0.000 N 
ATOM     29  H   UNL     1      51.215   8.138  17.426  0.00  0.00    +0.000 HD
BRANCH  28  30
ATOM     30  C   UNL     1      50.157   8.565  19.189  0.00  0.00    +0.000 C 
ATOM     31  C   UNL     1      49.668   7.761  20.410  0.00  0.00    +0.000 C 
ATOM     32  N   UNL     1      48.423   8.547  20.430  0.00  0.00    +0.000 NA
ATOM     33  C   UNL     1      48.710   9.067  19.078  0.00  0.00    +0.000 C 
ATOM     34  H   UNL     1      48.411   9.268  21.152  0.00  0.00    +0.000 HD
ENDBRANCH  28  30
ENDBRANCH   3  28
TORSDOF 8
ENDMDL
MODEL 7
REMARK VINA RESULT:    -6.254      3.776      7.299
REMARK INTER + INTRA:          -9.948
REMARK INTER:                  -9.199
REMARK INTRA:                  -0.749
REMARK UNBOUND:                -0.769
REMARK  Name = 
REMARK  10 active torsions:
REMARK  status: ('A' for Active; 'I' for Inactive)
REMARK    1  A    between atoms: C_1  and  C_2
REMARK    2  A    between atoms: C_4  and  O_5
REMARK    3  A    between atoms: O_5  and  C_6
REMARK    4  A    between atoms: C_6  and  C_7
REMARK    5  A    between atoms: C_7  and  C_8
REMARK    6  A    between atoms: C_7  and  C_9
REMARK    7  A    between atoms: C_11  and  N_12
REMARK    8  A    between atoms: N_12  and  C_13
REMARK    9  A    between atoms: C_19  and  C_20
REMARK   10  A    between atoms: C_25  and  C_26
REMARK                            x       y       z     vdW  Elec       q    Type
REMARK                         _______ _______ _______ _____ _____    ______ ____
ROOT
ATOM      1  C   UNL     1      45.459   5.865  12.561  0.00  0.00    +0.000 A 
ATOM      2  C   UNL     1      46.381   6.705  13.239  0.00  0.00    +0.000 A 
ATOM      3  C   UNL     1      46.450   8.086  13.038  0.00  0.00    +0.000 A 
ATOM      4  C   UNL     1      45.586   8.661  12.115  0.00  0.00    +0.000 A 
ATOM      5  C   UNL     1      44.615   7.886  11.482  0.00  0.00    +0.000 A 
ATOM      6  C   UNL     1      44.505   6.500  11.735  0.00  0.00    +0.000 A 
ENDROOT
BRANCH   6   7
ATOM      7  C   UNL     1      43.324   5.810  11.140  0.00  0.00    +0.000 C 
ATOM      8  N   UNL     1      42.101   6.094  11.713  0.00  0.00    +0.000 N 
ATOM      9  O   UNL     1      43.400   5.027  10.208  0.00  0.00    +0.000 OA
ATOM     10  H   UNL     1      42.007   6.576  12.595  0.00  0.00    +0.000 HD
ATOM     11  H   UNL     1      41.301   5.583  11.365  0.00  0.00    +0.000 HD
ENDBRANCH   6   7
BRANCH   1  12
ATOM     12  C   UNL     1      45.598   4.347  12.779  0.00  0.00    +0.000 C 
ATOM     13  C   UNL     1      44.290   3.765  13.335  0.00  0.00    +0.000 C 
BRANCH  12  14
ATOM     14  C   UNL     1      46.794   4.054  13.730  0.00  0.00    +0.000 C 
BRANCH  14  15
ATOM     15  O   UNL     1      46.446   3.940  15.127  0.00  0.00    +0.000 OA
BRANCH  15  19
ATOM     16  C   UNL     1      50.242   1.763  17.393  0.00  0.00    +0.000 C 
ATOM     17  C   UNL     1      49.454   2.999  17.052  0.00  0.00    +0.000 A 
ATOM     18  C   UNL     1      48.296   2.897  16.244  0.00  0.00    +0.000 A 
ATOM     19  C   UNL     1      47.578   4.046  15.931  0.00  0.00    +0.000 A 
ATOM     20  N   UNL     1      47.935   5.266  16.384  0.00  0.00    +0.000 NA
ATOM     21  C   UNL     1      49.040   5.349  17.159  0.00  0.00    +0.000 A 
ATOM     22  C   UNL     1      49.843   4.273  17.508  0.00  0.00    +0.000 A 
BRANCH  22  23
ATOM     23  C   UNL     1      51.039   4.511  18.366  0.00  0.00    +0.000 C 
ATOM     24  N   UNL     1      50.893   4.359  19.718  0.00  0.00    +0.000 N 
ATOM     25  O   UNL     1      52.124   4.846  17.908  0.00  0.00    +0.000 OA
ATOM     26  H   UNL     1      50.008   4.260  20.194  0.00  0.00    +0.000 HD
ATOM     27  H   UNL     1      51.701   4.594  20.287  0.00  0.00    +0.000 HD
ENDBRANCH  22  23
ENDBRANCH  15  19
ENDBRANCH  14  15
ENDBRANCH  12  14
ENDBRANCH   1  12
BRANCH   3  28
ATOM     28  N   UNL     1      47.271   8.906  13.822  0.00  0.00    +0.000 N 
ATOM     29  H   UNL     1      46.787   9.551  14.440  0.00  0.00    +0.000 HD
BRANCH  28  30
ATOM     30  C   UNL     1      48.691   9.073  13.698  0.00  0.00    +0.000 C 
ATOM     31  C   UNL     1      49.249   8.456  12.400  0.00  0.00    +0.000 C 
ATOM     32  N   UNL     1      50.265   7.730  13.181  0.00  0.00    +0.000 NA
ATOM     33  C   UNL     1      49.536   8.021  14.431  0.00  0.00    +0.000 C 
ATOM     34  H   UNL     1      51.190   8.158  13.137  0.00  0.00    +0.000 HD
ENDBRANCH  28  30
ENDBRANCH   3  28
TORSDOF 8
ENDMDL
MODEL 8
REMARK VINA RESULT:    -6.167      3.102      7.645
REMARK INTER + INTRA:          -9.819
REMARK INTER:                  -9.643
REMARK INTRA:                  -0.176
REMARK UNBOUND:                -0.769
REMARK  Name = 
REMARK  10 active torsions:
REMARK  status: ('A' for Active; 'I' for Inactive)
REMARK    1  A    between atoms: C_1  and  C_2
REMARK    2  A    between atoms: C_4  and  O_5
REMARK    3  A    between atoms: O_5  and  C_6
REMARK    4  A    between atoms: C_6  and  C_7
REMARK    5  A    between atoms: C_7  and  C_8
REMARK    6  A    between atoms: C_7  and  C_9
REMARK    7  A    between atoms: C_11  and  N_12
REMARK    8  A    between atoms: N_12  and  C_13
REMARK    9  A    between atoms: C_19  and  C_20
REMARK   10  A    between atoms: C_25  and  C_26
REMARK                            x       y       z     vdW  Elec       q    Type
REMARK                         _______ _______ _______ _____ _____    ______ ____
ROOT
ATOM      1  C   UNL     1      45.308   5.491  10.903  0.00  0.00    +0.000 A 
ATOM      2  C   UNL     1      46.019   5.172   9.717  0.00  0.00    +0.000 A 
ATOM      3  C   UNL     1      45.512   4.334   8.720  0.00  0.00    +0.000 A 
ATOM      4  C   UNL     1      44.257   3.770   8.910  0.00  0.00    +0.000 A 
ATOM      5  C   UNL     1      43.492   4.115  10.025  0.00  0.00    +0.000 A 
ATOM      6  C   UNL     1      43.982   5.013  10.999  0.00  0.00    +0.000 A 
ENDROOT
BRANCH   6   7
ATOM      7  C   UNL     1      43.014   5.442  12.050  0.00  0.00    +0.000 C 
ATOM      8  N   UNL     1      42.173   6.483  11.714  0.00  0.00    +0.000 N 
ATOM      9  O   UNL     1      42.948   4.931  13.156  0.00  0.00    +0.000 OA
ATOM     10  H   UNL     1      42.313   7.060  10.896  0.00  0.00    +0.000 HD
ATOM     11  H   UNL     1      41.558   6.829  12.437  0.00  0.00    +0.000 HD
ENDBRANCH   6   7
BRANCH   1  12
ATOM     12  C   UNL     1      46.053   6.310  11.974  0.00  0.00    +0.000 C 
ATOM     13  C   UNL     1      46.044   5.565  13.317  0.00  0.00    +0.000 C 
BRANCH  12  14
ATOM     14  C   UNL     1      45.409   7.720  12.107  0.00  0.00    +0.000 C 
BRANCH  14  15
ATOM     15  O   UNL     1      45.858   8.488  13.244  0.00  0.00    +0.000 OA
BRANCH  15  19
ATOM     16  C   UNL     1      49.802  10.336  10.938  0.00  0.00    +0.000 C 
ATOM     17  C   UNL     1      49.192   9.580  12.088  0.00  0.00    +0.000 A 
ATOM     18  C   UNL     1      47.792   9.374  12.132  0.00  0.00    +0.000 A 
ATOM     19  C   UNL     1      47.237   8.678  13.201  0.00  0.00    +0.000 A 
ATOM     20  N   UNL     1      47.989   8.171  14.201  0.00  0.00    +0.000 NA
ATOM     21  C   UNL     1      49.325   8.370  14.143  0.00  0.00    +0.000 A 
ATOM     22  C   UNL     1      49.978   9.073  13.139  0.00  0.00    +0.000 A 
BRANCH  22  23
ATOM     23  C   UNL     1      51.460   9.222  13.206  0.00  0.00    +0.000 C 
ATOM     24  N   UNL     1      52.225   8.235  12.645  0.00  0.00    +0.000 N 
ATOM     25  O   UNL     1      52.004  10.174  13.751  0.00  0.00    +0.000 OA
ATOM     26  H   UNL     1      51.873   7.340  12.336  0.00  0.00    +0.000 HD
ATOM     27  H   UNL     1      53.229   8.323  12.764  0.00  0.00    +0.000 HD
ENDBRANCH  22  23
ENDBRANCH  15  19
ENDBRANCH  14  15
ENDBRANCH  12  14
ENDBRANCH   1  12
BRANCH   3  28
ATOM     28  N   UNL     1      46.176   4.152   7.501  0.00  0.00    +0.000 N 
ATOM     29  H   UNL     1      45.780   4.646   6.707  0.00  0.00    +0.000 HD
BRANCH  28  30
ATOM     30  C   UNL     1      47.211   3.198   7.218  0.00  0.00    +0.000 C 
ATOM     31  C   UNL     1      47.184   2.712   5.756  0.00  0.00    +0.000 C 
ATOM     32  N   UNL     1      47.205   1.314   6.219  0.00  0.00    +0.000 NA
ATOM     33  C   UNL     1      46.876   1.746   7.592  0.00  0.00    +0.000 C 
ATOM     34  H   UNL     1      48.123   0.875   6.137  0.00  0.00    +0.000 HD
ENDBRANCH  28  30
ENDBRANCH   3  28
TORSDOF 8
ENDMDL
