MODEL 1
REMARK VINA RESULT:    -8.710      0.000      0.000
REMARK INTER + INTRA:         -12.765
REMARK INTER:                 -11.765
REMARK INTRA:                  -1.000
REMARK UNBOUND:                -1.000
REMARK  Name = 
REMARK  6 active torsions:
REMARK  status: ('A' for Active; 'I' for Inactive)
REMARK    1  A    between atoms: C_2  and  C_4
REMARK    2  A    between atoms: C_7  and  N_8
REMARK    3  A    between atoms: N_8  and  C_9
REMARK    4  A    between atoms: C_9  and  C_10
REMARK    5  A    between atoms: C_10  and  C_11
REMARK    6  A    between atoms: C_15  and  C_16
REMARK                            x       y       z     vdW  Elec       q    Type
REMARK                         _______ _______ _______ _____ _____    ______ ____
ROOT
ATOM      1  C   UNL     1      43.440   5.516  12.221  0.00  0.00    +0.000 C 
ENDROOT
BRANCH   1   2
ATOM      2  C   UNL     1      44.881   5.596  12.653  0.00  0.00    +0.000 A 
ATOM      3  C   UNL     1      45.415   4.666  13.533  0.00  0.00    +0.000 A 
ATOM      4  N   UNL     1      46.692   4.687  13.964  0.00  0.00    +0.000 NA
ATOM      5  C   UNL     1      47.475   5.684  13.493  0.00  0.00    +0.000 A 
ATOM      6  C   UNL     1      47.059   6.698  12.621  0.00  0.00    +0.000 A 
ATOM      7  C   UNL     1      45.719   6.630  12.208  0.00  0.00    +0.000 A 
BRANCH   6   8
ATOM      8  C   UNL     1      47.992   7.736  12.154  0.00  0.00    +0.000 A 
ATOM      9  C   UNL     1      47.611   9.094  12.124  0.00  0.00    +0.000 A 
ATOM     10  C   UNL     1      48.513  10.097  11.764  0.00  0.00    +0.000 A 
ATOM     11  C   UNL     1      49.824   9.771  11.425  0.00  0.00    +0.000 A 
ATOM     12 CL   UNL     1      50.900  11.065  11.041  0.00  0.00    +0.000 Cl
ATOM     13  C   UNL     1      50.221   8.432  11.418  0.00  0.00    +0.000 A 
ATOM     14 CL   UNL     1      51.835   7.947  11.035  0.00  0.00    +0.000 Cl
ATOM     15  C   UNL     1      49.308   7.430  11.765  0.00  0.00    +0.000 A 
ENDBRANCH   6   8
ENDBRANCH   1   2
BRANCH   1  16
ATOM     16  C   UNL     1      43.231   4.416  11.180  0.00  0.00    +0.000 C 
BRANCH  16  17
ATOM     17  N   UNL     1      43.717   4.825   9.863  0.00  0.00    +0.000 N 
ATOM     18  H   UNL     1      43.012   5.170   9.215  0.00  0.00    +0.000 HD
BRANCH  17  22
ATOM     19  C   UNL     1      46.472   2.382   7.794  0.00  0.00    +0.000 A 
ATOM     20  C   UNL     1      46.502   3.764   7.609  0.00  0.00    +0.000 A 
ATOM     21  C   UNL     1      45.611   4.582   8.309  0.00  0.00    +0.000 A 
ATOM     22  C   UNL     1      44.696   4.054   9.230  0.00  0.00    +0.000 A 
ATOM     23  C   UNL     1      44.684   2.662   9.409  0.00  0.00    +0.000 A 
ATOM     24  C   UNL     1      45.562   1.830   8.697  0.00  0.00    +0.000 A 
BRANCH  19  26
ATOM     25  N   UNL     1      48.416   2.047   6.369  0.00  0.00    +0.000 N 
ATOM     26  C   UNL     1      47.337   1.483   6.987  0.00  0.00    +0.000 C 
ATOM     27  O   UNL     1      47.100   0.285   6.887  0.00  0.00    +0.000 OA
ATOM     28  H   UNL     1      49.025   1.419   5.859  0.00  0.00    +0.000 HD
ATOM     29  H   UNL     1      48.770   2.960   6.610  0.00  0.00    +0.000 HD
ENDBRANCH  19  26
ENDBRANCH  17  22
ENDBRANCH  16  17
ENDBRANCH   1  16
TORSDOF 6
ENDMDL
MODEL 2
REMARK VINA RESULT:    -8.521      1.534      2.089
REMARK INTER + INTRA:         -12.509
REMARK INTER:                 -11.498
REMARK INTRA:                  -1.011
REMARK UNBOUND:                -1.000
REMARK  Name = 
REMARK  6 active torsions:
REMARK  status: ('A' for Active; 'I' for Inactive)
REMARK    1  A    between atoms: C_2  and  C_4
REMARK    2  A    between atoms: C_7  and  N_8
REMARK    3  A    between atoms: N_8  and  C_9
REMARK    4  A    between atoms: C_9  and  C_10
REMARK    5  A    between atoms: C_10  and  C_11
REMARK    6  A    between atoms: C_15  and  C_16
REMARK                            x       y       z     vdW  Elec       q    Type
REMARK                         _______ _______ _______ _____ _____    ______ ____
ROOT
ATOM      1  C   UNL     1      43.454   5.506  12.262  0.00  0.00    +0.000 C 
ENDROOT
BRANCH   1   2
ATOM      2  C   UNL     1      44.809   5.067  12.753  0.00  0.00    +0.000 A 
ATOM      3  C   UNL     1      45.068   3.735  13.042  0.00  0.00    +0.000 A 
ATOM      4  N   UNL     1      46.253   3.281  13.492  0.00  0.00    +0.000 NA
ATOM      5  C   UNL     1      47.231   4.200  13.662  0.00  0.00    +0.000 A 
ATOM      6  C   UNL     1      47.098   5.575  13.431  0.00  0.00    +0.000 A 
ATOM      7  C   UNL     1      45.841   5.993  12.968  0.00  0.00    +0.000 A 
BRANCH   6   8
ATOM      8  C   UNL     1      48.228   6.497  13.634  0.00  0.00    +0.000 A 
ATOM      9  C   UNL     1      48.753   6.728  14.922  0.00  0.00    +0.000 A 
ATOM     10  C   UNL     1      49.878   7.533  15.119  0.00  0.00    +0.000 A 
ATOM     11  C   UNL     1      50.510   8.129  14.030  0.00  0.00    +0.000 A 
ATOM     12 CL   UNL     1      51.924   9.069  14.339  0.00  0.00    +0.000 Cl
ATOM     13  C   UNL     1      49.995   7.941  12.745  0.00  0.00    +0.000 A 
ATOM     14 CL   UNL     1      50.736   8.624  11.342  0.00  0.00    +0.000 Cl
ATOM     15  C   UNL     1      48.859   7.146  12.557  0.00  0.00    +0.000 A 
ENDBRANCH   6   8
ENDBRANCH   1   2
BRANCH   1  16
ATOM     16  C   UNL     1      43.061   4.770  10.981  0.00  0.00    +0.000 C 
BRANCH  16  17
ATOM     17  N   UNL     1      43.945   5.119   9.870  0.00  0.00    +0.000 N 
ATOM     18  H   UNL     1      43.609   5.848   9.245  0.00  0.00    +0.000 HD
BRANCH  17  22
ATOM     19  C   UNL     1      46.211   2.109   7.960  0.00  0.00    +0.000 A 
ATOM     20  C   UNL     1      45.203   1.750   8.855  0.00  0.00    +0.000 A 
ATOM     21  C   UNL     1      44.432   2.739   9.472  0.00  0.00    +0.000 A 
ATOM     22  C   UNL     1      44.619   4.099   9.191  0.00  0.00    +0.000 A 
ATOM     23  C   UNL     1      45.632   4.442   8.284  0.00  0.00    +0.000 A 
ATOM     24  C   UNL     1      46.425   3.458   7.673  0.00  0.00    +0.000 A 
BRANCH  19  26
ATOM     25  N   UNL     1      46.874  -0.218   7.702  0.00  0.00    +0.000 N 
ATOM     26  C   UNL     1      47.111   1.085   7.371  0.00  0.00    +0.000 C 
ATOM     27  O   UNL     1      48.023   1.394   6.612  0.00  0.00    +0.000 OA
ATOM     28  H   UNL     1      47.462  -0.913   7.259  0.00  0.00    +0.000 HD
ATOM     29  H   UNL     1      46.012  -0.528   8.125  0.00  0.00    +0.000 HD
ENDBRANCH  19  26
ENDBRANCH  17  22
ENDBRANCH  16  17
ENDBRANCH   1  16
TORSDOF 6
ENDMDL
MODEL 3
REMARK VINA RESULT:    -8.382      3.240      4.329
REMARK INTER + INTRA:         -12.323
REMARK INTER:                 -11.433
REMARK INTRA:                  -0.889
REMARK UNBOUND:                -1.000
REMARK  Name = 
REMARK  6 active torsions:
REMARK  status: ('A' for Active; 'I' for Inactive)
REMARK    1  A    between atoms: C_2  and  C_4
REMARK    2  A    between atoms: C_7  and  N_8
REMARK    3  A    between atoms: N_8  and  C_9
REMARK    4  A    between atoms: C_9  and  C_10
REMARK    5  A    between atoms: C_10  and  C_11
REMARK    6  A    between atoms: C_15  and  C_16
REMARK                            x       y       z     vdW  Elec       q    Type
REMARK                         _______ _______ _______ _____ _____    ______ ____
ROOT
ATOM      1  C   UNL     1      43.595   5.278  12.080  0.00  0.00    +0.000 C 
ENDROOT
BRANCH   1   2
ATOM      2  C   UNL     1      45.031   5.652  12.343  0.00  0.00    +0.000 A 
ATOM      3  C   UNL     1      45.776   6.337  11.394  0.00  0.00    +0.000 A 
ATOM      4  N   UNL     1      47.065   6.692  11.565  0.00  0.00    +0.000 NA
ATOM      5  C   UNL     1      47.638   6.348  12.741  0.00  0.00    +0.000 A 
ATOM      6  C   UNL     1      47.010   5.638  13.771  0.00  0.00    +0.000 A 
ATOM      7  C   UNL     1      45.670   5.290  13.538  0.00  0.00    +0.000 A 
BRANCH   6   8
ATOM      8  C   UNL     1      47.717   5.321  15.023  0.00  0.00    +0.000 A 
ATOM      9  C   UNL     1      48.670   6.209  15.563  0.00  0.00    +0.000 A 
ATOM     10  C   UNL     1      49.285   5.962  16.792  0.00  0.00    +0.000 A 
ATOM     11  C   UNL     1      48.963   4.817  17.517  0.00  0.00    +0.000 A 
ATOM     12 CL   UNL     1      49.723   4.599  19.051  0.00  0.00    +0.000 Cl
ATOM     13  C   UNL     1      48.044   3.905  16.993  0.00  0.00    +0.000 A 
ATOM     14 CL   UNL     1      47.572   2.475  17.842  0.00  0.00    +0.000 Cl
ATOM     15  C   UNL     1      47.443   4.152  15.755  0.00  0.00    +0.000 A 
ENDBRANCH   6   8
ENDBRANCH   1   2
BRANCH   1  16
ATOM     16  C   UNL     1      43.390   4.847  10.627  0.00  0.00    +0.000 C 
BRANCH  16  17
ATOM     17  N   UNL     1      43.742   3.442  10.430  0.00  0.00    +0.000 N 
ATOM     18  H   UNL     1      43.929   2.907  11.275  0.00  0.00    +0.000 HD
BRANCH  17  22
ATOM     19  C   UNL     1      46.517   2.526   7.381  0.00  0.00    +0.000 A 
ATOM     20  C   UNL     1      46.002   1.502   8.175  0.00  0.00    +0.000 A 
ATOM     21  C   UNL     1      45.064   1.793   9.169  0.00  0.00    +0.000 A 
ATOM     22  C   UNL     1      44.592   3.095   9.375  0.00  0.00    +0.000 A 
ATOM     23  C   UNL     1      45.114   4.113   8.563  0.00  0.00    +0.000 A 
ATOM     24  C   UNL     1      46.071   3.835   7.575  0.00  0.00    +0.000 A 
BRANCH  19  26
ATOM     25  N   UNL     1      47.673   3.104   5.319  0.00  0.00    +0.000 N 
ATOM     26  C   UNL     1      47.589   2.259   6.388  0.00  0.00    +0.000 C 
ATOM     27  O   UNL     1      48.371   1.325   6.525  0.00  0.00    +0.000 OA
ATOM     28  H   UNL     1      48.435   2.942   4.672  0.00  0.00    +0.000 HD
ATOM     29  H   UNL     1      47.209   4.000   5.291  0.00  0.00    +0.000 HD
ENDBRANCH  19  26
ENDBRANCH  17  22
ENDBRANCH  16  17
ENDBRANCH   1  16
TORSDOF 6
ENDMDL
MODEL 4
REMARK VINA RESULT:    -8.132      2.871      4.092
REMARK INTER + INTRA:         -11.985
REMARK INTER:                 -11.119
REMARK INTRA:                  -0.866
REMARK UNBOUND:                -1.000
REMARK  Name = 
REMARK  6 active torsions:
REMARK  status: ('A' for Active; 'I' for Inactive)
REMARK    1  A    between atoms: C_2  and  C_4
REMARK    2  A    between atoms: C_7  and  N_8
REMARK    3  A    between atoms: N_8  and  C_9
REMARK    4  A    between atoms: C_9  and  C_10
REMARK    5  A    between atoms: C_10  and  C_11
REMARK    6  A    between atoms: C_15  and  C_16
REMARK                            x       y       z     vdW  Elec       q    Type
REMARK                         _______ _______ _______ _____ _____    ______ ____
ROOT
ATOM      1  C   UNL     1      43.520   5.539  12.037  0.00  0.00    +0.000 C 
ENDROOT
BRANCH   1   2
ATOM      2  C   UNL     1      44.969   5.824  12.337  0.00  0.00    +0.000 A 
ATOM      3  C   UNL     1      45.771   6.490  11.421  0.00  0.00    +0.000 A 
ATOM      4  N   UNL     1      47.073   6.767  11.625  0.00  0.00    +0.000 NA
ATOM      5  C   UNL     1      47.603   6.361  12.802  0.00  0.00    +0.000 A 
ATOM      6  C   UNL     1      46.915   5.662  13.801  0.00  0.00    +0.000 A 
ATOM      7  C   UNL     1      45.563   5.396  13.534  0.00  0.00    +0.000 A 
BRANCH   6   8
ATOM      8  C   UNL     1      47.578   5.273  15.057  0.00  0.00    +0.000 A 
ATOM      9  C   UNL     1      47.309   4.029  15.663  0.00  0.00    +0.000 A 
ATOM     10  C   UNL     1      47.993   3.611  16.807  0.00  0.00    +0.000 A 
ATOM     11  C   UNL     1      48.968   4.428  17.377  0.00  0.00    +0.000 A 
ATOM     12 CL   UNL     1      49.809   3.828  18.759  0.00  0.00    +0.000 Cl
ATOM     13  C   UNL     1      49.234   5.678  16.814  0.00  0.00    +0.000 A 
ATOM     14 CL   UNL     1      50.445   6.738  17.446  0.00  0.00    +0.000 Cl
ATOM     15  C   UNL     1      48.535   6.096  15.677  0.00  0.00    +0.000 A 
ENDBRANCH   6   8
ENDBRANCH   1   2
BRANCH   1  16
ATOM     16  C   UNL     1      43.335   5.055  10.599  0.00  0.00    +0.000 C 
BRANCH  16  17
ATOM     17  N   UNL     1      43.787   3.675  10.436  0.00  0.00    +0.000 N 
ATOM     18  H   UNL     1      43.899   3.138  11.293  0.00  0.00    +0.000 HD
BRANCH  17  22
ATOM     19  C   UNL     1      46.588   2.695   7.429  0.00  0.00    +0.000 A 
ATOM     20  C   UNL     1      46.244   4.030   7.643  0.00  0.00    +0.000 A 
ATOM     21  C   UNL     1      45.338   4.365   8.653  0.00  0.00    +0.000 A 
ATOM     22  C   UNL     1      44.780   3.392   9.492  0.00  0.00    +0.000 A 
ATOM     23  C   UNL     1      45.142   2.055   9.269  0.00  0.00    +0.000 A 
ATOM     24  C   UNL     1      46.036   1.705   8.245  0.00  0.00    +0.000 A 
BRANCH  19  26
ATOM     25  N   UNL     1      47.343   3.009   5.137  0.00  0.00    +0.000 N 
ATOM     26  C   UNL     1      47.469   2.303   6.299  0.00  0.00    +0.000 C 
ATOM     27  O   UNL     1      48.281   1.391   6.406  0.00  0.00    +0.000 OA
ATOM     28  H   UNL     1      47.978   2.766   4.388  0.00  0.00    +0.000 HD
ATOM     29  H   UNL     1      46.864   3.896   5.084  0.00  0.00    +0.000 HD
ENDBRANCH  19  26
ENDBRANCH  17  22
ENDBRANCH  16  17
ENDBRANCH   1  16
TORSDOF 6
ENDMDL
MODEL 5
REMARK VINA RESULT:    -8.066      1.887      2.460
REMARK INTER + INTRA:         -11.895
REMARK INTER:                 -11.071
REMARK INTRA:                  -0.824
REMARK UNBOUND:                -1.000
REMARK  Name = 
REMARK  6 active torsions:
REMARK  status: ('A' for Active; 'I' for Inactive)
REMARK    1  A    between atoms: C_2  and  C_4
REMARK    2  A    between atoms: C_7  and  N_8
REMARK    3  A    between atoms: N_8  and  C_9
REMARK    4  A    between atoms: C_9  and  C_10
REMARK    5  A    between atoms: C_10  and  C_11
REMARK    6  A    between atoms: C_15  and  C_16
REMARK                            x       y       z     vdW  Elec       q    Type
REMARK                         _______ _______ _______ _____ _____    ______ ____
ROOT
ATOM      1  C   UNL     1      43.549   4.055  12.762  0.00  0.00    +0.000 C 
ENDROOT
BRANCH   1   2
ATOM      2  C   UNL     1      44.268   5.340  12.442  0.00  0.00    +0.000 A 
ATOM      3  C   UNL     1      43.649   6.343  11.712  0.00  0.00    +0.000 A 
ATOM      4  N   UNL     1      44.239   7.509  11.386  0.00  0.00    +0.000 NA
ATOM      5  C   UNL     1      45.512   7.684  11.811  0.00  0.00    +0.000 A 
ATOM      6  C   UNL     1      46.260   6.748  12.534  0.00  0.00    +0.000 A 
ATOM      7  C   UNL     1      45.597   5.549  12.842  0.00  0.00    +0.000 A 
BRANCH   6   8
ATOM      8  C   UNL     1      47.638   7.037  12.964  0.00  0.00    +0.000 A 
ATOM      9  C   UNL     1      48.539   7.705  12.109  0.00  0.00    +0.000 A 
ATOM     10  C   UNL     1      49.821   8.062  12.534  0.00  0.00    +0.000 A 
ATOM     11  C   UNL     1      50.238   7.761  13.828  0.00  0.00    +0.000 A 
ATOM     12 CL   UNL     1      51.815   8.276  14.303  0.00  0.00    +0.000 Cl
ATOM     13  C   UNL     1      49.377   7.075  14.688  0.00  0.00    +0.000 A 
ATOM     14 CL   UNL     1      49.809   6.688  16.316  0.00  0.00    +0.000 Cl
ATOM     15  C   UNL     1      48.099   6.707  14.251  0.00  0.00    +0.000 A 
ENDBRANCH   6   8
ENDBRANCH   1   2
BRANCH   1  16
ATOM     16  C   UNL     1      43.926   2.947  11.777  0.00  0.00    +0.000 C 
BRANCH  16  17
ATOM     17  N   UNL     1      43.715   3.367  10.393  0.00  0.00    +0.000 N 
ATOM     18  H   UNL     1      42.797   3.167  10.001  0.00  0.00    +0.000 HD
BRANCH  17  22
ATOM     19  C   UNL     1      46.642   2.695   7.422  0.00  0.00    +0.000 A 
ATOM     20  C   UNL     1      46.207   3.995   7.681  0.00  0.00    +0.000 A 
ATOM     21  C   UNL     1      45.258   4.229   8.680  0.00  0.00    +0.000 A 
ATOM     22  C   UNL     1      44.745   3.188   9.464  0.00  0.00    +0.000 A 
ATOM     23  C   UNL     1      45.197   1.887   9.196  0.00  0.00    +0.000 A 
ATOM     24  C   UNL     1      46.136   1.639   8.182  0.00  0.00    +0.000 A 
BRANCH  19  26
ATOM     25  N   UNL     1      47.485   3.210   5.198  0.00  0.00    +0.000 N 
ATOM     26  C   UNL     1      47.571   2.408   6.300  0.00  0.00    +0.000 C 
ATOM     27  O   UNL     1      48.388   1.496   6.361  0.00  0.00    +0.000 OA
ATOM     28  H   UNL     1      48.152   3.036   4.458  0.00  0.00    +0.000 HD
ATOM     29  H   UNL     1      46.999   4.095   5.201  0.00  0.00    +0.000 HD
ENDBRANCH  19  26
ENDBRANCH  17  22
ENDBRANCH  16  17
ENDBRANCH   1  16
TORSDOF 6
ENDMDL
MODEL 6
REMARK VINA RESULT:    -7.992      1.364      2.045
REMARK INTER + INTRA:         -11.796
REMARK INTER:                 -10.997
REMARK INTRA:                  -0.799
REMARK UNBOUND:                -1.000
REMARK  Name = 
REMARK  6 active torsions:
REMARK  status: ('A' for Active; 'I' for Inactive)
REMARK    1  A    between atoms: C_2  and  C_4
REMARK    2  A    between atoms: C_7  and  N_8
REMARK    3  A    between atoms: N_8  and  C_9
REMARK    4  A    between atoms: C_9  and  C_10
REMARK    5  A    between atoms: C_10  and  C_11
REMARK    6  A    between atoms: C_15  and  C_16
REMARK                            x       y       z     vdW  Elec       q    Type
REMARK                         _______ _______ _______ _____ _____    ______ ____
ROOT
ATOM      1  C   UNL     1      45.512   5.019  11.763  0.00  0.00    +0.000 C 
ENDROOT
BRANCH   1   2
ATOM      2  C   UNL     1      45.999   6.416  12.047  0.00  0.00    +0.000 A 
ATOM      3  C   UNL     1      45.132   7.396  12.508  0.00  0.00    +0.000 A 
ATOM      4  N   UNL     1      45.502   8.664  12.772  0.00  0.00    +0.000 NA
ATOM      5  C   UNL     1      46.804   8.970  12.568  0.00  0.00    +0.000 A 
ATOM      6  C   UNL     1      47.778   8.087  12.086  0.00  0.00    +0.000 A 
ATOM      7  C   UNL     1      47.335   6.781  11.823  0.00  0.00    +0.000 A 
BRANCH   6   8
ATOM      8  C   UNL     1      49.176   8.513  11.909  0.00  0.00    +0.000 A 
ATOM      9  C   UNL     1      49.668   9.670  12.548  0.00  0.00    +0.000 A 
ATOM     10  C   UNL     1      51.012  10.039  12.458  0.00  0.00    +0.000 A 
ATOM     11  C   UNL     1      51.904   9.258  11.725  0.00  0.00    +0.000 A 
ATOM     12 CL   UNL     1      53.560   9.743  11.698  0.00  0.00    +0.000 Cl
ATOM     13  C   UNL     1      51.438   8.123  11.058  0.00  0.00    +0.000 A 
ATOM     14 CL   UNL     1      52.485   7.089  10.150  0.00  0.00    +0.000 Cl
ATOM     15  C   UNL     1      50.088   7.768  11.140  0.00  0.00    +0.000 A 
ENDBRANCH   6   8
ENDBRANCH   1   2
BRANCH   1  16
ATOM     16  C   UNL     1      44.015   5.004  11.457  0.00  0.00    +0.000 C 
BRANCH  16  17
ATOM     17  N   UNL     1      43.762   4.910  10.020  0.00  0.00    +0.000 N 
ATOM     18  H   UNL     1      42.785   4.943   9.736  0.00  0.00    +0.000 HD
BRANCH  17  22
ATOM     19  C   UNL     1      46.258   2.282   7.851  0.00  0.00    +0.000 A 
ATOM     20  C   UNL     1      45.317   1.763   8.740  0.00  0.00    +0.000 A 
ATOM     21  C   UNL     1      44.470   2.624   9.442  0.00  0.00    +0.000 A 
ATOM     22  C   UNL     1      44.513   4.012   9.255  0.00  0.00    +0.000 A 
ATOM     23  C   UNL     1      45.461   4.517   8.353  0.00  0.00    +0.000 A 
ATOM     24  C   UNL     1      46.330   3.662   7.656  0.00  0.00    +0.000 A 
BRANCH  19  26
ATOM     25  N   UNL     1      48.314   1.994   6.581  0.00  0.00    +0.000 N 
ATOM     26  C   UNL     1      47.237   1.396   7.170  0.00  0.00    +0.000 C 
ATOM     27  O   UNL     1      47.091   0.179   7.145  0.00  0.00    +0.000 OA
ATOM     28  H   UNL     1      48.999   1.380   6.160  0.00  0.00    +0.000 HD
ATOM     29  H   UNL     1      48.587   2.946   6.775  0.00  0.00    +0.000 HD
ENDBRANCH  19  26
ENDBRANCH  17  22
ENDBRANCH  16  17
ENDBRANCH   1  16
TORSDOF 6
ENDMDL
MODEL 7
REMARK VINA RESULT:    -7.597      4.326      7.456
REMARK INTER + INTRA:         -11.261
REMARK INTER:                 -10.714
REMARK INTRA:                  -0.547
REMARK UNBOUND:                -1.000
REMARK  Name = 
REMARK  6 active torsions:
REMARK  status: ('A' for Active; 'I' for Inactive)
REMARK    1  A    between atoms: C_2  and  C_4
REMARK    2  A    between atoms: C_7  and  N_8
REMARK    3  A    between atoms: N_8  and  C_9
REMARK    4  A    between atoms: C_9  and  C_10
REMARK    5  A    between atoms: C_10  and  C_11
REMARK    6  A    between atoms: C_15  and  C_16
REMARK                            x       y       z     vdW  Elec       q    Type
REMARK                         _______ _______ _______ _____ _____    ______ ____
ROOT
ATOM      1  C   UNL     1      45.053   6.919  12.668  0.00  0.00    +0.000 C 
ENDROOT
BRANCH   1   2
ATOM      2  C   UNL     1      44.595   5.673  11.955  0.00  0.00    +0.000 A 
ATOM      3  C   UNL     1      43.493   4.958  12.402  0.00  0.00    +0.000 A 
ATOM      4  N   UNL     1      43.039   3.833  11.816  0.00  0.00    +0.000 NA
ATOM      5  C   UNL     1      43.717   3.401  10.727  0.00  0.00    +0.000 A 
ATOM      6  C   UNL     1      44.855   4.012  10.186  0.00  0.00    +0.000 A 
ATOM      7  C   UNL     1      45.286   5.177  10.840  0.00  0.00    +0.000 A 
BRANCH   6   8
ATOM      8  C   UNL     1      45.517   3.470   8.987  0.00  0.00    +0.000 A 
ATOM      9  C   UNL     1      46.020   4.328   7.987  0.00  0.00    +0.000 A 
ATOM     10  C   UNL     1      46.725   3.833   6.888  0.00  0.00    +0.000 A 
ATOM     11  C   UNL     1      46.948   2.464   6.758  0.00  0.00    +0.000 A 
ATOM     12 CL   UNL     1      47.870   1.926   5.403  0.00  0.00    +0.000 Cl
ATOM     13  C   UNL     1      46.436   1.589   7.719  0.00  0.00    +0.000 A 
ATOM     14 CL   UNL     1      46.691  -0.119   7.645  0.00  0.00    +0.000 Cl
ATOM     15  C   UNL     1      45.718   2.090   8.810  0.00  0.00    +0.000 A 
ENDBRANCH   6   8
ENDBRANCH   1   2
BRANCH   1  16
ATOM     16  C   UNL     1      46.536   7.191  12.415  0.00  0.00    +0.000 C 
BRANCH  16  17
ATOM     17  N   UNL     1      47.264   7.393  13.667  0.00  0.00    +0.000 N 
ATOM     18  H   UNL     1      48.037   8.055  13.630  0.00  0.00    +0.000 HD
BRANCH  17  22
ATOM     19  C   UNL     1      47.938   4.173  16.315  0.00  0.00    +0.000 A 
ATOM     20  C   UNL     1      47.193   3.966  15.155  0.00  0.00    +0.000 A 
ATOM     21  C   UNL     1      46.988   5.020  14.260  0.00  0.00    +0.000 A 
ATOM     22  C   UNL     1      47.541   6.288  14.478  0.00  0.00    +0.000 A 
ATOM     23  C   UNL     1      48.294   6.478  15.647  0.00  0.00    +0.000 A 
ATOM     24  C   UNL     1      48.491   5.431  16.562  0.00  0.00    +0.000 A 
BRANCH  19  26
ATOM     25  N   UNL     1      46.939   2.541  17.820  0.00  0.00    +0.000 N 
ATOM     26  C   UNL     1      48.086   3.099  17.331  0.00  0.00    +0.000 C 
ATOM     27  O   UNL     1      49.189   2.721  17.709  0.00  0.00    +0.000 OA
ATOM     28  H   UNL     1      47.050   1.779  18.476  0.00  0.00    +0.000 HD
ATOM     29  H   UNL     1      46.041   2.657  17.375  0.00  0.00    +0.000 HD
ENDBRANCH  19  26
ENDBRANCH  17  22
ENDBRANCH  16  17
ENDBRANCH   1  16
TORSDOF 6
ENDMDL
MODEL 8
REMARK VINA RESULT:    -7.404      4.084      6.894
REMARK INTER + INTRA:         -11.001
REMARK INTER:                 -10.013
REMARK INTRA:                  -0.988
REMARK UNBOUND:                -1.000
REMARK  Name = 
REMARK  6 active torsions:
REMARK  status: ('A' for Active; 'I' for Inactive)
REMARK    1  A    between atoms: C_2  and  C_4
REMARK    2  A    between atoms: C_7  and  N_8
REMARK    3  A    between atoms: N_8  and  C_9
REMARK    4  A    between atoms: C_9  and  C_10
REMARK    5  A    between atoms: C_10  and  C_11
REMARK    6  A    between atoms: C_15  and  C_16
REMARK                            x       y       z     vdW  Elec       q    Type
REMARK                         _______ _______ _______ _____ _____    ______ ____
ROOT
ATOM      1  C   UNL     1      43.110   6.677  11.871  0.00  0.00    +0.000 C 
ENDROOT
BRANCH   1   2
ATOM      2  C   UNL     1      43.451   5.244  11.557  0.00  0.00    +0.000 A 
ATOM      3  C   UNL     1      43.033   4.212  12.385  0.00  0.00    +0.000 A 
ATOM      4  N   UNL     1      43.313   2.912  12.165  0.00  0.00    +0.000 NA
ATOM      5  C   UNL     1      44.044   2.627  11.063  0.00  0.00    +0.000 A 
ATOM      6  C   UNL     1      44.547   3.570  10.159  0.00  0.00    +0.000 A 
ATOM      7  C   UNL     1      44.230   4.908  10.440  0.00  0.00    +0.000 A 
BRANCH   6   8
ATOM      8  C   UNL     1      45.325   3.158   8.978  0.00  0.00    +0.000 A 
ATOM      9  C   UNL     1      45.828   4.115   8.072  0.00  0.00    +0.000 A 
ATOM     10  C   UNL     1      46.638   3.746   6.996  0.00  0.00    +0.000 A 
ATOM     11  C   UNL     1      46.969   2.408   6.797  0.00  0.00    +0.000 A 
ATOM     12 CL   UNL     1      48.016   2.028   5.478  0.00  0.00    +0.000 Cl
ATOM     13  C   UNL     1      46.461   1.436   7.662  0.00  0.00    +0.000 A 
ATOM     14 CL   UNL     1      46.846  -0.241   7.498  0.00  0.00    +0.000 Cl
ATOM     15  C   UNL     1      45.638   1.811   8.729  0.00  0.00    +0.000 A 
ENDBRANCH   6   8
ENDBRANCH   1   2
BRANCH   1  16
ATOM     16  C   UNL     1      44.206   7.628  11.389  0.00  0.00    +0.000 C 
BRANCH  16  17
ATOM     17  N   UNL     1      44.940   8.211  12.510  0.00  0.00    +0.000 N 
ATOM     18  H   UNL     1      44.540   9.055  12.914  0.00  0.00    +0.000 HD
BRANCH  17  22
ATOM     19  C   UNL     1      49.145   8.210  12.107  0.00  0.00    +0.000 A 
ATOM     20  C   UNL     1      48.451   9.420  12.094  0.00  0.00    +0.000 A 
ATOM     21  C   UNL     1      47.063   9.431  12.253  0.00  0.00    +0.000 A 
ATOM     22  C   UNL     1      46.337   8.251  12.460  0.00  0.00    +0.000 A 
ATOM     23  C   UNL     1      47.050   7.043  12.478  0.00  0.00    +0.000 A 
ATOM     24  C   UNL     1      48.443   7.019  12.301  0.00  0.00    +0.000 A 
BRANCH  19  26
ATOM     25  N   UNL     1      51.058   7.162  11.029  0.00  0.00    +0.000 N 
ATOM     26  C   UNL     1      50.605   8.163  11.840  0.00  0.00    +0.000 C 
ATOM     27  O   UNL     1      51.372   8.991  12.319  0.00  0.00    +0.000 OA
ATOM     28  H   UNL     1      52.047   7.165  10.815  0.00  0.00    +0.000 HD
ATOM     29  H   UNL     1      50.447   6.615  10.441  0.00  0.00    +0.000 HD
ENDBRANCH  19  26
ENDBRANCH  17  22
ENDBRANCH  16  17
ENDBRANCH   1  16
TORSDOF 6
ENDMDL
MODEL 9
REMARK VINA RESULT:    -6.969      4.573      7.802
REMARK INTER + INTRA:         -10.414
REMARK INTER:                  -9.224
REMARK INTRA:                  -1.190
REMARK UNBOUND:                -1.000
REMARK  Name = 
REMARK  6 active torsions:
REMARK  status: ('A' for Active; 'I' for Inactive)
REMARK    1  A    between atoms: C_2  and  C_4
REMARK    2  A    between atoms: C_7  and  N_8
REMARK    3  A    between atoms: N_8  and  C_9
REMARK    4  A    between atoms: C_9  and  C_10
REMARK    5  A    between atoms: C_10  and  C_11
REMARK    6  A    between atoms: C_15  and  C_16
REMARK                            x       y       z     vdW  Elec       q    Type
REMARK                         _______ _______ _______ _____ _____    ______ ____
ROOT
ATOM      1  C   UNL     1      49.181   8.924  12.435  0.00  0.00    +0.000 C 
ENDROOT
BRANCH   1   2
ATOM      2  C   UNL     1      47.727   8.611  12.194  0.00  0.00    +0.000 A 
ATOM      3  C   UNL     1      46.737   9.534  12.498  0.00  0.00    +0.000 A 
ATOM      4  N   UNL     1      45.421   9.313  12.315  0.00  0.00    +0.000 NA
ATOM      5  C   UNL     1      45.074   8.110  11.801  0.00  0.00    +0.000 A 
ATOM      6  C   UNL     1      45.966   7.082  11.473  0.00  0.00    +0.000 A 
ATOM      7  C   UNL     1      47.324   7.366  11.689  0.00  0.00    +0.000 A 
BRANCH   6   8
ATOM      8  C   UNL     1      45.490   5.809  10.906  0.00  0.00    +0.000 A 
ATOM      9  C   UNL     1      45.788   5.453   9.574  0.00  0.00    +0.000 A 
ATOM     10  C   UNL     1      45.417   4.213   9.050  0.00  0.00    +0.000 A 
ATOM     11  C   UNL     1      44.738   3.292   9.845  0.00  0.00    +0.000 A 
ATOM     12 CL   UNL     1      44.356   1.760   9.149  0.00  0.00    +0.000 Cl
ATOM     13  C   UNL     1      44.405   3.629  11.159  0.00  0.00    +0.000 A 
ATOM     14 CL   UNL     1      43.588   2.534  12.217  0.00  0.00    +0.000 Cl
ATOM     15  C   UNL     1      44.767   4.879  11.673  0.00  0.00    +0.000 A 
ENDBRANCH   6   8
ENDBRANCH   1   2
BRANCH   1  16
ATOM     16  C   UNL     1      49.826   7.890  13.358  0.00  0.00    +0.000 C 
BRANCH  16  17
ATOM     17  N   UNL     1      49.277   7.964  14.711  0.00  0.00    +0.000 N 
ATOM     18  H   UNL     1      49.717   8.638  15.334  0.00  0.00    +0.000 HD
BRANCH  17  22
ATOM     19  C   UNL     1      48.058   4.544  16.870  0.00  0.00    +0.000 A 
ATOM     20  C   UNL     1      47.584   4.747  15.574  0.00  0.00    +0.000 A 
ATOM     21  C   UNL     1      48.003   5.862  14.844  0.00  0.00    +0.000 A 
ATOM     22  C   UNL     1      48.923   6.780  15.366  0.00  0.00    +0.000 A 
ATOM     23  C   UNL     1      49.395   6.558  16.668  0.00  0.00    +0.000 A 
ATOM     24  C   UNL     1      48.967   5.451  17.418  0.00  0.00    +0.000 A 
BRANCH  19  26
ATOM     25  N   UNL     1      48.308   3.054  18.778  0.00  0.00    +0.000 N 
ATOM     26  C   UNL     1      47.551   3.424  17.704  0.00  0.00    +0.000 C 
ATOM     27  O   UNL     1      46.493   2.860  17.445  0.00  0.00    +0.000 OA
ATOM     28  H   UNL     1      47.932   2.321  19.366  0.00  0.00    +0.000 HD
ATOM     29  H   UNL     1      49.047   3.630  19.152  0.00  0.00    +0.000 HD
ENDBRANCH  19  26
ENDBRANCH  17  22
ENDBRANCH  16  17
ENDBRANCH   1  16
TORSDOF 6
ENDMDL
