MODEL 1
REMARK VINA RESULT:    -7.956      0.000      0.000
REMARK INTER + INTRA:         -10.509
REMARK INTER:                  -9.816
REMARK INTRA:                  -0.693
REMARK UNBOUND:                -0.693
REMARK  Name = 
REMARK  5 active torsions:
REMARK  status: ('A' for Active; 'I' for Inactive)
REMARK    1  A    between atoms: C_1  and  C_2
REMARK    2  A    between atoms: C_2  and  O_3
REMARK    3  A    between atoms: C_2  and  C_13
REMARK    4  A    between atoms: O_3  and  C_4
REMARK    5  A    between atoms: C_7  and  C_8
REMARK                            x       y       z     vdW  Elec       q    Type
REMARK                         _______ _______ _______ _____ _____    ______ ____
ROOT
ATOM      1  C   UNL     1      44.598   3.820   9.297  0.00  0.00    +0.000 A 
ATOM      2  C   UNL     1      44.627   2.439   9.432  0.00  0.00    +0.000 A 
ATOM      3  C   UNL     1      45.533   1.690   8.684  0.00  0.00    +0.000 A 
ATOM      4  C   UNL     1      46.398   2.341   7.816  0.00  0.00    +0.000 A 
ATOM      5  N   UNL     1      46.419   3.694   7.659  0.00  0.00    +0.000 NA
ATOM      6  C   UNL     1      45.509   4.390   8.403  0.00  0.00    +0.000 A 
ENDROOT
BRANCH   4   7
ATOM      7  C   UNL     1      47.329   1.513   6.988  0.00  0.00    +0.000 C 
ATOM      8  N   UNL     1      48.454   2.144   6.525  0.00  0.00    +0.000 N 
ATOM      9  O   UNL     1      47.108   0.341   6.722  0.00  0.00    +0.000 OA
ATOM     10  H   UNL     1      48.616   3.121   6.732  0.00  0.00    +0.000 HD
ATOM     11  H   UNL     1      49.089   1.636   5.926  0.00  0.00    +0.000 HD
ENDBRANCH   4   7
BRANCH   1  12
ATOM     12  O   UNL     1      43.718   4.659   9.915  0.00  0.00    +0.000 OA
BRANCH  12  14
ATOM     13  C   UNL     1      42.389   5.472  11.823  0.00  0.00    +0.000 C 
ATOM     14  C   UNL     1      43.548   4.589  11.345  0.00  0.00    +0.000 C 
BRANCH  14  15
ATOM     15  C   UNL     1      44.840   5.072  12.003  0.00  0.00    +0.000 A 
ATOM     16  C   UNL     1      45.356   6.345  11.703  0.00  0.00    +0.000 A 
ATOM     17  C   UNL     1      46.508   6.817  12.339  0.00  0.00    +0.000 A 
ATOM     18  C   UNL     1      47.157   6.017  13.277  0.00  0.00    +0.000 A 
ATOM     19 CL   UNL     1      48.533   6.623  14.114  0.00  0.00    +0.000 Cl
ATOM     20  C   UNL     1      46.693   4.734  13.549  0.00  0.00    +0.000 A 
ATOM     21  C   UNL     1      45.547   4.260  12.904  0.00  0.00    +0.000 A 
ENDBRANCH  14  15
ENDBRANCH  12  14
ENDBRANCH   1  12
TORSDOF 4
ENDMDL
MODEL 2
REMARK VINA RESULT:    -6.765      3.782      6.252
REMARK INTER + INTRA:          -9.039
REMARK INTER:                  -9.455
REMARK INTRA:                   0.416
REMARK UNBOUND:                -0.693
REMARK  Name = 
REMARK  5 active torsions:
REMARK  status: ('A' for Active; 'I' for Inactive)
REMARK    1  A    between atoms: C_1  and  C_2
REMARK    2  A    between atoms: C_2  and  O_3
REMARK    3  A    between atoms: C_2  and  C_13
REMARK    4  A    between atoms: O_3  and  C_4
REMARK    5  A    between atoms: C_7  and  C_8
REMARK                            x       y       z     vdW  Elec       q    Type
REMARK                         _______ _______ _______ _____ _____    ______ ____
ROOT
ATOM      1  C   UNL     1      45.137   5.186  11.721  0.00  0.00    +0.000 A 
ATOM      2  C   UNL     1      46.325   5.904  11.689  0.00  0.00    +0.000 A 
ATOM      3  C   UNL     1      47.159   5.911  12.806  0.00  0.00    +0.000 A 
ATOM      4  C   UNL     1      46.788   5.195  13.934  0.00  0.00    +0.000 A 
ATOM      5  N   UNL     1      45.640   4.464  14.010  0.00  0.00    +0.000 NA
ATOM      6  C   UNL     1      44.847   4.490  12.898  0.00  0.00    +0.000 A 
ENDROOT
BRANCH   4   7
ATOM      7  C   UNL     1      47.674   5.257  15.138  0.00  0.00    +0.000 C 
ATOM      8  N   UNL     1      47.210   4.630  16.265  0.00  0.00    +0.000 N 
ATOM      9  O   UNL     1      48.748   5.838  15.135  0.00  0.00    +0.000 OA
ATOM     10  H   UNL     1      46.309   4.171  16.264  0.00  0.00    +0.000 HD
ATOM     11  H   UNL     1      47.756   4.683  17.114  0.00  0.00    +0.000 HD
ENDBRANCH   4   7
BRANCH   1  12
ATOM     12  O   UNL     1      44.204   5.152  10.727  0.00  0.00    +0.000 OA
BRANCH  12  14
ATOM     13  C   UNL     1      43.640   2.810  11.234  0.00  0.00    +0.000 C 
ATOM     14  C   UNL     1      43.810   3.888  10.158  0.00  0.00    +0.000 C 
BRANCH  14  15
ATOM     15  C   UNL     1      44.899   3.443   9.182  0.00  0.00    +0.000 A 
ATOM     16  C   UNL     1      45.254   2.086   9.087  0.00  0.00    +0.000 A 
ATOM     17  C   UNL     1      46.211   1.662   8.160  0.00  0.00    +0.000 A 
ATOM     18  C   UNL     1      46.825   2.592   7.324  0.00  0.00    +0.000 A 
ATOM     19 CL   UNL     1      47.949   2.064   6.133  0.00  0.00    +0.000 Cl
ATOM     20  C   UNL     1      46.525   3.945   7.439  0.00  0.00    +0.000 A 
ATOM     21  C   UNL     1      45.576   4.370   8.373  0.00  0.00    +0.000 A 
ENDBRANCH  14  15
ENDBRANCH  12  14
ENDBRANCH   1  12
TORSDOF 4
ENDMDL
MODEL 3
REMARK VINA RESULT:    -6.756      3.823      6.555
REMARK INTER + INTRA:          -9.029
REMARK INTER:                  -8.456
REMARK INTRA:                  -0.573
REMARK UNBOUND:                -0.693
REMARK  Name = 
REMARK  5 active torsions:
REMARK  status: ('A' for Active; 'I' for Inactive)
REMARK    1  A    between atoms: C_1  and  C_2
REMARK    2  A    between atoms: C_2  and  O_3
REMARK    3  A    between atoms: C_2  and  C_13
REMARK    4  A    between atoms: O_3  and  C_4
REMARK    5  A    between atoms: C_7  and  C_8
REMARK                            x       y       z     vdW  Elec       q    Type
REMARK                         _______ _______ _______ _____ _____    ______ ____
ROOT
ATOM      1  C   UNL     1      45.516   5.725  11.841  0.00  0.00    +0.000 A 
ATOM      2  C   UNL     1      46.661   6.299  12.375  0.00  0.00    +0.000 A 
ATOM      3  C   UNL     1      46.759   7.686  12.471  0.00  0.00    +0.000 A 
ATOM      4  C   UNL     1      45.705   8.472  12.033  0.00  0.00    +0.000 A 
ATOM      5  N   UNL     1      44.554   7.958  11.514  0.00  0.00    +0.000 NA
ATOM      6  C   UNL     1      44.502   6.595  11.429  0.00  0.00    +0.000 A 
ENDROOT
BRANCH   4   7
ATOM      7  C   UNL     1      45.853   9.960  12.100  0.00  0.00    +0.000 C 
ATOM      8  N   UNL     1      44.692  10.680  12.210  0.00  0.00    +0.000 N 
ATOM      9  O   UNL     1      46.939  10.517  12.051  0.00  0.00    +0.000 OA
ATOM     10  H   UNL     1      43.796  10.211  12.227  0.00  0.00    +0.000 HD
ATOM     11  H   UNL     1      44.741  11.689  12.216  0.00  0.00    +0.000 HD
ENDBRANCH   4   7
BRANCH   1  12
ATOM     12  O   UNL     1      45.322   4.392  11.628  0.00  0.00    +0.000 OA
BRANCH  12  14
ATOM     13  C   UNL     1      43.482   2.826  11.149  0.00  0.00    +0.000 C 
ATOM     14  C   UNL     1      44.378   3.956  10.630  0.00  0.00    +0.000 C 
BRANCH  14  15
ATOM     15  C   UNL     1      45.163   3.448   9.421  0.00  0.00    +0.000 A 
ATOM     16  C   UNL     1      45.683   4.355   8.481  0.00  0.00    +0.000 A 
ATOM     17  C   UNL     1      46.447   3.905   7.400  0.00  0.00    +0.000 A 
ATOM     18  C   UNL     1      46.693   2.542   7.247  0.00  0.00    +0.000 A 
ATOM     19 CL   UNL     1      47.694   1.991   5.960  0.00  0.00    +0.000 Cl
ATOM     20  C   UNL     1      46.145   1.624   8.137  0.00  0.00    +0.000 A 
ATOM     21  C   UNL     1      45.372   2.075   9.211  0.00  0.00    +0.000 A 
ENDBRANCH  14  15
ENDBRANCH  12  14
ENDBRANCH   1  12
TORSDOF 4
ENDMDL
MODEL 4
REMARK VINA RESULT:    -6.696      4.172      6.574
REMARK INTER + INTRA:          -8.954
REMARK INTER:                  -8.352
REMARK INTRA:                  -0.603
REMARK UNBOUND:                -0.693
REMARK  Name = 
REMARK  5 active torsions:
REMARK  status: ('A' for Active; 'I' for Inactive)
REMARK    1  A    between atoms: C_1  and  C_2
REMARK    2  A    between atoms: C_2  and  O_3
REMARK    3  A    between atoms: C_2  and  C_13
REMARK    4  A    between atoms: O_3  and  C_4
REMARK    5  A    between atoms: C_7  and  C_8
REMARK                            x       y       z     vdW  Elec       q    Type
REMARK                         _______ _______ _______ _____ _____    ______ ____
ROOT
ATOM      1  C   UNL     1      46.188   4.786  12.905  0.00  0.00    +0.000 A 
ATOM      2  C   UNL     1      46.569   6.049  12.473  0.00  0.00    +0.000 A 
ATOM      3  C   UNL     1      47.498   6.781  13.211  0.00  0.00    +0.000 A 
ATOM      4  C   UNL     1      48.030   6.231  14.368  0.00  0.00    +0.000 A 
ATOM      5  N   UNL     1      47.699   4.991  14.826  0.00  0.00    +0.000 NA
ATOM      6  C   UNL     1      46.779   4.311  14.079  0.00  0.00    +0.000 A 
ENDROOT
BRANCH   4   7
ATOM      7  C   UNL     1      48.988   7.054  15.170  0.00  0.00    +0.000 C 
ATOM      8  N   UNL     1      48.433   7.992  16.001  0.00  0.00    +0.000 N 
ATOM      9  O   UNL     1      50.199   6.918  15.092  0.00  0.00    +0.000 OA
ATOM     10  H   UNL     1      47.429   8.112  16.042  0.00  0.00    +0.000 HD
ATOM     11  H   UNL     1      49.042   8.600  16.530  0.00  0.00    +0.000 HD
ENDBRANCH   4   7
BRANCH   1  12
ATOM     12  O   UNL     1      45.242   3.999  12.316  0.00  0.00    +0.000 OA
BRANCH  12  14
ATOM     13  C   UNL     1      42.999   4.136  11.307  0.00  0.00    +0.000 C 
ATOM     14  C   UNL     1      44.483   4.507  11.201  0.00  0.00    +0.000 C 
BRANCH  14  15
ATOM     15  C   UNL     1      45.052   3.899   9.919  0.00  0.00    +0.000 A 
ATOM     16  C   UNL     1      45.587   4.729   8.917  0.00  0.00    +0.000 A 
ATOM     17  C   UNL     1      46.158   4.180   7.766  0.00  0.00    +0.000 A 
ATOM     18  C   UNL     1      46.195   2.797   7.603  0.00  0.00    +0.000 A 
ATOM     19 CL   UNL     1      46.963   2.117   6.220  0.00  0.00    +0.000 Cl
ATOM     20  C   UNL     1      45.625   1.961   8.557  0.00  0.00    +0.000 A 
ATOM     21  C   UNL     1      45.045   2.512   9.704  0.00  0.00    +0.000 A 
ENDBRANCH  14  15
ENDBRANCH  12  14
ENDBRANCH   1  12
TORSDOF 4
ENDMDL
MODEL 5
REMARK VINA RESULT:    -5.852      4.471      6.849
REMARK INTER + INTRA:          -7.913
REMARK INTER:                  -7.442
REMARK INTRA:                  -0.471
REMARK UNBOUND:                -0.693
REMARK  Name = 
REMARK  5 active torsions:
REMARK  status: ('A' for Active; 'I' for Inactive)
REMARK    1  A    between atoms: C_1  and  C_2
REMARK    2  A    between atoms: C_2  and  O_3
REMARK    3  A    between atoms: C_2  and  C_13
REMARK    4  A    between atoms: O_3  and  C_4
REMARK    5  A    between atoms: C_7  and  C_8
REMARK                            x       y       z     vdW  Elec       q    Type
REMARK                         _______ _______ _______ _____ _____    ______ ____
ROOT
ATOM      1  C   UNL     1      46.680   4.739  14.261  0.00  0.00    +0.000 A 
ATOM      2  C   UNL     1      47.157   4.384  15.515  0.00  0.00    +0.000 A 
ATOM      3  C   UNL     1      48.149   5.154  16.121  0.00  0.00    +0.000 A 
ATOM      4  C   UNL     1      48.642   6.268  15.458  0.00  0.00    +0.000 A 
ATOM      5  N   UNL     1      48.197   6.666  14.233  0.00  0.00    +0.000 NA
ATOM      6  C   UNL     1      47.231   5.879  13.671  0.00  0.00    +0.000 A 
ENDROOT
BRANCH   4   7
ATOM      7  C   UNL     1      49.741   7.050  16.105  0.00  0.00    +0.000 C 
ATOM      8  N   UNL     1      50.969   6.985  15.501  0.00  0.00    +0.000 N 
ATOM      9  O   UNL     1      49.571   7.707  17.121  0.00  0.00    +0.000 OA
ATOM     10  H   UNL     1      51.105   6.420  14.673  0.00  0.00    +0.000 HD
ATOM     11  H   UNL     1      51.751   7.463  15.928  0.00  0.00    +0.000 HD
ENDBRANCH   4   7
BRANCH   1  12
ATOM     12  O   UNL     1      45.766   4.036  13.533  0.00  0.00    +0.000 OA
BRANCH  12  14
ATOM     13  C   UNL     1      43.346   4.350  13.197  0.00  0.00    +0.000 C 
ATOM     14  C   UNL     1      44.766   4.739  12.769  0.00  0.00    +0.000 C 
BRANCH  14  15
ATOM     15  C   UNL     1      44.953   4.382  11.295  0.00  0.00    +0.000 A 
ATOM     16  C   UNL     1      45.470   5.331  10.395  0.00  0.00    +0.000 A 
ATOM     17  C   UNL     1      45.694   4.997   9.056  0.00  0.00    +0.000 A 
ATOM     18  C   UNL     1      45.398   3.714   8.604  0.00  0.00    +0.000 A 
ATOM     19 CL   UNL     1      45.741   3.279   6.974  0.00  0.00    +0.000 Cl
ATOM     20  C   UNL     1      44.838   2.776   9.466  0.00  0.00    +0.000 A 
ATOM     21  C   UNL     1      44.604   3.114  10.801  0.00  0.00    +0.000 A 
ENDBRANCH  14  15
ENDBRANCH  12  14
ENDBRANCH   1  12
TORSDOF 4
ENDMDL
MODEL 6
REMARK VINA RESULT:    -5.761      4.518      6.441
REMARK INTER + INTRA:          -7.801
REMARK INTER:                  -7.301
REMARK INTRA:                  -0.500
REMARK UNBOUND:                -0.693
REMARK  Name = 
REMARK  5 active torsions:
REMARK  status: ('A' for Active; 'I' for Inactive)
REMARK    1  A    between atoms: C_1  and  C_2
REMARK    2  A    between atoms: C_2  and  O_3
REMARK    3  A    between atoms: C_2  and  C_13
REMARK    4  A    between atoms: O_3  and  C_4
REMARK    5  A    between atoms: C_7  and  C_8
REMARK                            x       y       z     vdW  Elec       q    Type
REMARK                         _______ _______ _______ _____ _____    ______ ____
ROOT
ATOM      1  C   UNL     1      47.056   4.778  14.368  0.00  0.00    +0.000 A 
ATOM      2  C   UNL     1      46.520   5.834  13.644  0.00  0.00    +0.000 A 
ATOM      3  C   UNL     1      45.698   5.574  12.549  0.00  0.00    +0.000 A 
ATOM      4  C   UNL     1      45.426   4.259  12.201  0.00  0.00    +0.000 A 
ATOM      5  N   UNL     1      45.917   3.189  12.888  0.00  0.00    +0.000 NA
ATOM      6  C   UNL     1      46.725   3.487  13.948  0.00  0.00    +0.000 A 
ENDROOT
BRANCH   4   7
ATOM      7  C   UNL     1      44.582   4.004  10.993  0.00  0.00    +0.000 C 
ATOM      8  N   UNL     1      44.292   5.095  10.215  0.00  0.00    +0.000 N 
ATOM      9  O   UNL     1      44.158   2.895  10.707  0.00  0.00    +0.000 OA
ATOM     10  H   UNL     1      44.629   6.013  10.472  0.00  0.00    +0.000 HD
ATOM     11  H   UNL     1      43.689   4.977   9.413  0.00  0.00    +0.000 HD
ENDBRANCH   4   7
BRANCH   1  12
ATOM     12  O   UNL     1      47.926   4.894  15.413  0.00  0.00    +0.000 OA
BRANCH  12  14
ATOM     13  C   UNL     1      47.187   4.756  17.758  0.00  0.00    +0.000 C 
ATOM     14  C   UNL     1      47.792   4.025  16.554  0.00  0.00    +0.000 C 
BRANCH  14  15
ATOM     15  C   UNL     1      49.184   3.518  16.934  0.00  0.00    +0.000 A 
ATOM     16  C   UNL     1      50.157   4.412  17.415  0.00  0.00    +0.000 A 
ATOM     17  C   UNL     1      51.415   3.951  17.814  0.00  0.00    +0.000 A 
ATOM     18  C   UNL     1      51.713   2.593  17.731  0.00  0.00    +0.000 A 
ATOM     19 CL   UNL     1      53.234   2.013  18.290  0.00  0.00    +0.000 Cl
ATOM     20  C   UNL     1      50.783   1.700  17.209  0.00  0.00    +0.000 A 
ATOM     21  C   UNL     1      49.529   2.164  16.800  0.00  0.00    +0.000 A 
ENDBRANCH  14  15
ENDBRANCH  12  14
ENDBRANCH   1  12
TORSDOF 4
ENDMDL
MODEL 7
REMARK VINA RESULT:    -5.496      3.921      6.000
REMARK INTER + INTRA:          -7.474
REMARK INTER:                  -6.946
REMARK INTRA:                  -0.528
REMARK UNBOUND:                -0.693
REMARK  Name = 
REMARK  5 active torsions:
REMARK  status: ('A' for Active; 'I' for Inactive)
REMARK    1  A    between atoms: C_1  and  C_2
REMARK    2  A    between atoms: C_2  and  O_3
REMARK    3  A    between atoms: C_2  and  C_13
REMARK    4  A    between atoms: O_3  and  C_4
REMARK    5  A    between atoms: C_7  and  C_8
REMARK                            x       y       z     vdW  Elec       q    Type
REMARK                         _______ _______ _______ _____ _____    ______ ____
ROOT
ATOM      1  C   UNL     1      47.173   5.238  13.406  0.00  0.00    +0.000 A 
ATOM      2  C   UNL     1      46.724   6.110  12.423  0.00  0.00    +0.000 A 
ATOM      3  C   UNL     1      45.629   5.760  11.636  0.00  0.00    +0.000 A 
ATOM      4  C   UNL     1      45.000   4.543  11.852  0.00  0.00    +0.000 A 
ATOM      5  N   UNL     1      45.392   3.659  12.812  0.00  0.00    +0.000 NA
ATOM      6  C   UNL     1      46.475   4.036  13.555  0.00  0.00    +0.000 A 
ENDROOT
BRANCH   4   7
ATOM      7  C   UNL     1      43.857   4.168  10.962  0.00  0.00    +0.000 C 
ATOM      8  N   UNL     1      43.791   4.813   9.755  0.00  0.00    +0.000 N 
ATOM      9  O   UNL     1      43.015   3.343  11.284  0.00  0.00    +0.000 OA
ATOM     10  H   UNL     1      44.480   5.510   9.507  0.00  0.00    +0.000 HD
ATOM     11  H   UNL     1      43.012   4.622   9.140  0.00  0.00    +0.000 HD
ENDBRANCH   4   7
BRANCH   1  12
ATOM     12  O   UNL     1      48.270   5.427  14.194  0.00  0.00    +0.000 OA
BRANCH  12  14
ATOM     13  C   UNL     1      49.489   7.483  14.790  0.00  0.00    +0.000 C 
ATOM     14  C   UNL     1      48.315   6.548  15.100  0.00  0.00    +0.000 C 
BRANCH  14  15
ATOM     15  C   UNL     1      48.477   6.006  16.520  0.00  0.00    +0.000 A 
ATOM     16  C   UNL     1      48.712   6.886  17.592  0.00  0.00    +0.000 A 
ATOM     17  C   UNL     1      48.809   6.406  18.901  0.00  0.00    +0.000 A 
ATOM     18  C   UNL     1      48.677   5.042  19.150  0.00  0.00    +0.000 A 
ATOM     19 CL   UNL     1      48.723   4.457  20.768  0.00  0.00    +0.000 Cl
ATOM     20  C   UNL     1      48.496   4.150  18.098  0.00  0.00    +0.000 A 
ATOM     21  C   UNL     1      48.410   4.629  16.788  0.00  0.00    +0.000 A 
ENDBRANCH  14  15
ENDBRANCH  12  14
ENDBRANCH   1  12
TORSDOF 4
ENDMDL
MODEL 8
REMARK VINA RESULT:    -5.213      3.892      5.973
REMARK INTER + INTRA:          -7.125
REMARK INTER:                  -6.567
REMARK INTRA:                  -0.558
REMARK UNBOUND:                -0.693
REMARK  Name = 
REMARK  5 active torsions:
REMARK  status: ('A' for Active; 'I' for Inactive)
REMARK    1  A    between atoms: C_1  and  C_2
REMARK    2  A    between atoms: C_2  and  O_3
REMARK    3  A    between atoms: C_2  and  C_13
REMARK    4  A    between atoms: O_3  and  C_4
REMARK    5  A    between atoms: C_7  and  C_8
REMARK                            x       y       z     vdW  Elec       q    Type
REMARK                         _______ _______ _______ _____ _____    ______ ____
ROOT
ATOM      1  C   UNL     1      47.269   5.565  13.043  0.00  0.00    +0.000 A 
ATOM      2  C   UNL     1      46.395   6.113  12.114  0.00  0.00    +0.000 A 
ATOM      3  C   UNL     1      45.253   5.406  11.739  0.00  0.00    +0.000 A 
ATOM      4  C   UNL     1      45.008   4.165  12.306  0.00  0.00    +0.000 A 
ATOM      5  N   UNL     1      45.827   3.591  13.231  0.00  0.00    +0.000 NA
ATOM      6  C   UNL     1      46.939   4.312  13.564  0.00  0.00    +0.000 A 
ENDROOT
BRANCH   4   7
ATOM      7  C   UNL     1      43.802   3.403  11.852  0.00  0.00    +0.000 C 
ATOM      8  N   UNL     1      43.647   2.146  12.375  0.00  0.00    +0.000 N 
ATOM      9  O   UNL     1      42.998   3.858  11.053  0.00  0.00    +0.000 OA
ATOM     10  H   UNL     1      44.331   1.769  13.019  0.00  0.00    +0.000 HD
ATOM     11  H   UNL     1      42.871   1.579  12.064  0.00  0.00    +0.000 HD
ENDBRANCH   4   7
BRANCH   1  12
ATOM     12  O   UNL     1      48.451   6.119  13.442  0.00  0.00    +0.000 OA
BRANCH  12  14
ATOM     13  C   UNL     1      49.737   8.161  12.951  0.00  0.00    +0.000 C 
ATOM     14  C   UNL     1      48.534   7.540  13.669  0.00  0.00    +0.000 C 
BRANCH  14  15
ATOM     15  C   UNL     1      48.681   7.775  15.172  0.00  0.00    +0.000 A 
ATOM     16  C   UNL     1      49.132   6.739  16.010  0.00  0.00    +0.000 A 
ATOM     17  C   UNL     1      49.321   6.959  17.378  0.00  0.00    +0.000 A 
ATOM     18  C   UNL     1      49.056   8.214  17.921  0.00  0.00    +0.000 A 
ATOM     19 CL   UNL     1      49.357   8.508  19.589  0.00  0.00    +0.000 Cl
ATOM     20  C   UNL     1      48.560   9.236  17.118  0.00  0.00    +0.000 A 
ATOM     21  C   UNL     1      48.361   9.012  15.752  0.00  0.00    +0.000 A 
ENDBRANCH  14  15
ENDBRANCH  12  14
ENDBRANCH   1  12
TORSDOF 4
ENDMDL
