MODEL 1
REMARK VINA RESULT:    -8.364      0.000      0.000
REMARK INTER + INTRA:         -11.798
REMARK INTER:                 -11.054
REMARK INTRA:                  -0.745
REMARK UNBOUND:                -0.745
REMARK  Name = 
REMARK  6 active torsions:
REMARK  status: ('A' for Active; 'I' for Inactive)
REMARK    1  A    between atoms: C_2  and  C_20
REMARK    2  A    between atoms: N_3  and  C_4
REMARK    3  A    between atoms: C_4  and  C_5
REMARK    4  A    between atoms: C_8  and  C_9
REMARK    5  A    between atoms: C_9  and  O_10
REMARK    6  A    between atoms: C_9  and  C_11
REMARK                            x       y       z     vdW  Elec       q    Type
REMARK                         _______ _______ _______ _____ _____    ______ ____
ROOT
ATOM      1  C   UNL     1      47.270   8.453  13.588  0.00  0.00    +0.000 C 
ENDROOT
BRANCH   1   2
ATOM      2  C   UNL     1      46.221   7.636  12.878  0.00  0.00    +0.000 A 
ATOM      3  C   UNL     1      46.104   6.266  13.141  0.00  0.00    +0.000 A 
ATOM      4  C   UNL     1      45.120   5.503  12.507  0.00  0.00    +0.000 A 
ATOM      5  C   UNL     1      44.226   6.086  11.597  0.00  0.00    +0.000 A 
ATOM      6  C   UNL     1      44.371   7.451  11.306  0.00  0.00    +0.000 A 
ATOM      7  C   UNL     1      45.359   8.215  11.937  0.00  0.00    +0.000 A 
BRANCH   5   8
ATOM      8  C   UNL     1      43.210   5.201  10.903  0.00  0.00    +0.000 C 
BRANCH   8   9
ATOM      9  C   UNL     1      43.677   3.740  10.678  0.00  0.00    +0.000 C 
ATOM     10  O   UNL     1      43.177   2.821  11.334  0.00  0.00    +0.000 OA
ATOM     11  N   UNL     1      44.635   3.497   9.714  0.00  0.00    +0.000 N 
ATOM     12  C   UNL     1      45.342   4.459   8.889  0.00  0.00    +0.000 C 
ATOM     13  C   UNL     1      45.621   3.679   7.619  0.00  0.00    +0.000 C 
ATOM     14  C   UNL     1      45.913   2.274   8.134  0.00  0.00    +0.000 C 
ATOM     15  C   UNL     1      45.064   2.146   9.398  0.00  0.00    +0.000 C 
ENDBRANCH   8   9
BRANCH   8  16
ATOM     16  O   UNL     1      42.009   5.249  11.678  0.00  0.00    +0.000 OA
ATOM     17  H   UNL     1      41.849   4.332  11.957  0.00  0.00    +0.000 HD
ENDBRANCH   8  16
ENDBRANCH   5   8
ENDBRANCH   1   2
BRANCH   1  20
ATOM     18  O   UNL     1      49.459   6.701  13.950  0.00  0.00    +0.000 OA
ATOM     19  C   UNL     1      48.790   7.035  14.925  0.00  0.00    +0.000 C 
ATOM     20  N   UNL     1      47.690   7.844  14.823  0.00  0.00    +0.000 N 
ATOM     21  H   UNL     1      47.261   8.209  15.666  0.00  0.00    +0.000 HD
BRANCH  19  22
ATOM     22  C   UNL     1      49.101   6.537  16.272  0.00  0.00    +0.000 A 
ATOM     23  C   UNL     1      49.817   7.327  17.160  0.00  0.00    +0.000 A 
ATOM     24  S   UNL     1      50.070   6.594  18.679  0.00  0.00    +0.000 S 
ATOM     25  C   UNL     1      49.200   5.207  18.217  0.00  0.00    +0.000 A 
ATOM     26  N   UNL     1      48.997   4.181  19.087  0.00  0.00    +0.000 NA
ATOM     27  C   UNL     1      48.280   3.217  18.618  0.00  0.00    +0.000 A 
ATOM     28  N   UNL     1      47.762   3.173  17.349  0.00  0.00    +0.000 N 
ATOM     29  C   UNL     1      48.024   4.137  16.407  0.00  0.00    +0.000 A 
ATOM     30  O   UNL     1      47.698   3.980  15.236  0.00  0.00    +0.000 OA
ATOM     31  C   UNL     1      48.760   5.284  16.906  0.00  0.00    +0.000 A 
ATOM     32  H   UNL     1      47.247   2.368  17.024  0.00  0.00    +0.000 HD
ENDBRANCH  19  22
ENDBRANCH   1  20
TORSDOF 6
ENDMDL
MODEL 2
REMARK VINA RESULT:    -7.829      1.765      2.254
REMARK INTER + INTRA:         -11.091
REMARK INTER:                 -10.228
REMARK INTRA:                  -0.863
REMARK UNBOUND:                -0.745
REMARK  Name = 
REMARK  6 active torsions:
REMARK  status: ('A' for Active; 'I' for Inactive)
REMARK    1  A    between atoms: C_2  and  C_20
REMARK    2  A    between atoms: N_3  and  C_4
REMARK    3  A    between atoms: C_4  and  C_5
REMARK    4  A    between atoms: C_8  and  C_9
REMARK    5  A    between atoms: C_9  and  O_10
REMARK    6  A    between atoms: C_9  and  C_11
REMARK                            x       y       z     vdW  Elec       q    Type
REMARK                         _______ _______ _______ _____ _____    ______ ____
ROOT
ATOM      1  C   UNL     1      47.792   7.709  13.877  0.00  0.00    +0.000 C 
ENDROOT
BRANCH   1   2
ATOM      2  C   UNL     1      46.694   7.045  13.086  0.00  0.00    +0.000 A 
ATOM      3  C   UNL     1      46.384   5.700  13.311  0.00  0.00    +0.000 A 
ATOM      4  C   UNL     1      45.352   5.081  12.601  0.00  0.00    +0.000 A 
ATOM      5  C   UNL     1      44.601   5.787  11.651  0.00  0.00    +0.000 A 
ATOM      6  C   UNL     1      44.940   7.126  11.398  0.00  0.00    +0.000 A 
ATOM      7  C   UNL     1      45.976   7.746  12.107  0.00  0.00    +0.000 A 
BRANCH   5   8
ATOM      8  C   UNL     1      43.525   5.053  10.876  0.00  0.00    +0.000 C 
BRANCH   8   9
ATOM      9  C   UNL     1      43.883   3.590  10.509  0.00  0.00    +0.000 C 
ATOM     10  O   UNL     1      43.309   2.652  11.071  0.00  0.00    +0.000 OA
ATOM     11  N   UNL     1      44.829   3.370   9.528  0.00  0.00    +0.000 N 
ATOM     12  C   UNL     1      45.614   4.352   8.803  0.00  0.00    +0.000 C 
ATOM     13  C   UNL     1      45.846   3.681   7.463  0.00  0.00    +0.000 C 
ATOM     14  C   UNL     1      46.027   2.214   7.837  0.00  0.00    +0.000 C 
ATOM     15  C   UNL     1      45.158   2.028   9.082  0.00  0.00    +0.000 C 
ENDBRANCH   8   9
BRANCH   8  16
ATOM     16  O   UNL     1      42.327   5.115  11.654  0.00  0.00    +0.000 OA
ATOM     17  H   UNL     1      41.896   4.253  11.528  0.00  0.00    +0.000 HD
ENDBRANCH   8  16
ENDBRANCH   5   8
ENDBRANCH   1   2
BRANCH   1  20
ATOM     18  O   UNL     1      50.168   6.781  15.096  0.00  0.00    +0.000 OA
ATOM     19  C   UNL     1      49.118   6.762  15.736  0.00  0.00    +0.000 C 
ATOM     20  N   UNL     1      47.921   7.154  15.199  0.00  0.00    +0.000 N 
ATOM     21  H   UNL     1      47.116   7.261  15.806  0.00  0.00    +0.000 HD
BRANCH  19  22
ATOM     22  C   UNL     1      49.073   6.262  17.116  0.00  0.00    +0.000 A 
ATOM     23  C   UNL     1      49.519   4.980  17.409  0.00  0.00    +0.000 A 
ATOM     24  S   UNL     1      49.408   4.578  19.063  0.00  0.00    +0.000 S 
ATOM     25  C   UNL     1      48.793   6.116  19.453  0.00  0.00    +0.000 A 
ATOM     26  N   UNL     1      48.515   6.456  20.741  0.00  0.00    +0.000 NA
ATOM     27  C   UNL     1      48.102   7.668  20.895  0.00  0.00    +0.000 A 
ATOM     28  N   UNL     1      47.920   8.569  19.876  0.00  0.00    +0.000 N 
ATOM     29  C   UNL     1      48.092   8.238  18.556  0.00  0.00    +0.000 A 
ATOM     30  O   UNL     1      47.750   9.006  17.663  0.00  0.00    +0.000 OA
ATOM     31  C   UNL     1      48.633   6.911  18.331  0.00  0.00    +0.000 A 
ATOM     32  H   UNL     1      47.548   9.489  20.056  0.00  0.00    +0.000 HD
ENDBRANCH  19  22
ENDBRANCH   1  20
TORSDOF 6
ENDMDL
MODEL 3
REMARK VINA RESULT:    -7.508      1.528      1.889
REMARK INTER + INTRA:         -10.667
REMARK INTER:                 -10.033
REMARK INTRA:                  -0.633
REMARK UNBOUND:                -0.745
REMARK  Name = 
REMARK  6 active torsions:
REMARK  status: ('A' for Active; 'I' for Inactive)
REMARK    1  A    between atoms: C_2  and  C_20
REMARK    2  A    between atoms: N_3  and  C_4
REMARK    3  A    between atoms: C_4  and  C_5
REMARK    4  A    between atoms: C_8  and  C_9
REMARK    5  A    between atoms: C_9  and  O_10
REMARK    6  A    between atoms: C_9  and  C_11
REMARK                            x       y       z     vdW  Elec       q    Type
REMARK                         _______ _______ _______ _____ _____    ______ ____
ROOT
ATOM      1  C   UNL     1      48.161   8.100  13.498  0.00  0.00    +0.000 C 
ENDROOT
BRANCH   1   2
ATOM      2  C   UNL     1      46.954   7.378  12.954  0.00  0.00    +0.000 A 
ATOM      3  C   UNL     1      45.996   8.077  12.210  0.00  0.00    +0.000 A 
ATOM      4  C   UNL     1      44.887   7.414  11.680  0.00  0.00    +0.000 A 
ATOM      5  C   UNL     1      44.704   6.037  11.875  0.00  0.00    +0.000 A 
ATOM      6  C   UNL     1      45.645   5.346  12.655  0.00  0.00    +0.000 A 
ATOM      7  C   UNL     1      46.755   6.011  13.190  0.00  0.00    +0.000 A 
BRANCH   5   8
ATOM      8  C   UNL     1      43.458   5.379  11.319  0.00  0.00    +0.000 C 
BRANCH   8   9
ATOM      9  C   UNL     1      43.624   3.877  10.972  0.00  0.00    +0.000 C 
ATOM     10  O   UNL     1      42.987   3.022  11.596  0.00  0.00    +0.000 OA
ATOM     11  N   UNL     1      44.471   3.530   9.938  0.00  0.00    +0.000 N 
ATOM     12  C   UNL     1      45.311   4.401   9.136  0.00  0.00    +0.000 C 
ATOM     13  C   UNL     1      45.376   3.679   7.804  0.00  0.00    +0.000 C 
ATOM     14  C   UNL     1      45.416   2.210   8.208  0.00  0.00    +0.000 C 
ATOM     15  C   UNL     1      44.617   2.150   9.511  0.00  0.00    +0.000 C 
ENDBRANCH   8   9
BRANCH   8  16
ATOM     16  O   UNL     1      42.412   5.578  12.274  0.00  0.00    +0.000 OA
ATOM     17  H   UNL     1      41.585   5.483  11.770  0.00  0.00    +0.000 HD
ENDBRANCH   8  16
ENDBRANCH   5   8
ENDBRANCH   1   2
BRANCH   1  20
ATOM     18  O   UNL     1      49.750   6.671  15.348  0.00  0.00    +0.000 OA
ATOM     19  C   UNL     1      48.958   7.514  15.763  0.00  0.00    +0.000 C 
ATOM     20  N   UNL     1      48.124   8.214  14.932  0.00  0.00    +0.000 N 
ATOM     21  H   UNL     1      47.597   8.997  15.302  0.00  0.00    +0.000 HD
BRANCH  19  22
ATOM     22  C   UNL     1      48.816   7.788  17.199  0.00  0.00    +0.000 A 
ATOM     23  C   UNL     1      49.222   9.009  17.720  0.00  0.00    +0.000 A 
ATOM     24  S   UNL     1      48.967   9.156  19.400  0.00  0.00    +0.000 S 
ATOM     25  C   UNL     1      48.270   7.606  19.486  0.00  0.00    +0.000 A 
ATOM     26  N   UNL     1      47.787   7.116  20.660  0.00  0.00    +0.000 NA
ATOM     27  C   UNL     1      47.243   5.950  20.568  0.00  0.00    +0.000 A 
ATOM     28  N   UNL     1      47.157   5.215  19.413  0.00  0.00    +0.000 N 
ATOM     29  C   UNL     1      47.718   5.626  18.230  0.00  0.00    +0.000 A 
ATOM     30  O   UNL     1      47.781   4.871  17.265  0.00  0.00    +0.000 OA
ATOM     31  C   UNL     1      48.273   6.967  18.258  0.00  0.00    +0.000 A 
ATOM     32  H   UNL     1      46.762   4.287  19.414  0.00  0.00    +0.000 HD
ENDBRANCH  19  22
ENDBRANCH   1  20
TORSDOF 6
ENDMDL
MODEL 4
REMARK VINA RESULT:    -7.152      3.756      9.309
REMARK INTER + INTRA:         -10.196
REMARK INTER:                  -9.347
REMARK INTRA:                  -0.849
REMARK UNBOUND:                -0.745
REMARK  Name = 
REMARK  6 active torsions:
REMARK  status: ('A' for Active; 'I' for Inactive)
REMARK    1  A    between atoms: C_2  and  C_20
REMARK    2  A    between atoms: N_3  and  C_4
REMARK    3  A    between atoms: C_4  and  C_5
REMARK    4  A    between atoms: C_8  and  C_9
REMARK    5  A    between atoms: C_9  and  O_10
REMARK    6  A    between atoms: C_9  and  C_11
REMARK                            x       y       z     vdW  Elec       q    Type
REMARK                         _______ _______ _______ _____ _____    ______ ____
ROOT
ATOM      1  C   UNL     1      47.171   3.314  16.826  0.00  0.00    +0.000 C 
ENDROOT
BRANCH   1   2
ATOM      2  C   UNL     1      48.639   3.326  17.173  0.00  0.00    +0.000 A 
ATOM      3  C   UNL     1      49.410   2.173  16.996  0.00  0.00    +0.000 A 
ATOM      4  C   UNL     1      50.776   2.180  17.290  0.00  0.00    +0.000 A 
ATOM      5  C   UNL     1      51.408   3.337  17.767  0.00  0.00    +0.000 A 
ATOM      6  C   UNL     1      50.624   4.481  17.982  0.00  0.00    +0.000 A 
ATOM      7  C   UNL     1      49.255   4.474  17.691  0.00  0.00    +0.000 A 
BRANCH   5   8
ATOM      8  C   UNL     1      52.881   3.275  18.116  0.00  0.00    +0.000 C 
BRANCH   8   9
ATOM      9  C   UNL     1      53.411   4.506  18.894  0.00  0.00    +0.000 C 
ATOM     10  O   UNL     1      53.321   4.548  20.125  0.00  0.00    +0.000 OA
ATOM     11  N   UNL     1      54.005   5.529  18.182  0.00  0.00    +0.000 N 
ATOM     12  C   UNL     1      54.157   5.650  16.744  0.00  0.00    +0.000 C 
ATOM     13  C   UNL     1      55.435   6.454  16.602  0.00  0.00    +0.000 C 
ATOM     14  C   UNL     1      55.359   7.433  17.768  0.00  0.00    +0.000 C 
ATOM     15  C   UNL     1      54.590   6.677  18.852  0.00  0.00    +0.000 C 
ENDBRANCH   8   9
BRANCH   8  16
ATOM     16  O   UNL     1      53.090   2.066  18.852  0.00  0.00    +0.000 OA
ATOM     17  H   UNL     1      53.364   2.352  19.740  0.00  0.00    +0.000 HD
ENDBRANCH   8  16
ENDBRANCH   5   8
ENDBRANCH   1   2
BRANCH   1  20
ATOM     18  O   UNL     1      47.279   3.086  14.010  0.00  0.00    +0.000 OA
ATOM     19  C   UNL     1      46.871   4.130  14.513  0.00  0.00    +0.000 C 
ATOM     20  N   UNL     1      46.831   4.332  15.867  0.00  0.00    +0.000 N 
ATOM     21  H   UNL     1      46.352   5.146  16.234  0.00  0.00    +0.000 HD
BRANCH  19  22
ATOM     22  C   UNL     1      46.445   5.263  13.680  0.00  0.00    +0.000 A 
ATOM     23  C   UNL     1      47.297   6.341  13.478  0.00  0.00    +0.000 A 
ATOM     24  S   UNL     1      46.642   7.553  12.472  0.00  0.00    +0.000 S 
ATOM     25  C   UNL     1      45.210   6.664  12.240  0.00  0.00    +0.000 A 
ATOM     26  N   UNL     1      44.219   7.125  11.429  0.00  0.00    +0.000 NA
ATOM     27  C   UNL     1      43.214   6.327  11.308  0.00  0.00    +0.000 A 
ATOM     28  N   UNL     1      43.096   5.115  11.940  0.00  0.00    +0.000 N 
ATOM     29  C   UNL     1      44.023   4.656  12.841  0.00  0.00    +0.000 A 
ATOM     30  O   UNL     1      43.803   3.659  13.522  0.00  0.00    +0.000 OA
ATOM     31  C   UNL     1      45.213   5.478  12.956  0.00  0.00    +0.000 A 
ATOM     32  H   UNL     1      42.262   4.556  11.841  0.00  0.00    +0.000 HD
ENDBRANCH  19  22
ENDBRANCH   1  20
TORSDOF 6
ENDMDL
MODEL 5
REMARK VINA RESULT:    -6.943      2.843      4.598
REMARK INTER + INTRA:          -9.920
REMARK INTER:                  -8.942
REMARK INTRA:                  -0.978
REMARK UNBOUND:                -0.745
REMARK  Name = 
REMARK  6 active torsions:
REMARK  status: ('A' for Active; 'I' for Inactive)
REMARK    1  A    between atoms: C_2  and  C_20
REMARK    2  A    between atoms: N_3  and  C_4
REMARK    3  A    between atoms: C_4  and  C_5
REMARK    4  A    between atoms: C_8  and  C_9
REMARK    5  A    between atoms: C_9  and  O_10
REMARK    6  A    between atoms: C_9  and  C_11
REMARK                            x       y       z     vdW  Elec       q    Type
REMARK                         _______ _______ _______ _____ _____    ______ ____
ROOT
ATOM      1  C   UNL     1      47.236   5.909  14.515  0.00  0.00    +0.000 C 
ENDROOT
BRANCH   1   2
ATOM      2  C   UNL     1      46.577   5.472  13.232  0.00  0.00    +0.000 A 
ATOM      3  C   UNL     1      46.618   6.300  12.105  0.00  0.00    +0.000 A 
ATOM      4  C   UNL     1      46.032   5.895  10.904  0.00  0.00    +0.000 A 
ATOM      5  C   UNL     1      45.391   4.652  10.794  0.00  0.00    +0.000 A 
ATOM      6  C   UNL     1      45.315   3.841  11.936  0.00  0.00    +0.000 A 
ATOM      7  C   UNL     1      45.900   4.248  13.142  0.00  0.00    +0.000 A 
BRANCH   5   8
ATOM      8  C   UNL     1      44.730   4.284   9.480  0.00  0.00    +0.000 C 
BRANCH   8   9
ATOM      9  C   UNL     1      45.082   2.867   8.958  0.00  0.00    +0.000 C 
ATOM     10  O   UNL     1      44.501   1.877   9.413  0.00  0.00    +0.000 OA
ATOM     11  N   UNL     1      46.030   2.750   7.962  0.00  0.00    +0.000 N 
ATOM     12  C   UNL     1      46.823   3.801   7.349  0.00  0.00    +0.000 C 
ATOM     13  C   UNL     1      47.056   3.278   5.945  0.00  0.00    +0.000 C 
ATOM     14  C   UNL     1      47.228   1.778   6.159  0.00  0.00    +0.000 C 
ATOM     15  C   UNL     1      46.354   1.463   7.374  0.00  0.00    +0.000 C 
ENDBRANCH   8   9
BRANCH   8  16
ATOM     16  O   UNL     1      43.319   4.436   9.660  0.00  0.00    +0.000 OA
ATOM     17  H   UNL     1      43.214   5.259  10.168  0.00  0.00    +0.000 HD
ENDBRANCH   8  16
ENDBRANCH   5   8
ENDBRANCH   1   2
BRANCH   1  20
ATOM     18  O   UNL     1      49.832   6.367  15.536  0.00  0.00    +0.000 OA
ATOM     19  C   UNL     1      49.304   7.225  14.833  0.00  0.00    +0.000 C 
ATOM     20  N   UNL     1      48.034   7.095  14.339  0.00  0.00    +0.000 N 
ATOM     21  H   UNL     1      47.699   7.756  13.648  0.00  0.00    +0.000 HD
BRANCH  19  22
ATOM     22  C   UNL     1      49.992   8.485  14.519  0.00  0.00    +0.000 A 
ATOM     23  C   UNL     1      50.259   9.404  15.524  0.00  0.00    +0.000 A 
ATOM     24  S   UNL     1      51.077  10.798  14.978  0.00  0.00    +0.000 S 
ATOM     25  C   UNL     1      51.136  10.206  13.384  0.00  0.00    +0.000 A 
ATOM     26  N   UNL     1      51.754  10.909  12.395  0.00  0.00    +0.000 NA
ATOM     27  C   UNL     1      51.764  10.319  11.249  0.00  0.00    +0.000 A 
ATOM     28  N   UNL     1      51.195   9.098  10.991  0.00  0.00    +0.000 N 
ATOM     29  C   UNL     1      50.477   8.402  11.931  0.00  0.00    +0.000 A 
ATOM     30  O   UNL     1      49.831   7.406  11.622  0.00  0.00    +0.000 OA
ATOM     31  C   UNL     1      50.501   8.982  13.261  0.00  0.00    +0.000 A 
ATOM     32  H   UNL     1      51.195   8.709  10.060  0.00  0.00    +0.000 HD
ENDBRANCH  19  22
ENDBRANCH   1  20
TORSDOF 6
ENDMDL
MODEL 6
REMARK VINA RESULT:    -6.685      3.058      8.376
REMARK INTER + INTRA:          -9.579
REMARK INTER:                  -8.740
REMARK INTRA:                  -0.839
REMARK UNBOUND:                -0.745
REMARK  Name = 
REMARK  6 active torsions:
REMARK  status: ('A' for Active; 'I' for Inactive)
REMARK    1  A    between atoms: C_2  and  C_20
REMARK    2  A    between atoms: N_3  and  C_4
REMARK    3  A    between atoms: C_4  and  C_5
REMARK    4  A    between atoms: C_8  and  C_9
REMARK    5  A    between atoms: C_9  and  O_10
REMARK    6  A    between atoms: C_9  and  C_11
REMARK                            x       y       z     vdW  Elec       q    Type
REMARK                         _______ _______ _______ _____ _____    ______ ____
ROOT
ATOM      1  C   UNL     1      48.202   8.040  12.088  0.00  0.00    +0.000 C 
ENDROOT
BRANCH   1   2
ATOM      2  C   UNL     1      48.915   7.673  13.365  0.00  0.00    +0.000 A 
ATOM      3  C   UNL     1      48.267   6.897  14.331  0.00  0.00    +0.000 A 
ATOM      4  C   UNL     1      48.926   6.530  15.507  0.00  0.00    +0.000 A 
ATOM      5  C   UNL     1      50.250   6.926  15.749  0.00  0.00    +0.000 A 
ATOM      6  C   UNL     1      50.884   7.738  14.796  0.00  0.00    +0.000 A 
ATOM      7  C   UNL     1      50.222   8.109  13.620  0.00  0.00    +0.000 A 
BRANCH   5   8
ATOM      8  C   UNL     1      50.900   6.540  17.062  0.00  0.00    +0.000 C 
BRANCH   8   9
ATOM      9  C   UNL     1      50.315   5.262  17.718  0.00  0.00    +0.000 C 
ATOM     10  O   UNL     1      50.534   4.154  17.220  0.00  0.00    +0.000 OA
ATOM     11  N   UNL     1      49.577   5.396  18.877  0.00  0.00    +0.000 N 
ATOM     12  C   UNL     1      49.202   6.618  19.565  0.00  0.00    +0.000 C 
ATOM     13  C   UNL     1      49.120   6.182  21.015  0.00  0.00    +0.000 C 
ATOM     14  C   UNL     1      48.544   4.773  20.920  0.00  0.00    +0.000 C 
ATOM     15  C   UNL     1      49.063   4.238  19.585  0.00  0.00    +0.000 C 
ENDBRANCH   8   9
BRANCH   8  16
ATOM     16  O   UNL     1      52.302   6.402  16.815  0.00  0.00    +0.000 OA
ATOM     17  H   UNL     1      52.367   5.951  15.956  0.00  0.00    +0.000 HD
ENDBRANCH   8  16
ENDBRANCH   5   8
ENDBRANCH   1   2
BRANCH   1  20
ATOM     18  O   UNL     1      45.398   7.880  11.764  0.00  0.00    +0.000 OA
ATOM     19  C   UNL     1      46.100   6.948  11.381  0.00  0.00    +0.000 C 
ATOM     20  N   UNL     1      47.460   6.933  11.543  0.00  0.00    +0.000 N 
ATOM     21  H   UNL     1      48.008   6.217  11.082  0.00  0.00    +0.000 HD
BRANCH  19  22
ATOM     22  C   UNL     1      45.512   5.751  10.764  0.00  0.00    +0.000 A 
ATOM     23  C   UNL     1      45.727   5.481   9.419  0.00  0.00    +0.000 A 
ATOM     24  S   UNL     1      44.983   4.044   8.882  0.00  0.00    +0.000 S 
ATOM     25  C   UNL     1      44.375   3.712  10.436  0.00  0.00    +0.000 A 
ATOM     26  N   UNL     1      43.664   2.579  10.685  0.00  0.00    +0.000 NA
ATOM     27  C   UNL     1      43.308   2.433  11.916  0.00  0.00    +0.000 A 
ATOM     28  N   UNL     1      43.579   3.326  12.921  0.00  0.00    +0.000 N 
ATOM     29  C   UNL     1      44.206   4.526  12.696  0.00  0.00    +0.000 A 
ATOM     30  O   UNL     1      44.274   5.378  13.576  0.00  0.00    +0.000 OA
ATOM     31  C   UNL     1      44.699   4.706  11.343  0.00  0.00    +0.000 A 
ATOM     32  H   UNL     1      43.233   3.178  13.857  0.00  0.00    +0.000 HD
ENDBRANCH  19  22
ENDBRANCH   1  20
TORSDOF 6
ENDMDL
MODEL 7
REMARK VINA RESULT:    -6.585      2.976      3.709
REMARK INTER + INTRA:          -9.447
REMARK INTER:                  -8.837
REMARK INTRA:                  -0.610
REMARK UNBOUND:                -0.745
REMARK  Name = 
REMARK  6 active torsions:
REMARK  status: ('A' for Active; 'I' for Inactive)
REMARK    1  A    between atoms: C_2  and  C_20
REMARK    2  A    between atoms: N_3  and  C_4
REMARK    3  A    between atoms: C_4  and  C_5
REMARK    4  A    between atoms: C_8  and  C_9
REMARK    5  A    between atoms: C_9  and  O_10
REMARK    6  A    between atoms: C_9  and  C_11
REMARK                            x       y       z     vdW  Elec       q    Type
REMARK                         _______ _______ _______ _____ _____    ______ ____
ROOT
ATOM      1  C   UNL     1      47.265   6.626  14.215  0.00  0.00    +0.000 C 
ENDROOT
BRANCH   1   2
ATOM      2  C   UNL     1      46.634   6.097  12.952  0.00  0.00    +0.000 A 
ATOM      3  C   UNL     1      45.814   4.964  13.000  0.00  0.00    +0.000 A 
ATOM      4  C   UNL     1      45.205   4.480  11.840  0.00  0.00    +0.000 A 
ATOM      5  C   UNL     1      45.394   5.113  10.603  0.00  0.00    +0.000 A 
ATOM      6  C   UNL     1      46.249   6.225  10.551  0.00  0.00    +0.000 A 
ATOM      7  C   UNL     1      46.863   6.709  11.712  0.00  0.00    +0.000 A 
BRANCH   5   8
ATOM      8  C   UNL     1      44.747   4.516   9.370  0.00  0.00    +0.000 C 
BRANCH   8   9
ATOM      9  C   UNL     1      45.090   3.025   9.121  0.00  0.00    +0.000 C 
ATOM     10  O   UNL     1      44.507   2.141   9.755  0.00  0.00    +0.000 OA
ATOM     11  N   UNL     1      46.035   2.718   8.162  0.00  0.00    +0.000 N 
ATOM     12  C   UNL     1      46.831   3.632   7.363  0.00  0.00    +0.000 C 
ATOM     13  C   UNL     1      47.058   2.853   6.081  0.00  0.00    +0.000 C 
ATOM     14  C   UNL     1      47.223   1.419   6.572  0.00  0.00    +0.000 C 
ATOM     15  C   UNL     1      46.351   1.342   7.825  0.00  0.00    +0.000 C 
ENDBRANCH   8   9
BRANCH   8  16
ATOM     16  O   UNL     1      43.336   4.710   9.497  0.00  0.00    +0.000 OA
ATOM     17  H   UNL     1      43.134   5.483   8.943  0.00  0.00    +0.000 HD
ENDBRANCH   8  16
ENDBRANCH   5   8
ENDBRANCH   1   2
BRANCH   1  20
ATOM     18  O   UNL     1      48.803   8.378  15.815  0.00  0.00    +0.000 OA
ATOM     19  C   UNL     1      49.339   7.800  14.872  0.00  0.00    +0.000 C 
ATOM     20  N   UNL     1      48.650   6.972  14.027  0.00  0.00    +0.000 N 
ATOM     21  H   UNL     1      49.161   6.407  13.358  0.00  0.00    +0.000 HD
BRANCH  19  22
ATOM     22  C   UNL     1      50.759   8.007  14.556  0.00  0.00    +0.000 A 
ATOM     23  C   UNL     1      51.127   8.861  13.525  0.00  0.00    +0.000 A 
ATOM     24  S   UNL     1      52.815   8.991  13.314  0.00  0.00    +0.000 S 
ATOM     25  C   UNL     1      53.115   7.939  14.617  0.00  0.00    +0.000 A 
ATOM     26  N   UNL     1      54.385   7.648  15.009  0.00  0.00    +0.000 NA
ATOM     27  C   UNL     1      54.463   6.877  16.039  0.00  0.00    +0.000 A 
ATOM     28  N   UNL     1      53.386   6.349  16.705  0.00  0.00    +0.000 N 
ATOM     29  C   UNL     1      52.092   6.534  16.286  0.00  0.00    +0.000 A 
ATOM     30  O   UNL     1      51.168   5.906  16.792  0.00  0.00    +0.000 OA
ATOM     31  C   UNL     1      51.943   7.460  15.178  0.00  0.00    +0.000 A 
ATOM     32  H   UNL     1      53.512   5.712  17.477  0.00  0.00    +0.000 HD
ENDBRANCH  19  22
ENDBRANCH   1  20
TORSDOF 6
ENDMDL
MODEL 8
REMARK VINA RESULT:    -6.463      4.175      9.313
REMARK INTER + INTRA:          -9.286
REMARK INTER:                  -9.315
REMARK INTRA:                   0.029
REMARK UNBOUND:                -0.745
REMARK  Name = 
REMARK  6 active torsions:
REMARK  status: ('A' for Active; 'I' for Inactive)
REMARK    1  A    between atoms: C_2  and  C_20
REMARK    2  A    between atoms: N_3  and  C_4
REMARK    3  A    between atoms: C_4  and  C_5
REMARK    4  A    between atoms: C_8  and  C_9
REMARK    5  A    between atoms: C_9  and  O_10
REMARK    6  A    between atoms: C_9  and  C_11
REMARK                            x       y       z     vdW  Elec       q    Type
REMARK                         _______ _______ _______ _____ _____    ______ ____
ROOT
ATOM      1  C   UNL     1      47.554   3.524  16.788  0.00  0.00    +0.000 C 
ENDROOT
BRANCH   1   2
ATOM      2  C   UNL     1      48.990   3.739  17.195  0.00  0.00    +0.000 A 
ATOM      3  C   UNL     1      49.853   2.645  17.325  0.00  0.00    +0.000 A 
ATOM      4  C   UNL     1      51.191   2.834  17.678  0.00  0.00    +0.000 A 
ATOM      5  C   UNL     1      51.705   4.118  17.910  0.00  0.00    +0.000 A 
ATOM      6  C   UNL     1      50.828   5.211  17.819  0.00  0.00    +0.000 A 
ATOM      7  C   UNL     1      49.485   5.022  17.468  0.00  0.00    +0.000 A 
BRANCH   5   8
ATOM      8  C   UNL     1      53.151   4.261  18.337  0.00  0.00    +0.000 C 
BRANCH   8   9
ATOM      9  C   UNL     1      53.705   3.057  19.143  0.00  0.00    +0.000 C 
ATOM     10  O   UNL     1      53.516   2.987  20.361  0.00  0.00    +0.000 OA
ATOM     11  N   UNL     1      54.383   2.066  18.462  0.00  0.00    +0.000 N 
ATOM     12  C   UNL     1      54.718   2.016  17.050  0.00  0.00    +0.000 C 
ATOM     13  C   UNL     1      54.727   0.528  16.755  0.00  0.00    +0.000 C 
ATOM     14  C   UNL     1      55.312  -0.074  18.028  0.00  0.00    +0.000 C 
ATOM     15  C   UNL     1      54.864   0.875  19.140  0.00  0.00    +0.000 C 
ENDBRANCH   8   9
BRANCH   8  16
ATOM     16  O   UNL     1      53.921   4.492  17.154  0.00  0.00    +0.000 OA
ATOM     17  H   UNL     1      53.906   3.648  16.671  0.00  0.00    +0.000 HD
ENDBRANCH   8  16
ENDBRANCH   5   8
ENDBRANCH   1   2
BRANCH   1  20
ATOM     18  O   UNL     1      47.254   3.144  14.002  0.00  0.00    +0.000 OA
ATOM     19  C   UNL     1      46.952   4.228  14.496  0.00  0.00    +0.000 C 
ATOM     20  N   UNL     1      47.111   4.502  15.828  0.00  0.00    +0.000 N 
ATOM     21  H   UNL     1      46.712   5.351  16.212  0.00  0.00    +0.000 HD
BRANCH  19  22
ATOM     22  C   UNL     1      46.444   5.330  13.667  0.00  0.00    +0.000 A 
ATOM     23  C   UNL     1      47.208   6.475  13.484  0.00  0.00    +0.000 A 
ATOM     24  S   UNL     1      46.467   7.638  12.481  0.00  0.00    +0.000 S 
ATOM     25  C   UNL     1      45.115   6.639  12.225  0.00  0.00    +0.000 A 
ATOM     26  N   UNL     1      44.098   7.026  11.407  0.00  0.00    +0.000 NA
ATOM     27  C   UNL     1      43.162   6.150  11.268  0.00  0.00    +0.000 A 
ATOM     28  N   UNL     1      43.136   4.927  11.889  0.00  0.00    +0.000 N 
ATOM     29  C   UNL     1      44.088   4.536  12.797  0.00  0.00    +0.000 A 
ATOM     30  O   UNL     1      43.942   3.519  13.467  0.00  0.00    +0.000 OA
ATOM     31  C   UNL     1      45.206   5.451  12.932  0.00  0.00    +0.000 A 
ATOM     32  H   UNL     1      42.351   4.303  11.777  0.00  0.00    +0.000 HD
ENDBRANCH  19  22
ENDBRANCH   1  20
TORSDOF 6
ENDMDL
MODEL 9
REMARK VINA RESULT:    -6.410      5.763      7.892
REMARK INTER + INTRA:          -9.216
REMARK INTER:                  -8.208
REMARK INTRA:                  -1.008
REMARK UNBOUND:                -0.745
REMARK  Name = 
REMARK  6 active torsions:
REMARK  status: ('A' for Active; 'I' for Inactive)
REMARK    1  A    between atoms: C_2  and  C_20
REMARK    2  A    between atoms: N_3  and  C_4
REMARK    3  A    between atoms: C_4  and  C_5
REMARK    4  A    between atoms: C_8  and  C_9
REMARK    5  A    between atoms: C_9  and  O_10
REMARK    6  A    between atoms: C_9  and  C_11
REMARK                            x       y       z     vdW  Elec       q    Type
REMARK                         _______ _______ _______ _____ _____    ______ ____
ROOT
ATOM      1  C   UNL     1      50.843   9.037  11.790  0.00  0.00    +0.000 C 
ENDROOT
BRANCH   1   2
ATOM      2  C   UNL     1      49.869   8.141  12.512  0.00  0.00    +0.000 A 
ATOM      3  C   UNL     1      48.775   7.600  11.828  0.00  0.00    +0.000 A 
ATOM      4  C   UNL     1      47.879   6.750  12.481  0.00  0.00    +0.000 A 
ATOM      5  C   UNL     1      48.052   6.415  13.832  0.00  0.00    +0.000 A 
ATOM      6  C   UNL     1      49.127   6.991  14.526  0.00  0.00    +0.000 A 
ATOM      7  C   UNL     1      50.023   7.846  13.874  0.00  0.00    +0.000 A 
BRANCH   5   8
ATOM      8  C   UNL     1      47.023   5.527  14.502  0.00  0.00    +0.000 C 
BRANCH   8   9
ATOM      9  C   UNL     1      46.564   4.317  13.648  0.00  0.00    +0.000 C 
ATOM     10  O   UNL     1      47.270   3.307  13.575  0.00  0.00    +0.000 OA
ATOM     11  N   UNL     1      45.345   4.390  13.005  0.00  0.00    +0.000 N 
ATOM     12  C   UNL     1      44.420   5.508  12.961  0.00  0.00    +0.000 C 
ATOM     13  C   UNL     1      43.071   4.828  12.826  0.00  0.00    +0.000 C 
ATOM     14  C   UNL     1      43.372   3.638  11.923  0.00  0.00    +0.000 C 
ATOM     15  C   UNL     1      44.819   3.267  12.250  0.00  0.00    +0.000 C 
ENDBRANCH   8   9
BRANCH   8  16
ATOM     16  O   UNL     1      47.580   5.101  15.749  0.00  0.00    +0.000 OA
ATOM     17  H   UNL     1      47.840   5.920  16.205  0.00  0.00    +0.000 HD
ENDBRANCH   8  16
ENDBRANCH   5   8
ENDBRANCH   1   2
BRANCH   1  20
ATOM     18  O   UNL     1      53.444   7.941  11.625  0.00  0.00    +0.000 OA
ATOM     19  C   UNL     1      52.690   7.844  10.659  0.00  0.00    +0.000 C 
ATOM     20  N   UNL     1      51.433   8.388  10.648  0.00  0.00    +0.000 N 
ATOM     21  H   UNL     1      50.798   8.157   9.892  0.00  0.00    +0.000 HD
BRANCH  19  22
ATOM     22  C   UNL     1      53.115   7.177   9.421  0.00  0.00    +0.000 A 
ATOM     23  C   UNL     1      53.470   5.835   9.438  0.00  0.00    +0.000 A 
ATOM     24  S   UNL     1      53.920   5.227   7.909  0.00  0.00    +0.000 S 
ATOM     25  C   UNL     1      53.621   6.726   7.163  0.00  0.00    +0.000 A 
ATOM     26  N   UNL     1      53.772   6.886   5.820  0.00  0.00    +0.000 NA
ATOM     27  C   UNL     1      53.464   8.060   5.384  0.00  0.00    +0.000 A 
ATOM     28  N   UNL     1      53.038   9.100   6.171  0.00  0.00    +0.000 N 
ATOM     29  C   UNL     1      52.967   9.014   7.538  0.00  0.00    +0.000 A 
ATOM     30  O   UNL     1      52.757  10.009   8.224  0.00  0.00    +0.000 OA
ATOM     31  C   UNL     1      53.226   7.690   8.075  0.00  0.00    +0.000 A 
ATOM     32  H   UNL     1      52.857  10.010   5.776  0.00  0.00    +0.000 HD
ENDBRANCH  19  22
ENDBRANCH   1  20
TORSDOF 6
ENDMDL
