MODEL 1
REMARK VINA RESULT:    -7.871      0.000      0.000
REMARK INTER + INTRA:         -11.222
REMARK INTER:                 -10.862
REMARK INTRA:                  -0.360
REMARK UNBOUND:                -0.360
REMARK  Name = 
REMARK  8 active torsions:
REMARK  status: ('A' for Active; 'I' for Inactive)
REMARK    1  A    between atoms: C_1  and  O_2
REMARK    2  A    between atoms: O_2  and  C_3
REMARK    3  A    between atoms: C_5  and  C_6
REMARK    4  A    between atoms: C_11  and  N_12
REMARK    5  A    between atoms: N_12  and  C_13
REMARK    6  A    between atoms: C_13  and  C_14
REMARK    7  A    between atoms: C_17  and  C_18
REMARK    8  A    between atoms: C_18  and  N_19
REMARK                            x       y       z     vdW  Elec       q    Type
REMARK                         _______ _______ _______ _____ _____    ______ ____
ROOT
ATOM      1  C   UNL     1      46.136   4.853  12.973  0.00  0.00    +0.000 A 
ATOM      2  C   UNL     1      46.285   6.217  13.274  0.00  0.00    +0.000 A 
ATOM      3  C   UNL     1      45.560   7.199  12.585  0.00  0.00    +0.000 A 
ATOM      4  C   UNL     1      44.693   6.807  11.568  0.00  0.00    +0.000 A 
ATOM      5  C   UNL     1      44.530   5.447  11.272  0.00  0.00    +0.000 A 
ATOM      6  C   UNL     1      45.205   4.441  11.992  0.00  0.00    +0.000 A 
ENDROOT
BRANCH   3   7
ATOM      7  C   UNL     1      45.791   8.623  12.970  0.00  0.00    +0.000 C 
ATOM      8  N   UNL     1      44.769   9.517  12.817  0.00  0.00    +0.000 N 
ATOM      9  O   UNL     1      46.867   8.998  13.416  0.00  0.00    +0.000 OA
ATOM     10  H   UNL     1      43.855   9.307  12.456  0.00  0.00    +0.000 HD
ATOM     11  H   UNL     1      44.964  10.476  13.084  0.00  0.00    +0.000 HD
ENDBRANCH   3   7
BRANCH   1  13
ATOM     12  C   UNL     1      47.185   3.975  14.935  0.00  0.00    +0.000 C 
ATOM     13  O   UNL     1      46.935   3.891  13.539  0.00  0.00    +0.000 OA
ENDBRANCH   1  13
BRANCH   6  14
ATOM     14  N   UNL     1      44.981   3.109  11.584  0.00  0.00    +0.000 N 
ATOM     15  H   UNL     1      45.855   2.599  11.478  0.00  0.00    +0.000 HD
BRANCH  14  16
ATOM     16  C   UNL     1      44.117   2.862  10.431  0.00  0.00    +0.000 C 
BRANCH  16  17
ATOM     17  C   UNL     1      44.957   2.781   9.172  0.00  0.00    +0.000 A 
ATOM     18  C   UNL     1      45.137   3.924   8.380  0.00  0.00    +0.000 A 
ATOM     19  C   UNL     1      45.942   3.885   7.239  0.00  0.00    +0.000 A 
ATOM     20  C   UNL     1      46.589   2.700   6.866  0.00  0.00    +0.000 A 
ATOM     21  C   UNL     1      46.417   1.560   7.664  0.00  0.00    +0.000 A 
ATOM     22  C   UNL     1      45.609   1.597   8.806  0.00  0.00    +0.000 A 
BRANCH  20  23
ATOM     23  C   UNL     1      47.417   2.638   5.607  0.00  0.00    +0.000 C 
BRANCH  23  24
ATOM     24  N   UNL     1      48.580   1.772   5.757  0.00  0.00    +0.000 NA
ATOM     25  H   UNL     1      48.972   1.588   4.834  0.00  0.00    +0.000 HD
ATOM     26  H   UNL     1      48.278   0.871   6.125  0.00  0.00    +0.000 HD
ENDBRANCH  23  24
ENDBRANCH  20  23
ENDBRANCH  16  17
ENDBRANCH  14  16
ENDBRANCH   6  14
TORSDOF 7
ENDMDL
MODEL 2
REMARK VINA RESULT:    -7.855      1.778      3.199
REMARK INTER + INTRA:         -11.199
REMARK INTER:                 -10.707
REMARK INTRA:                  -0.493
REMARK UNBOUND:                -0.360
REMARK  Name = 
REMARK  8 active torsions:
REMARK  status: ('A' for Active; 'I' for Inactive)
REMARK    1  A    between atoms: C_1  and  O_2
REMARK    2  A    between atoms: O_2  and  C_3
REMARK    3  A    between atoms: C_5  and  C_6
REMARK    4  A    between atoms: C_11  and  N_12
REMARK    5  A    between atoms: N_12  and  C_13
REMARK    6  A    between atoms: C_13  and  C_14
REMARK    7  A    between atoms: C_17  and  C_18
REMARK    8  A    between atoms: C_18  and  N_19
REMARK                            x       y       z     vdW  Elec       q    Type
REMARK                         _______ _______ _______ _____ _____    ______ ____
ROOT
ATOM      1  C   UNL     1      46.071   6.334  12.234  0.00  0.00    +0.000 A 
ATOM      2  C   UNL     1      46.745   5.994  13.417  0.00  0.00    +0.000 A 
ATOM      3  C   UNL     1      46.655   4.707  13.965  0.00  0.00    +0.000 A 
ATOM      4  C   UNL     1      45.859   3.758  13.326  0.00  0.00    +0.000 A 
ATOM      5  C   UNL     1      45.195   4.087  12.136  0.00  0.00    +0.000 A 
ATOM      6  C   UNL     1      45.320   5.358  11.539  0.00  0.00    +0.000 A 
ENDROOT
BRANCH   3   7
ATOM      7  C   UNL     1      47.401   4.441  15.230  0.00  0.00    +0.000 C 
ATOM      8  N   UNL     1      47.876   5.503  15.947  0.00  0.00    +0.000 N 
ATOM      9  O   UNL     1      47.590   3.301  15.633  0.00  0.00    +0.000 OA
ATOM     10  H   UNL     1      47.775   6.471  15.697  0.00  0.00    +0.000 HD
ATOM     11  H   UNL     1      48.382   5.284  16.797  0.00  0.00    +0.000 HD
ENDBRANCH   3   7
BRANCH   1  13
ATOM     12  C   UNL     1      45.334   8.591  12.525  0.00  0.00    +0.000 C 
ATOM     13  O   UNL     1      46.036   7.622  11.760  0.00  0.00    +0.000 OA
ENDBRANCH   1  13
BRANCH   6  14
ATOM     14  N   UNL     1      44.581   5.580  10.359  0.00  0.00    +0.000 N 
ATOM     15  H   UNL     1      43.893   6.319  10.482  0.00  0.00    +0.000 HD
BRANCH  14  16
ATOM     16  C   UNL     1      43.967   4.436   9.686  0.00  0.00    +0.000 C 
BRANCH  16  17
ATOM     17  C   UNL     1      45.020   3.686   8.894  0.00  0.00    +0.000 A 
ATOM     18  C   UNL     1      45.118   2.292   9.010  0.00  0.00    +0.000 A 
ATOM     19  C   UNL     1      46.052   1.575   8.258  0.00  0.00    +0.000 A 
ATOM     20  C   UNL     1      46.907   2.237   7.368  0.00  0.00    +0.000 A 
ATOM     21  C   UNL     1      46.801   3.630   7.244  0.00  0.00    +0.000 A 
ATOM     22  C   UNL     1      45.868   4.350   7.999  0.00  0.00    +0.000 A 
BRANCH  20  23
ATOM     23  C   UNL     1      47.951   1.475   6.593  0.00  0.00    +0.000 C 
BRANCH  23  24
ATOM     24  N   UNL     1      48.370   2.185   5.390  0.00  0.00    +0.000 NA
ATOM     25  H   UNL     1      48.680   3.119   5.653  0.00  0.00    +0.000 HD
ATOM     26  H   UNL     1      47.563   2.312   4.782  0.00  0.00    +0.000 HD
ENDBRANCH  23  24
ENDBRANCH  20  23
ENDBRANCH  16  17
ENDBRANCH  14  16
ENDBRANCH   6  14
TORSDOF 7
ENDMDL
MODEL 3
REMARK VINA RESULT:    -7.834      1.700      3.010
REMARK INTER + INTRA:         -11.171
REMARK INTER:                 -10.669
REMARK INTRA:                  -0.502
REMARK UNBOUND:                -0.360
REMARK  Name = 
REMARK  8 active torsions:
REMARK  status: ('A' for Active; 'I' for Inactive)
REMARK    1  A    between atoms: C_1  and  O_2
REMARK    2  A    between atoms: O_2  and  C_3
REMARK    3  A    between atoms: C_5  and  C_6
REMARK    4  A    between atoms: C_11  and  N_12
REMARK    5  A    between atoms: N_12  and  C_13
REMARK    6  A    between atoms: C_13  and  C_14
REMARK    7  A    between atoms: C_17  and  C_18
REMARK    8  A    between atoms: C_18  and  N_19
REMARK                            x       y       z     vdW  Elec       q    Type
REMARK                         _______ _______ _______ _____ _____    ______ ____
ROOT
ATOM      1  C   UNL     1      45.988   6.460  12.291  0.00  0.00    +0.000 A 
ATOM      2  C   UNL     1      46.695   6.182  13.473  0.00  0.00    +0.000 A 
ATOM      3  C   UNL     1      46.694   4.900  14.038  0.00  0.00    +0.000 A 
ATOM      4  C   UNL     1      45.957   3.892  13.420  0.00  0.00    +0.000 A 
ATOM      5  C   UNL     1      45.262   4.160  12.233  0.00  0.00    +0.000 A 
ATOM      6  C   UNL     1      45.297   5.427  11.617  0.00  0.00    +0.000 A 
ENDROOT
BRANCH   3   7
ATOM      7  C   UNL     1      47.468   4.702  15.300  0.00  0.00    +0.000 C 
ATOM      8  N   UNL     1      47.083   3.710  16.156  0.00  0.00    +0.000 N 
ATOM      9  O   UNL     1      48.431   5.405  15.575  0.00  0.00    +0.000 OA
ATOM     10  H   UNL     1      46.306   3.086  16.021  0.00  0.00    +0.000 HD
ATOM     11  H   UNL     1      47.628   3.608  17.005  0.00  0.00    +0.000 HD
ENDBRANCH   3   7
BRANCH   1  13
ATOM     12  C   UNL     1      45.647   8.786  12.731  0.00  0.00    +0.000 C 
ATOM     13  O   UNL     1      45.865   7.736  11.800  0.00  0.00    +0.000 OA
ENDBRANCH   1  13
BRANCH   6  14
ATOM     14  N   UNL     1      44.535   5.583  10.442  0.00  0.00    +0.000 N 
ATOM     15  H   UNL     1      43.890   6.366  10.516  0.00  0.00    +0.000 HD
BRANCH  14  16
ATOM     16  C   UNL     1      43.842   4.419   9.891  0.00  0.00    +0.000 C 
BRANCH  16  17
ATOM     17  C   UNL     1      44.797   3.620   9.027  0.00  0.00    +0.000 A 
ATOM     18  C   UNL     1      45.614   4.279   8.097  0.00  0.00    +0.000 A 
ATOM     19  C   UNL     1      46.531   3.568   7.320  0.00  0.00    +0.000 A 
ATOM     20  C   UNL     1      46.656   2.180   7.458  0.00  0.00    +0.000 A 
ATOM     21  C   UNL     1      45.846   1.523   8.395  0.00  0.00    +0.000 A 
ATOM     22  C   UNL     1      44.924   2.233   9.172  0.00  0.00    +0.000 A 
BRANCH  20  23
ATOM     23  C   UNL     1      47.607   1.402   6.586  0.00  0.00    +0.000 C 
BRANCH  23  24
ATOM     24  N   UNL     1      48.706   2.226   6.097  0.00  0.00    +0.000 NA
ATOM     25  H   UNL     1      49.515   1.629   5.931  0.00  0.00    +0.000 HD
ATOM     26  H   UNL     1      48.979   2.881   6.829  0.00  0.00    +0.000 HD
ENDBRANCH  23  24
ENDBRANCH  20  23
ENDBRANCH  16  17
ENDBRANCH  14  16
ENDBRANCH   6  14
TORSDOF 7
ENDMDL
MODEL 4
REMARK VINA RESULT:    -6.488      1.623      2.186
REMARK INTER + INTRA:          -9.314
REMARK INTER:                  -8.735
REMARK INTRA:                  -0.579
REMARK UNBOUND:                -0.360
REMARK  Name = 
REMARK  8 active torsions:
REMARK  status: ('A' for Active; 'I' for Inactive)
REMARK    1  A    between atoms: C_1  and  O_2
REMARK    2  A    between atoms: O_2  and  C_3
REMARK    3  A    between atoms: C_5  and  C_6
REMARK    4  A    between atoms: C_11  and  N_12
REMARK    5  A    between atoms: N_12  and  C_13
REMARK    6  A    between atoms: C_13  and  C_14
REMARK    7  A    between atoms: C_17  and  C_18
REMARK    8  A    between atoms: C_18  and  N_19
REMARK                            x       y       z     vdW  Elec       q    Type
REMARK                         _______ _______ _______ _____ _____    ______ ____
ROOT
ATOM      1  C   UNL     1      46.817   5.798  13.165  0.00  0.00    +0.000 A 
ATOM      2  C   UNL     1      47.560   6.911  13.590  0.00  0.00    +0.000 A 
ATOM      3  C   UNL     1      47.158   8.218  13.282  0.00  0.00    +0.000 A 
ATOM      4  C   UNL     1      46.008   8.406  12.519  0.00  0.00    +0.000 A 
ATOM      5  C   UNL     1      45.254   7.300  12.103  0.00  0.00    +0.000 A 
ATOM      6  C   UNL     1      45.610   5.981  12.452  0.00  0.00    +0.000 A 
ENDROOT
BRANCH   3   7
ATOM      7  C   UNL     1      48.016   9.338  13.771  0.00  0.00    +0.000 C 
ATOM      8  N   UNL     1      48.623   9.215  14.988  0.00  0.00    +0.000 N 
ATOM      9  O   UNL     1      48.184  10.351  13.105  0.00  0.00    +0.000 OA
ATOM     10  H   UNL     1      48.543   8.428  15.608  0.00  0.00    +0.000 HD
ATOM     11  H   UNL     1      49.194   9.997  15.290  0.00  0.00    +0.000 HD
ENDBRANCH   3   7
BRANCH   1  13
ATOM     12  C   UNL     1      47.084   3.913  14.613  0.00  0.00    +0.000 C 
ATOM     13  O   UNL     1      47.267   4.513  13.338  0.00  0.00    +0.000 OA
ENDBRANCH   1  13
BRANCH   6  14
ATOM     14  N   UNL     1      44.790   4.949  11.951  0.00  0.00    +0.000 N 
ATOM     15  H   UNL     1      45.225   4.037  12.068  0.00  0.00    +0.000 HD
BRANCH  14  16
ATOM     16  C   UNL     1      44.248   5.073  10.599  0.00  0.00    +0.000 C 
BRANCH  16  17
ATOM     17  C   UNL     1      44.956   4.102   9.675  0.00  0.00    +0.000 A 
ATOM     18  C   UNL     1      44.786   2.721   9.852  0.00  0.00    +0.000 A 
ATOM     19  C   UNL     1      45.394   1.809   8.986  0.00  0.00    +0.000 A 
ATOM     20  C   UNL     1      46.184   2.258   7.921  0.00  0.00    +0.000 A 
ATOM     21  C   UNL     1      46.346   3.639   7.739  0.00  0.00    +0.000 A 
ATOM     22  C   UNL     1      45.739   4.554   8.607  0.00  0.00    +0.000 A 
BRANCH  20  23
ATOM     23  C   UNL     1      46.885   1.277   7.015  0.00  0.00    +0.000 C 
BRANCH  23  24
ATOM     24  N   UNL     1      46.956  -0.057   7.599  0.00  0.00    +0.000 NA
ATOM     25  H   UNL     1      47.388   0.011   8.519  0.00  0.00    +0.000 HD
ATOM     26  H   UNL     1      47.576  -0.633   7.032  0.00  0.00    +0.000 HD
ENDBRANCH  23  24
ENDBRANCH  20  23
ENDBRANCH  16  17
ENDBRANCH  14  16
ENDBRANCH   6  14
TORSDOF 7
ENDMDL
MODEL 5
REMARK VINA RESULT:    -6.481      3.656      7.625
REMARK INTER + INTRA:          -9.303
REMARK INTER:                  -8.737
REMARK INTRA:                  -0.566
REMARK UNBOUND:                -0.360
REMARK  Name = 
REMARK  8 active torsions:
REMARK  status: ('A' for Active; 'I' for Inactive)
REMARK    1  A    between atoms: C_1  and  O_2
REMARK    2  A    between atoms: O_2  and  C_3
REMARK    3  A    between atoms: C_5  and  C_6
REMARK    4  A    between atoms: C_11  and  N_12
REMARK    5  A    between atoms: N_12  and  C_13
REMARK    6  A    between atoms: C_13  and  C_14
REMARK    7  A    between atoms: C_17  and  C_18
REMARK    8  A    between atoms: C_18  and  N_19
REMARK                            x       y       z     vdW  Elec       q    Type
REMARK                         _______ _______ _______ _____ _____    ______ ____
ROOT
ATOM      1  C   UNL     1      46.146   5.988  13.093  0.00  0.00    +0.000 A 
ATOM      2  C   UNL     1      45.366   5.572  12.002  0.00  0.00    +0.000 A 
ATOM      3  C   UNL     1      45.155   4.212  11.733  0.00  0.00    +0.000 A 
ATOM      4  C   UNL     1      45.753   3.262  12.558  0.00  0.00    +0.000 A 
ATOM      5  C   UNL     1      46.521   3.672  13.657  0.00  0.00    +0.000 A 
ATOM      6  C   UNL     1      46.696   5.033  13.978  0.00  0.00    +0.000 A 
ENDROOT
BRANCH   3   7
ATOM      7  C   UNL     1      44.318   3.866  10.547  0.00  0.00    +0.000 C 
ATOM      8  N   UNL     1      43.763   4.878   9.817  0.00  0.00    +0.000 N 
ATOM      9  O   UNL     1      44.125   2.702  10.219  0.00  0.00    +0.000 OA
ATOM     10  H   UNL     1      43.859   5.861  10.009  0.00  0.00    +0.000 HD
ATOM     11  H   UNL     1      43.197   4.605   9.022  0.00  0.00    +0.000 HD
ENDBRANCH   3   7
BRANCH   1  13
ATOM     12  C   UNL     1      45.656   8.293  12.682  0.00  0.00    +0.000 C 
ATOM     13  O   UNL     1      46.476   7.306  13.292  0.00  0.00    +0.000 OA
ENDBRANCH   1  13
BRANCH   6  14
ATOM     14  N   UNL     1      47.514   5.322  15.091  0.00  0.00    +0.000 N 
ATOM     15  H   UNL     1      48.501   5.282  14.849  0.00  0.00    +0.000 HD
BRANCH  14  16
ATOM     16  C   UNL     1      47.278   4.606  16.343  0.00  0.00    +0.000 C 
BRANCH  16  17
ATOM     17  C   UNL     1      48.523   3.834  16.731  0.00  0.00    +0.000 A 
ATOM     18  C   UNL     1      48.635   2.477  16.394  0.00  0.00    +0.000 A 
ATOM     19  C   UNL     1      49.791   1.756  16.703  0.00  0.00    +0.000 A 
ATOM     20  C   UNL     1      50.864   2.377  17.354  0.00  0.00    +0.000 A 
ATOM     21  C   UNL     1      50.755   3.737  17.681  0.00  0.00    +0.000 A 
ATOM     22  C   UNL     1      49.597   4.459  17.375  0.00  0.00    +0.000 A 
BRANCH  20  23
ATOM     23  C   UNL     1      52.092   1.591  17.736  0.00  0.00    +0.000 C 
BRANCH  23  24
ATOM     24  N   UNL     1      51.771   0.222  18.121  0.00  0.00    +0.000 NA
ATOM     25  H   UNL     1      51.987  -0.396  17.341  0.00  0.00    +0.000 HD
ATOM     26  H   UNL     1      50.767   0.149  18.277  0.00  0.00    +0.000 HD
ENDBRANCH  23  24
ENDBRANCH  20  23
ENDBRANCH  16  17
ENDBRANCH  14  16
ENDBRANCH   6  14
TORSDOF 7
ENDMDL
MODEL 6
REMARK VINA RESULT:    -6.305      2.454      3.387
REMARK INTER + INTRA:          -9.060
REMARK INTER:                  -8.624
REMARK INTRA:                  -0.436
REMARK UNBOUND:                -0.360
REMARK  Name = 
REMARK  8 active torsions:
REMARK  status: ('A' for Active; 'I' for Inactive)
REMARK    1  A    between atoms: C_1  and  O_2
REMARK    2  A    between atoms: O_2  and  C_3
REMARK    3  A    between atoms: C_5  and  C_6
REMARK    4  A    between atoms: C_11  and  N_12
REMARK    5  A    between atoms: N_12  and  C_13
REMARK    6  A    between atoms: C_13  and  C_14
REMARK    7  A    between atoms: C_17  and  C_18
REMARK    8  A    between atoms: C_18  and  N_19
REMARK                            x       y       z     vdW  Elec       q    Type
REMARK                         _______ _______ _______ _____ _____    ______ ____
ROOT
ATOM      1  C   UNL     1      47.198   4.590  15.303  0.00  0.00    +0.000 A 
ATOM      2  C   UNL     1      48.214   5.444  15.762  0.00  0.00    +0.000 A 
ATOM      3  C   UNL     1      48.600   6.576  15.031  0.00  0.00    +0.000 A 
ATOM      4  C   UNL     1      47.972   6.839  13.815  0.00  0.00    +0.000 A 
ATOM      5  C   UNL     1      46.948   5.998  13.359  0.00  0.00    +0.000 A 
ATOM      6  C   UNL     1      46.505   4.889  14.108  0.00  0.00    +0.000 A 
ENDROOT
BRANCH   3   7
ATOM      7  C   UNL     1      49.695   7.421  15.594  0.00  0.00    +0.000 C 
ATOM      8  N   UNL     1      49.624   8.776  15.438  0.00  0.00    +0.000 N 
ATOM      9  O   UNL     1      50.644   6.924  16.187  0.00  0.00    +0.000 OA
ATOM     10  H   UNL     1      48.891   9.275  14.965  0.00  0.00    +0.000 HD
ATOM     11  H   UNL     1      50.387   9.317  15.829  0.00  0.00    +0.000 HD
ENDBRANCH   3   7
BRANCH   1  13
ATOM     12  C   UNL     1      47.444   3.193  17.229  0.00  0.00    +0.000 C 
ATOM     13  O   UNL     1      46.903   3.407  15.933  0.00  0.00    +0.000 OA
ENDBRANCH   1  13
BRANCH   6  14
ATOM     14  N   UNL     1      45.487   4.100  13.532  0.00  0.00    +0.000 N 
ATOM     15  H   UNL     1      45.863   3.256  13.108  0.00  0.00    +0.000 HD
BRANCH  14  16
ATOM     16  C   UNL     1      44.535   4.734  12.621  0.00  0.00    +0.000 C 
BRANCH  16  17
ATOM     17  C   UNL     1      44.862   4.348  11.193  0.00  0.00    +0.000 A 
ATOM     18  C   UNL     1      44.512   3.076  10.717  0.00  0.00    +0.000 A 
ATOM     19  C   UNL     1      44.765   2.713   9.392  0.00  0.00    +0.000 A 
ATOM     20  C   UNL     1      45.371   3.616   8.510  0.00  0.00    +0.000 A 
ATOM     21  C   UNL     1      45.712   4.892   8.984  0.00  0.00    +0.000 A 
ATOM     22  C   UNL     1      45.462   5.256  10.312  0.00  0.00    +0.000 A 
BRANCH  20  23
ATOM     23  C   UNL     1      45.693   3.212   7.094  0.00  0.00    +0.000 C 
BRANCH  23  24
ATOM     24  N   UNL     1      46.737   4.045   6.509  0.00  0.00    +0.000 NA
ATOM     25  H   UNL     1      46.343   4.557   5.720  0.00  0.00    +0.000 HD
ATOM     26  H   UNL     1      47.464   3.444   6.125  0.00  0.00    +0.000 HD
ENDBRANCH  23  24
ENDBRANCH  20  23
ENDBRANCH  16  17
ENDBRANCH  14  16
ENDBRANCH   6  14
TORSDOF 7
ENDMDL
MODEL 7
REMARK VINA RESULT:    -5.999      4.406      7.188
REMARK INTER + INTRA:          -8.638
REMARK INTER:                  -8.057
REMARK INTRA:                  -0.581
REMARK UNBOUND:                -0.360
REMARK  Name = 
REMARK  8 active torsions:
REMARK  status: ('A' for Active; 'I' for Inactive)
REMARK    1  A    between atoms: C_1  and  O_2
REMARK    2  A    between atoms: O_2  and  C_3
REMARK    3  A    between atoms: C_5  and  C_6
REMARK    4  A    between atoms: C_11  and  N_12
REMARK    5  A    between atoms: N_12  and  C_13
REMARK    6  A    between atoms: C_13  and  C_14
REMARK    7  A    between atoms: C_17  and  C_18
REMARK    8  A    between atoms: C_18  and  N_19
REMARK                            x       y       z     vdW  Elec       q    Type
REMARK                         _______ _______ _______ _____ _____    ______ ____
ROOT
ATOM      1  C   UNL     1      45.258   5.074  13.284  0.00  0.00    +0.000 A 
ATOM      2  C   UNL     1      44.889   6.247  12.607  0.00  0.00    +0.000 A 
ATOM      3  C   UNL     1      45.739   7.361  12.562  0.00  0.00    +0.000 A 
ATOM      4  C   UNL     1      46.963   7.301  13.224  0.00  0.00    +0.000 A 
ATOM      5  C   UNL     1      47.343   6.128  13.890  0.00  0.00    +0.000 A 
ATOM      6  C   UNL     1      46.528   4.977  13.897  0.00  0.00    +0.000 A 
ENDROOT
BRANCH   3   7
ATOM      7  C   UNL     1      45.257   8.567  11.825  0.00  0.00    +0.000 C 
ATOM      8  N   UNL     1      44.104   8.475  11.100  0.00  0.00    +0.000 N 
ATOM      9  O   UNL     1      45.871   9.625  11.861  0.00  0.00    +0.000 OA
ATOM     10  H   UNL     1      43.534   7.652  11.005  0.00  0.00    +0.000 HD
ATOM     11  H   UNL     1      43.810   9.311  10.608  0.00  0.00    +0.000 HD
ENDBRANCH   3   7
BRANCH   1  13
ATOM     12  C   UNL     1      43.049   4.199  13.007  0.00  0.00    +0.000 C 
ATOM     13  O   UNL     1      44.386   4.027  13.456  0.00  0.00    +0.000 OA
ENDBRANCH   1  13
BRANCH   6  14
ATOM     14  N   UNL     1      47.005   3.867  14.625  0.00  0.00    +0.000 N 
ATOM     15  H   UNL     1      46.562   3.004  14.321  0.00  0.00    +0.000 HD
BRANCH  14  16
ATOM     16  C   UNL     1      47.016   3.934  16.085  0.00  0.00    +0.000 C 
BRANCH  16  17
ATOM     17  C   UNL     1      48.415   3.657  16.597  0.00  0.00    +0.000 A 
ATOM     18  C   UNL     1      49.231   4.722  17.010  0.00  0.00    +0.000 A 
ATOM     19  C   UNL     1      50.508   4.487  17.525  0.00  0.00    +0.000 A 
ATOM     20  C   UNL     1      50.998   3.181  17.643  0.00  0.00    +0.000 A 
ATOM     21  C   UNL     1      50.178   2.116  17.241  0.00  0.00    +0.000 A 
ATOM     22  C   UNL     1      48.900   2.350  16.721  0.00  0.00    +0.000 A 
BRANCH  20  23
ATOM     23  C   UNL     1      52.394   2.925  18.150  0.00  0.00    +0.000 C 
BRANCH  23  24
ATOM     24  N   UNL     1      52.663   1.504  18.329  0.00  0.00    +0.000 NA
ATOM     25  H   UNL     1      52.832   1.324  19.318  0.00  0.00    +0.000 HD
ATOM     26  H   UNL     1      53.526   1.266  17.843  0.00  0.00    +0.000 HD
ENDBRANCH  23  24
ENDBRANCH  20  23
ENDBRANCH  16  17
ENDBRANCH  14  16
ENDBRANCH   6  14
TORSDOF 7
ENDMDL
MODEL 8
REMARK VINA RESULT:    -5.819      3.471      7.939
REMARK INTER + INTRA:          -8.390
REMARK INTER:                  -7.816
REMARK INTRA:                  -0.574
REMARK UNBOUND:                -0.360
REMARK  Name = 
REMARK  8 active torsions:
REMARK  status: ('A' for Active; 'I' for Inactive)
REMARK    1  A    between atoms: C_1  and  O_2
REMARK    2  A    between atoms: O_2  and  C_3
REMARK    3  A    between atoms: C_5  and  C_6
REMARK    4  A    between atoms: C_11  and  N_12
REMARK    5  A    between atoms: N_12  and  C_13
REMARK    6  A    between atoms: C_13  and  C_14
REMARK    7  A    between atoms: C_17  and  C_18
REMARK    8  A    between atoms: C_18  and  N_19
REMARK                            x       y       z     vdW  Elec       q    Type
REMARK                         _______ _______ _______ _____ _____    ______ ____
ROOT
ATOM      1  C   UNL     1      45.613   5.743  11.514  0.00  0.00    +0.000 A 
ATOM      2  C   UNL     1      45.207   5.040  10.368  0.00  0.00    +0.000 A 
ATOM      3  C   UNL     1      44.990   3.656  10.400  0.00  0.00    +0.000 A 
ATOM      4  C   UNL     1      45.206   2.968  11.592  0.00  0.00    +0.000 A 
ATOM      5  C   UNL     1      45.597   3.666  12.743  0.00  0.00    +0.000 A 
ATOM      6  C   UNL     1      45.764   5.066  12.746  0.00  0.00    +0.000 A 
ENDROOT
BRANCH   3   7
ATOM      7  C   UNL     1      44.568   2.994   9.130  0.00  0.00    +0.000 C 
ATOM      8  N   UNL     1      44.236   3.778   8.062  0.00  0.00    +0.000 N 
ATOM      9  O   UNL     1      44.516   1.775   9.031  0.00  0.00    +0.000 OA
ATOM     10  H   UNL     1      44.242   4.783   8.046  0.00  0.00    +0.000 HD
ATOM     11  H   UNL     1      43.949   3.294   7.218  0.00  0.00    +0.000 HD
ENDBRANCH   3   7
BRANCH   1  13
ATOM     12  C   UNL     1      44.918   8.031  11.504  0.00  0.00    +0.000 C 
ATOM     13  O   UNL     1      45.963   7.070  11.469  0.00  0.00    +0.000 OA
ENDBRANCH   1  13
BRANCH   6  14
ATOM     14  N   UNL     1      46.188   5.652  13.956  0.00  0.00    +0.000 N 
ATOM     15  H   UNL     1      45.749   6.557  14.107  0.00  0.00    +0.000 HD
BRANCH  14  16
ATOM     16  C   UNL     1      47.621   5.741  14.232  0.00  0.00    +0.000 C 
BRANCH  16  17
ATOM     17  C   UNL     1      47.895   5.295  15.654  0.00  0.00    +0.000 A 
ATOM     18  C   UNL     1      48.823   5.996  16.438  0.00  0.00    +0.000 A 
ATOM     19  C   UNL     1      49.061   5.630  17.765  0.00  0.00    +0.000 A 
ATOM     20  C   UNL     1      48.372   4.556  18.340  0.00  0.00    +0.000 A 
ATOM     21  C   UNL     1      47.436   3.861  17.559  0.00  0.00    +0.000 A 
ATOM     22  C   UNL     1      47.199   4.225  16.229  0.00  0.00    +0.000 A 
BRANCH  20  23
ATOM     23  C   UNL     1      48.662   4.123  19.755  0.00  0.00    +0.000 C 
BRANCH  23  24
ATOM     24  N   UNL     1      50.026   4.443  20.160  0.00  0.00    +0.000 NA
ATOM     25  H   UNL     1      50.138   5.456  20.159  0.00  0.00    +0.000 HD
ATOM     26  H   UNL     1      50.672   4.083  19.459  0.00  0.00    +0.000 HD
ENDBRANCH  23  24
ENDBRANCH  20  23
ENDBRANCH  16  17
ENDBRANCH  14  16
ENDBRANCH   6  14
TORSDOF 7
ENDMDL
MODEL 9
REMARK VINA RESULT:    -5.783      3.213      5.263
REMARK INTER + INTRA:          -8.341
REMARK INTER:                  -7.770
REMARK INTRA:                  -0.571
REMARK UNBOUND:                -0.360
REMARK  Name = 
REMARK  8 active torsions:
REMARK  status: ('A' for Active; 'I' for Inactive)
REMARK    1  A    between atoms: C_1  and  O_2
REMARK    2  A    between atoms: O_2  and  C_3
REMARK    3  A    between atoms: C_5  and  C_6
REMARK    4  A    between atoms: C_11  and  N_12
REMARK    5  A    between atoms: N_12  and  C_13
REMARK    6  A    between atoms: C_13  and  C_14
REMARK    7  A    between atoms: C_17  and  C_18
REMARK    8  A    between atoms: C_18  and  N_19
REMARK                            x       y       z     vdW  Elec       q    Type
REMARK                         _______ _______ _______ _____ _____    ______ ____
ROOT
ATOM      1  C   UNL     1      48.588   6.363  15.505  0.00  0.00    +0.000 A 
ATOM      2  C   UNL     1      49.077   5.747  16.667  0.00  0.00    +0.000 A 
ATOM      3  C   UNL     1      48.602   4.496  17.085  0.00  0.00    +0.000 A 
ATOM      4  C   UNL     1      47.608   3.869  16.336  0.00  0.00    +0.000 A 
ATOM      5  C   UNL     1      47.126   4.473  15.167  0.00  0.00    +0.000 A 
ATOM      6  C   UNL     1      47.632   5.702  14.699  0.00  0.00    +0.000 A 
ENDROOT
BRANCH   3   7
ATOM      7  C   UNL     1      49.177   3.922  18.338  0.00  0.00    +0.000 C 
ATOM      8  N   UNL     1      48.351   3.238  19.184  0.00  0.00    +0.000 N 
ATOM      9  O   UNL     1      50.362   4.053  18.615  0.00  0.00    +0.000 OA
ATOM     10  H   UNL     1      47.368   3.082  19.046  0.00  0.00    +0.000 HD
ATOM     11  H   UNL     1      48.775   2.867  20.027  0.00  0.00    +0.000 HD
ENDBRANCH   3   7
BRANCH   1  13
ATOM     12  C   UNL     1      50.207   7.840  14.546  0.00  0.00    +0.000 C 
ATOM     13  O   UNL     1      48.939   7.644  15.157  0.00  0.00    +0.000 OA
ENDBRANCH   1  13
BRANCH   6  14
ATOM     14  N   UNL     1      47.048   6.225  13.526  0.00  0.00    +0.000 N 
ATOM     15  H   UNL     1      47.282   7.206  13.397  0.00  0.00    +0.000 HD
BRANCH  14  16
ATOM     16  C   UNL     1      45.618   6.020  13.301  0.00  0.00    +0.000 C 
BRANCH  16  17
ATOM     17  C   UNL     1      45.415   5.137  12.086  0.00  0.00    +0.000 A 
ATOM     18  C   UNL     1      45.012   3.804  12.252  0.00  0.00    +0.000 A 
ATOM     19  C   UNL     1      44.777   2.984  11.146  0.00  0.00    +0.000 A 
ATOM     20  C   UNL     1      44.936   3.480   9.846  0.00  0.00    +0.000 A 
ATOM     21  C   UNL     1      45.329   4.817   9.680  0.00  0.00    +0.000 A 
ATOM     22  C   UNL     1      45.568   5.639  10.788  0.00  0.00    +0.000 A 
BRANCH  20  23
ATOM     23  C   UNL     1      44.735   2.586   8.650  0.00  0.00    +0.000 C 
BRANCH  23  24
ATOM     24  N   UNL     1      45.407   1.301   8.804  0.00  0.00    +0.000 NA
ATOM     25  H   UNL     1      45.205   0.936   9.734  0.00  0.00    +0.000 HD
ATOM     26  H   UNL     1      46.414   1.448   8.766  0.00  0.00    +0.000 HD
ENDBRANCH  23  24
ENDBRANCH  20  23
ENDBRANCH  16  17
ENDBRANCH  14  16
ENDBRANCH   6  14
TORSDOF 7
ENDMDL
