MODEL 1
REMARK VINA RESULT:    -7.914      0.000      0.000
REMARK INTER + INTRA:          -9.665
REMARK INTER:                  -9.302
REMARK INTRA:                  -0.362
REMARK UNBOUND:                -0.362
REMARK  Name = 
REMARK  3 active torsions:
REMARK  status: ('A' for Active; 'I' for Inactive)
REMARK    1  A    between atoms: C_3  and  N_4
REMARK    2  A    between atoms: N_4  and  C_5
REMARK    3  A    between atoms: C_5  and  C_6
REMARK                            x       y       z     vdW  Elec       q    Type
REMARK                         _______ _______ _______ _____ _____    ______ ____
ROOT
ATOM      1  C   UNL     1      43.383   4.310  12.840  0.00  0.00    +0.000 A 
ATOM      2  C   UNL     1      43.378   3.660  11.613  0.00  0.00    +0.000 A 
ATOM      3  C   UNL     1      44.178   4.141  10.584  0.00  0.00    +0.000 A 
ATOM      4  N   UNL     1      44.994   5.208  10.760  0.00  0.00    +0.000 NA
ATOM      5  C   UNL     1      45.039   5.823  11.966  0.00  0.00    +0.000 A 
ATOM      6  N   UNL     1      45.990   6.792  12.213  0.00  0.00    +0.000 N 
ATOM      7  C   UNL     1      47.225   6.819  11.428  0.00  0.00    +0.000 C 
ATOM      8  C   UNL     1      48.364   7.326  12.354  0.00  0.00    +0.000 C 
ATOM      9  N   UNL     1      48.085   8.643  12.982  0.00  0.00    +0.000 NA
ATOM     10  C   UNL     1      46.782   8.587  13.679  0.00  0.00    +0.000 C 
ATOM     11  C   UNL     1      45.616   8.083  12.795  0.00  0.00    +0.000 C 
ATOM     12  C   UNL     1      44.220   5.404  13.013  0.00  0.00    +0.000 A 
ATOM     13  H   UNL     1      48.011   9.330  12.231  0.00  0.00    +0.000 HD
ENDROOT
BRANCH   3  14
ATOM     14  N   UNL     1      44.100   3.493   9.356  0.00  0.00    +0.000 N 
ATOM     15  H   UNL     1      43.927   2.500   9.409  0.00  0.00    +0.000 HD
BRANCH  14  16
ATOM     16  C   UNL     1      44.895   3.957   8.235  0.00  0.00    +0.000 C 
BRANCH  16  17
ATOM     17  C   UNL     1      45.841   2.963   7.599  0.00  0.00    +0.000 A 
ATOM     18  C   UNL     1      46.616   3.376   6.505  0.00  0.00    +0.000 A 
ATOM     19  C   UNL     1      47.596   2.530   6.005  0.00  0.00    +0.000 A 
ATOM     20  N   UNL     1      47.868   1.314   6.518  0.00  0.00    +0.000 NA
ATOM     21  C   UNL     1      47.116   0.927   7.570  0.00  0.00    +0.000 A 
ATOM     22  C   UNL     1      46.105   1.698   8.127  0.00  0.00    +0.000 A 
ENDBRANCH  16  17
ENDBRANCH  14  16
ENDBRANCH   3  14
TORSDOF 3
ENDMDL
MODEL 2
REMARK VINA RESULT:    -7.661      2.094      2.530
REMARK INTER + INTRA:          -9.366
REMARK INTER:                  -8.859
REMARK INTRA:                  -0.507
REMARK UNBOUND:                -0.362
REMARK  Name = 
REMARK  3 active torsions:
REMARK  status: ('A' for Active; 'I' for Inactive)
REMARK    1  A    between atoms: C_3  and  N_4
REMARK    2  A    between atoms: N_4  and  C_5
REMARK    3  A    between atoms: C_5  and  C_6
REMARK                            x       y       z     vdW  Elec       q    Type
REMARK                         _______ _______ _______ _____ _____    ______ ____
ROOT
ATOM      1  C   UNL     1      44.130   5.992  11.371  0.00  0.00    +0.000 A 
ATOM      2  C   UNL     1      43.845   4.737  10.851  0.00  0.00    +0.000 A 
ATOM      3  C   UNL     1      44.644   3.656  11.203  0.00  0.00    +0.000 A 
ATOM      4  N   UNL     1      45.674   3.790  12.072  0.00  0.00    +0.000 NA
ATOM      5  C   UNL     1      45.935   5.001  12.618  0.00  0.00    +0.000 A 
ATOM      6  N   UNL     1      46.862   5.117  13.634  0.00  0.00    +0.000 N 
ATOM      7  C   UNL     1      47.188   3.954  14.460  0.00  0.00    +0.000 C 
ATOM      8  C   UNL     1      47.498   4.462  15.895  0.00  0.00    +0.000 C 
ATOM      9  N   UNL     1      48.568   5.491  15.949  0.00  0.00    +0.000 NA
ATOM     10  C   UNL     1      48.233   6.595  15.025  0.00  0.00    +0.000 C 
ATOM     11  C   UNL     1      47.913   6.136  13.582  0.00  0.00    +0.000 C 
ATOM     12  C   UNL     1      45.189   6.123  12.260  0.00  0.00    +0.000 A 
ATOM     13  H   UNL     1      49.428   5.053  15.618  0.00  0.00    +0.000 HD
ENDROOT
BRANCH   3  14
ATOM     14  N   UNL     1      44.357   2.429  10.617  0.00  0.00    +0.000 N 
ATOM     15  H   UNL     1      44.712   1.625  11.116  0.00  0.00    +0.000 HD
BRANCH  14  16
ATOM     16  C   UNL     1      44.268   2.312   9.174  0.00  0.00    +0.000 C 
BRANCH  16  17
ATOM     17  C   UNL     1      45.556   2.429   8.390  0.00  0.00    +0.000 A 
ATOM     18  C   UNL     1      46.278   1.259   8.104  0.00  0.00    +0.000 A 
ATOM     19  C   UNL     1      47.377   1.326   7.260  0.00  0.00    +0.000 A 
ATOM     20  N   UNL     1      47.803   2.462   6.674  0.00  0.00    +0.000 NA
ATOM     21  C   UNL     1      47.101   3.580   6.957  0.00  0.00    +0.000 A 
ATOM     22  C   UNL     1      45.999   3.613   7.800  0.00  0.00    +0.000 A 
ENDBRANCH  16  17
ENDBRANCH  14  16
ENDBRANCH   3  14
TORSDOF 3
ENDMDL
MODEL 3
REMARK VINA RESULT:    -7.647      1.044      1.549
REMARK INTER + INTRA:          -9.350
REMARK INTER:                  -8.958
REMARK INTRA:                  -0.392
REMARK UNBOUND:                -0.362
REMARK  Name = 
REMARK  3 active torsions:
REMARK  status: ('A' for Active; 'I' for Inactive)
REMARK    1  A    between atoms: C_3  and  N_4
REMARK    2  A    between atoms: N_4  and  C_5
REMARK    3  A    between atoms: C_5  and  C_6
REMARK                            x       y       z     vdW  Elec       q    Type
REMARK                         _______ _______ _______ _____ _____    ______ ____
ROOT
ATOM      1  C   UNL     1      44.534   4.755  12.785  0.00  0.00    +0.000 A 
ATOM      2  C   UNL     1      44.372   4.459  11.439  0.00  0.00    +0.000 A 
ATOM      3  C   UNL     1      45.091   5.179  10.491  0.00  0.00    +0.000 A 
ATOM      4  N   UNL     1      45.976   6.139  10.853  0.00  0.00    +0.000 NA
ATOM      5  C   UNL     1      46.173   6.406  12.165  0.00  0.00    +0.000 A 
ATOM      6  N   UNL     1      47.194   7.250  12.553  0.00  0.00    +0.000 N 
ATOM      7  C   UNL     1      48.344   7.456  11.673  0.00  0.00    +0.000 C 
ATOM      8  C   UNL     1      49.595   7.668  12.569  0.00  0.00    +0.000 C 
ATOM      9  N   UNL     1      49.450   8.774  13.550  0.00  0.00    +0.000 NA
ATOM     10  C   UNL     1      48.221   8.565  14.345  0.00  0.00    +0.000 C 
ATOM     11  C   UNL     1      46.948   8.346  13.494  0.00  0.00    +0.000 C 
ATOM     12  C   UNL     1      45.441   5.742  13.148  0.00  0.00    +0.000 A 
ATOM     13  H   UNL     1      49.339   9.639  13.019  0.00  0.00    +0.000 HD
ENDROOT
BRANCH   3  14
ATOM     14  N   UNL     1      44.857   4.887   9.152  0.00  0.00    +0.000 N 
ATOM     15  H   UNL     1      44.350   5.598   8.644  0.00  0.00    +0.000 HD
BRANCH  14  16
ATOM     16  C   UNL     1      44.655   3.514   8.729  0.00  0.00    +0.000 C 
BRANCH  16  17
ATOM     17  C   UNL     1      45.837   2.797   8.119  0.00  0.00    +0.000 A 
ATOM     18  C   UNL     1      45.949   1.409   8.300  0.00  0.00    +0.000 A 
ATOM     19  C   UNL     1      46.941   0.711   7.624  0.00  0.00    +0.000 A 
ATOM     20  N   UNL     1      47.817   1.287   6.778  0.00  0.00    +0.000 NA
ATOM     21  C   UNL     1      47.700   2.621   6.613  0.00  0.00    +0.000 A 
ATOM     22  C   UNL     1      46.752   3.404   7.256  0.00  0.00    +0.000 A 
ENDBRANCH  16  17
ENDBRANCH  14  16
ENDBRANCH   3  14
TORSDOF 3
ENDMDL
MODEL 4
REMARK VINA RESULT:    -6.540      2.108      3.237
REMARK INTER + INTRA:          -8.050
REMARK INTER:                  -7.622
REMARK INTRA:                  -0.428
REMARK UNBOUND:                -0.362
REMARK  Name = 
REMARK  3 active torsions:
REMARK  status: ('A' for Active; 'I' for Inactive)
REMARK    1  A    between atoms: C_3  and  N_4
REMARK    2  A    between atoms: N_4  and  C_5
REMARK    3  A    between atoms: C_5  and  C_6
REMARK                            x       y       z     vdW  Elec       q    Type
REMARK                         _______ _______ _______ _____ _____    ______ ____
ROOT
ATOM      1  C   UNL     1      45.404   8.189  12.014  0.00  0.00    +0.000 A 
ATOM      2  C   UNL     1      44.612   7.109  11.649  0.00  0.00    +0.000 A 
ATOM      3  C   UNL     1      44.990   5.827  12.029  0.00  0.00    +0.000 A 
ATOM      4  N   UNL     1      46.096   5.608  12.780  0.00  0.00    +0.000 NA
ATOM      5  C   UNL     1      46.853   6.658  13.177  0.00  0.00    +0.000 A 
ATOM      6  N   UNL     1      47.875   6.469  14.085  0.00  0.00    +0.000 N 
ATOM      7  C   UNL     1      47.847   5.317  14.986  0.00  0.00    +0.000 C 
ATOM      8  C   UNL     1      48.498   5.748  16.329  0.00  0.00    +0.000 C 
ATOM      9  N   UNL     1      49.871   6.295  16.180  0.00  0.00    +0.000 NA
ATOM     10  C   UNL     1      49.858   7.391  15.188  0.00  0.00    +0.000 C 
ATOM     11  C   UNL     1      49.214   7.007  13.834  0.00  0.00    +0.000 C 
ATOM     12  C   UNL     1      46.538   7.956  12.782  0.00  0.00    +0.000 A 
ATOM     13  H   UNL     1      50.460   5.545  15.815  0.00  0.00    +0.000 HD
ENDROOT
BRANCH   3  14
ATOM     14  N   UNL     1      44.197   4.770  11.596  0.00  0.00    +0.000 N 
ATOM     15  H   UNL     1      44.296   3.917  12.129  0.00  0.00    +0.000 HD
BRANCH  14  16
ATOM     16  C   UNL     1      43.879   4.625  10.188  0.00  0.00    +0.000 C 
BRANCH  16  17
ATOM     17  C   UNL     1      44.860   3.855   9.334  0.00  0.00    +0.000 A 
ATOM     18  C   UNL     1      44.929   2.461   9.478  0.00  0.00    +0.000 A 
ATOM     19  C   UNL     1      45.711   1.722   8.600  0.00  0.00    +0.000 A 
ATOM     20  N   UNL     1      46.417   2.264   7.589  0.00  0.00    +0.000 NA
ATOM     21  C   UNL     1      46.343   3.606   7.460  0.00  0.00    +0.000 A 
ATOM     22  C   UNL     1      45.601   4.427   8.298  0.00  0.00    +0.000 A 
ENDBRANCH  16  17
ENDBRANCH  14  16
ENDBRANCH   3  14
TORSDOF 3
ENDMDL
MODEL 5
REMARK VINA RESULT:    -6.380      4.509      7.665
REMARK INTER + INTRA:          -7.861
REMARK INTER:                  -7.469
REMARK INTRA:                  -0.392
REMARK UNBOUND:                -0.362
REMARK  Name = 
REMARK  3 active torsions:
REMARK  status: ('A' for Active; 'I' for Inactive)
REMARK    1  A    between atoms: C_3  and  N_4
REMARK    2  A    between atoms: N_4  and  C_5
REMARK    3  A    between atoms: C_5  and  C_6
REMARK                            x       y       z     vdW  Elec       q    Type
REMARK                         _______ _______ _______ _____ _____    ______ ____
ROOT
ATOM      1  C   UNL     1      47.587   6.354  13.483  0.00  0.00    +0.000 A 
ATOM      2  C   UNL     1      47.683   5.613  14.654  0.00  0.00    +0.000 A 
ATOM      3  C   UNL     1      46.861   4.506  14.829  0.00  0.00    +0.000 A 
ATOM      4  N   UNL     1      45.993   4.110  13.869  0.00  0.00    +0.000 NA
ATOM      5  C   UNL     1      45.921   4.800  12.706  0.00  0.00    +0.000 A 
ATOM      6  N   UNL     1      45.175   4.307  11.654  0.00  0.00    +0.000 N 
ATOM      7  C   UNL     1      44.885   2.876  11.573  0.00  0.00    +0.000 C 
ATOM      8  C   UNL     1      44.845   2.483  10.071  0.00  0.00    +0.000 C 
ATOM      9  N   UNL     1      43.885   3.284   9.268  0.00  0.00    +0.000 NA
ATOM     10  C   UNL     1      44.163   4.723   9.463  0.00  0.00    +0.000 C 
ATOM     11  C   UNL     1      44.217   5.159  10.947  0.00  0.00    +0.000 C 
ATOM     12  C   UNL     1      46.693   5.942  12.504  0.00  0.00    +0.000 A 
ATOM     13  H   UNL     1      42.950   3.092   9.630  0.00  0.00    +0.000 HD
ENDROOT
BRANCH   3  14
ATOM     14  N   UNL     1      46.952   3.826  16.039  0.00  0.00    +0.000 N 
ATOM     15  H   UNL     1      46.136   3.283  16.284  0.00  0.00    +0.000 HD
BRANCH  14  16
ATOM     16  C   UNL     1      47.714   4.389  17.137  0.00  0.00    +0.000 C 
BRANCH  16  17
ATOM     17  C   UNL     1      49.082   3.802  17.403  0.00  0.00    +0.000 A 
ATOM     18  C   UNL     1      49.301   2.447  17.111  0.00  0.00    +0.000 A 
ATOM     19  C   UNL     1      50.585   1.928  17.204  0.00  0.00    +0.000 A 
ATOM     20  N   UNL     1      51.663   2.656  17.553  0.00  0.00    +0.000 NA
ATOM     21  C   UNL     1      51.440   3.958  17.832  0.00  0.00    +0.000 A 
ATOM     22  C   UNL     1      50.191   4.561  17.781  0.00  0.00    +0.000 A 
ENDBRANCH  16  17
ENDBRANCH  14  16
ENDBRANCH   3  14
TORSDOF 3
ENDMDL
MODEL 6
REMARK VINA RESULT:    -6.320      1.695      6.539
REMARK INTER + INTRA:          -7.791
REMARK INTER:                  -7.300
REMARK INTRA:                  -0.491
REMARK UNBOUND:                -0.362
REMARK  Name = 
REMARK  3 active torsions:
REMARK  status: ('A' for Active; 'I' for Inactive)
REMARK    1  A    between atoms: C_3  and  N_4
REMARK    2  A    between atoms: N_4  and  C_5
REMARK    3  A    between atoms: C_5  and  C_6
REMARK                            x       y       z     vdW  Elec       q    Type
REMARK                         _______ _______ _______ _____ _____    ______ ____
ROOT
ATOM      1  C   UNL     1      43.695   2.786  10.477  0.00  0.00    +0.000 A 
ATOM      2  C   UNL     1      43.720   4.126  10.838  0.00  0.00    +0.000 A 
ATOM      3  C   UNL     1      44.661   4.971  10.261  0.00  0.00    +0.000 A 
ATOM      4  N   UNL     1      45.534   4.525   9.326  0.00  0.00    +0.000 NA
ATOM      5  C   UNL     1      45.491   3.229   8.936  0.00  0.00    +0.000 A 
ATOM      6  N   UNL     1      46.249   2.804   7.863  0.00  0.00    +0.000 N 
ATOM      7  C   UNL     1      46.688   3.768   6.853  0.00  0.00    +0.000 C 
ATOM      8  C   UNL     1      46.718   3.039   5.482  0.00  0.00    +0.000 C 
ATOM      9  N   UNL     1      47.559   1.814   5.473  0.00  0.00    +0.000 NA
ATOM     10  C   UNL     1      47.135   0.921   6.573  0.00  0.00    +0.000 C 
ATOM     11  C   UNL     1      47.086   1.606   7.959  0.00  0.00    +0.000 C 
ATOM     12  C   UNL     1      44.595   2.335   9.519  0.00  0.00    +0.000 A 
ATOM     13  H   UNL     1      48.521   2.103   5.655  0.00  0.00    +0.000 HD
ENDROOT
BRANCH   3  14
ATOM     14  N   UNL     1      44.685   6.292  10.692  0.00  0.00    +0.000 N 
ATOM     15  H   UNL     1      45.179   6.929  10.083  0.00  0.00    +0.000 HD
BRANCH  14  16
ATOM     16  C   UNL     1      44.707   6.598  12.109  0.00  0.00    +0.000 C 
BRANCH  16  17
ATOM     17  C   UNL     1      45.914   6.139  12.897  0.00  0.00    +0.000 A 
ATOM     18  C   UNL     1      47.031   6.985  12.971  0.00  0.00    +0.000 A 
ATOM     19  C   UNL     1      48.086   6.651  13.809  0.00  0.00    +0.000 A 
ATOM     20  N   UNL     1      48.106   5.549  14.584  0.00  0.00    +0.000 NA
ATOM     21  C   UNL     1      47.026   4.743  14.504  0.00  0.00    +0.000 A 
ATOM     22  C   UNL     1      45.933   4.986  13.684  0.00  0.00    +0.000 A 
ENDBRANCH  16  17
ENDBRANCH  14  16
ENDBRANCH   3  14
TORSDOF 3
ENDMDL
MODEL 7
REMARK VINA RESULT:    -5.986      3.690      7.544
REMARK INTER + INTRA:          -7.398
REMARK INTER:                  -7.033
REMARK INTRA:                  -0.365
REMARK UNBOUND:                -0.362
REMARK  Name = 
REMARK  3 active torsions:
REMARK  status: ('A' for Active; 'I' for Inactive)
REMARK    1  A    between atoms: C_3  and  N_4
REMARK    2  A    between atoms: N_4  and  C_5
REMARK    3  A    between atoms: C_5  and  C_6
REMARK                            x       y       z     vdW  Elec       q    Type
REMARK                         _______ _______ _______ _____ _____    ______ ____
ROOT
ATOM      1  C   UNL     1      46.485   8.587  12.643  0.00  0.00    +0.000 A 
ATOM      2  C   UNL     1      47.636   8.230  13.333  0.00  0.00    +0.000 A 
ATOM      3  C   UNL     1      47.766   6.934  13.818  0.00  0.00    +0.000 A 
ATOM      4  N   UNL     1      46.812   5.998  13.602  0.00  0.00    +0.000 NA
ATOM      5  C   UNL     1      45.705   6.323  12.894  0.00  0.00    +0.000 A 
ATOM      6  N   UNL     1      44.813   5.340  12.514  0.00  0.00    +0.000 N 
ATOM      7  C   UNL     1      45.260   3.951  12.411  0.00  0.00    +0.000 C 
ATOM      8  C   UNL     1      44.467   3.281  11.255  0.00  0.00    +0.000 C 
ATOM      9  N   UNL     1      42.992   3.374  11.408  0.00  0.00    +0.000 NA
ATOM     10  C   UNL     1      42.607   4.788  11.605  0.00  0.00    +0.000 C 
ATOM     11  C   UNL     1      43.375   5.497  12.745  0.00  0.00    +0.000 C 
ATOM     12  C   UNL     1      45.510   7.621  12.427  0.00  0.00    +0.000 A 
ATOM     13  H   UNL     1      42.740   2.858  12.252  0.00  0.00    +0.000 HD
ENDROOT
BRANCH   3  14
ATOM     14  N   UNL     1      48.910   6.636  14.550  0.00  0.00    +0.000 N 
ATOM     15  H   UNL     1      49.526   5.961  14.120  0.00  0.00    +0.000 HD
BRANCH  14  16
ATOM     16  C   UNL     1      48.875   6.655  16.000  0.00  0.00    +0.000 C 
BRANCH  16  17
ATOM     17  C   UNL     1      48.736   5.325  16.706  0.00  0.00    +0.000 A 
ATOM     18  C   UNL     1      49.776   4.896  17.544  0.00  0.00    +0.000 A 
ATOM     19  C   UNL     1      49.604   3.756  18.316  0.00  0.00    +0.000 A 
ATOM     20  N   UNL     1      48.475   3.020  18.324  0.00  0.00    +0.000 NA
ATOM     21  C   UNL     1      47.482   3.442  17.513  0.00  0.00    +0.000 A 
ATOM     22  C   UNL     1      47.568   4.560  16.695  0.00  0.00    +0.000 A 
ENDBRANCH  16  17
ENDBRANCH  14  16
ENDBRANCH   3  14
TORSDOF 3
ENDMDL
MODEL 8
REMARK VINA RESULT:    -5.984      4.113      7.627
REMARK INTER + INTRA:          -7.395
REMARK INTER:                  -7.073
REMARK INTRA:                  -0.323
REMARK UNBOUND:                -0.362
REMARK  Name = 
REMARK  3 active torsions:
REMARK  status: ('A' for Active; 'I' for Inactive)
REMARK    1  A    between atoms: C_3  and  N_4
REMARK    2  A    between atoms: N_4  and  C_5
REMARK    3  A    between atoms: C_5  and  C_6
REMARK                            x       y       z     vdW  Elec       q    Type
REMARK                         _______ _______ _______ _____ _____    ______ ____
ROOT
ATOM      1  C   UNL     1      48.197   7.207  12.032  0.00  0.00    +0.000 A 
ATOM      2  C   UNL     1      48.696   7.047  13.318  0.00  0.00    +0.000 A 
ATOM      3  C   UNL     1      47.929   6.385  14.270  0.00  0.00    +0.000 A 
ATOM      4  N   UNL     1      46.720   5.857  13.962  0.00  0.00    +0.000 NA
ATOM      5  C   UNL     1      46.243   5.970  12.700  0.00  0.00    +0.000 A 
ATOM      6  N   UNL     1      45.102   5.288  12.329  0.00  0.00    +0.000 N 
ATOM      7  C   UNL     1      44.692   4.094  13.069  0.00  0.00    +0.000 C 
ATOM      8  C   UNL     1      44.022   3.119  12.063  0.00  0.00    +0.000 C 
ATOM      9  N   UNL     1      42.887   3.716  11.314  0.00  0.00    +0.000 NA
ATOM     10  C   UNL     1      43.332   4.968  10.666  0.00  0.00    +0.000 C 
ATOM     11  C   UNL     1      44.010   5.971  11.631  0.00  0.00    +0.000 C 
ATOM     12  C   UNL     1      46.956   6.665  11.726  0.00  0.00    +0.000 A 
ATOM     13  H   UNL     1      42.164   3.953  11.994  0.00  0.00    +0.000 HD
ENDROOT
BRANCH   3  14
ATOM     14  N   UNL     1      48.444   6.296  15.558  0.00  0.00    +0.000 N 
ATOM     15  H   UNL     1      49.375   6.670  15.671  0.00  0.00    +0.000 HD
BRANCH  14  16
ATOM     16  C   UNL     1      48.081   5.182  16.414  0.00  0.00    +0.000 C 
BRANCH  16  17
ATOM     17  C   UNL     1      49.208   4.337  16.963  0.00  0.00    +0.000 A 
ATOM     18  C   UNL     1      49.087   2.939  16.914  0.00  0.00    +0.000 A 
ATOM     19  C   UNL     1      50.169   2.148  17.273  0.00  0.00    +0.000 A 
ATOM     20  N   UNL     1      51.361   2.641  17.664  0.00  0.00    +0.000 NA
ATOM     21  C   UNL     1      51.465   3.987  17.707  0.00  0.00    +0.000 A 
ATOM     22  C   UNL     1      50.434   4.857  17.382  0.00  0.00    +0.000 A 
ENDBRANCH  16  17
ENDBRANCH  14  16
ENDBRANCH   3  14
TORSDOF 3
ENDMDL
MODEL 9
REMARK VINA RESULT:    -5.777      4.427      6.375
REMARK INTER + INTRA:          -7.152
REMARK INTER:                  -6.905
REMARK INTRA:                  -0.248
REMARK UNBOUND:                -0.362
REMARK  Name = 
REMARK  3 active torsions:
REMARK  status: ('A' for Active; 'I' for Inactive)
REMARK    1  A    between atoms: C_3  and  N_4
REMARK    2  A    between atoms: N_4  and  C_5
REMARK    3  A    between atoms: C_5  and  C_6
REMARK                            x       y       z     vdW  Elec       q    Type
REMARK                         _______ _______ _______ _____ _____    ______ ____
ROOT
ATOM      1  C   UNL     1      48.267   3.457  18.103  0.00  0.00    +0.000 A 
ATOM      2  C   UNL     1      47.521   3.182  16.965  0.00  0.00    +0.000 A 
ATOM      3  C   UNL     1      47.515   4.094  15.917  0.00  0.00    +0.000 A 
ATOM      4  N   UNL     1      48.250   5.230  15.963  0.00  0.00    +0.000 NA
ATOM      5  C   UNL     1      49.015   5.489  17.050  0.00  0.00    +0.000 A 
ATOM      6  N   UNL     1      49.901   6.547  17.036  0.00  0.00    +0.000 N 
ATOM      7  C   UNL     1      50.396   7.068  15.762  0.00  0.00    +0.000 C 
ATOM      8  C   UNL     1      51.855   7.552  15.981  0.00  0.00    +0.000 C 
ATOM      9  N   UNL     1      51.998   8.549  17.073  0.00  0.00    +0.000 NA
ATOM     10  C   UNL     1      51.397   8.008  18.311  0.00  0.00    +0.000 C 
ATOM     11  C   UNL     1      49.942   7.509  18.140  0.00  0.00    +0.000 C 
ATOM     12  C   UNL     1      49.017   4.626  18.144  0.00  0.00    +0.000 A 
ATOM     13  H   UNL     1      51.469   9.377  16.801  0.00  0.00    +0.000 HD
ENDROOT
BRANCH   3  14
ATOM     14  N   UNL     1      46.711   3.804  14.820  0.00  0.00    +0.000 N 
ATOM     15  H   UNL     1      46.819   2.870  14.449  0.00  0.00    +0.000 HD
BRANCH  14  16
ATOM     16  C   UNL     1      46.366   4.846  13.872  0.00  0.00    +0.000 C 
BRANCH  16  17
ATOM     17  C   UNL     1      45.192   4.585  12.955  0.00  0.00    +0.000 A 
ATOM     18  C   UNL     1      45.206   3.431  12.156  0.00  0.00    +0.000 A 
ATOM     19  C   UNL     1      44.076   3.096  11.422  0.00  0.00    +0.000 A 
ATOM     20  N   UNL     1      42.936   3.814  11.434  0.00  0.00    +0.000 NA
ATOM     21  C   UNL     1      42.935   4.921  12.206  0.00  0.00    +0.000 A 
ATOM     22  C   UNL     1      44.021   5.343  12.961  0.00  0.00    +0.000 A 
ENDBRANCH  16  17
ENDBRANCH  14  16
ENDBRANCH   3  14
TORSDOF 3
ENDMDL
