MODEL 1
REMARK VINA RESULT:    -7.973      0.000      0.000
REMARK INTER + INTRA:         -11.622
REMARK INTER:                 -10.769
REMARK INTRA:                  -0.853
REMARK UNBOUND:                -0.853
REMARK  Name = 
REMARK  7 active torsions:
REMARK  status: ('A' for Active; 'I' for Inactive)
REMARK    1  A    between atoms: C_1  and  C_2
REMARK    2  A    between atoms: C_2  and  C_3
REMARK    3  A    between atoms: C_2  and  C_14
REMARK    4  A    between atoms: C_3  and  N_4
REMARK    5  A    between atoms: N_4  and  C_5
REMARK    6  A    between atoms: C_8  and  C_9
REMARK    7  A    between atoms: C_18  and  C_19
REMARK                            x       y       z     vdW  Elec       q    Type
REMARK                         _______ _______ _______ _____ _____    ______ ____
ROOT
ATOM      1  N   UNL     1      43.775   4.906   9.905  0.00  0.00    +0.000 N 
ATOM      2  H   UNL     1      43.941   5.877   9.649  0.00  0.00    +0.000 HD
ENDROOT
BRANCH   1   3
ATOM      3  C   UNL     1      44.670   4.045   9.250  0.00  0.00    +0.000 A 
ATOM      4  C   UNL     1      44.571   2.651   9.324  0.00  0.00    +0.000 A 
ATOM      5  C   UNL     1      45.452   1.823   8.621  0.00  0.00    +0.000 A 
ATOM      6  C   UNL     1      46.429   2.375   7.791  0.00  0.00    +0.000 A 
ATOM      7  C   UNL     1      46.515   3.764   7.666  0.00  0.00    +0.000 A 
ATOM      8  C   UNL     1      45.628   4.585   8.378  0.00  0.00    +0.000 A 
BRANCH   6   9
ATOM      9  C   UNL     1      47.345   1.442   7.083  0.00  0.00    +0.000 C 
ATOM     10  N   UNL     1      48.439   1.975   6.463  0.00  0.00    +0.000 N 
ATOM     11  O   UNL     1      47.113   0.241   7.021  0.00  0.00    +0.000 OA
ATOM     12  H   UNL     1      48.546   2.964   6.294  0.00  0.00    +0.000 HD
ATOM     13  H   UNL     1      48.979   1.336   5.892  0.00  0.00    +0.000 HD
ENDBRANCH   6   9
ENDBRANCH   1   3
BRANCH   1  14
ATOM     14  C   UNL     1      43.630   4.753  11.350  0.00  0.00    +0.000 C 
BRANCH  14  16
ATOM     15  C   UNL     1      45.590   3.742  12.666  0.00  0.00    +0.000 C 
ATOM     16  C   UNL     1      44.986   4.918  11.962  0.00  0.00    +0.000 C 
BRANCH  16  17
ATOM     17  C   UNL     1      45.658   6.226  12.004  0.00  0.00    +0.000 A 
ATOM     18  C   UNL     1      47.055   6.336  12.042  0.00  0.00    +0.000 A 
ATOM     19  C   UNL     1      47.675   7.589  12.082  0.00  0.00    +0.000 A 
ATOM     20  C   UNL     1      46.905   8.751  12.078  0.00  0.00    +0.000 A 
ATOM     21  C   UNL     1      45.513   8.659  12.038  0.00  0.00    +0.000 A 
ATOM     22  C   UNL     1      44.896   7.403  12.010  0.00  0.00    +0.000 A 
BRANCH  21  23
ATOM     23  C   UNL     1      44.711   9.844  12.015  0.00  0.00    +0.000 C 
ATOM     24  N   UNL     1      44.069  10.813  11.996  0.00  0.00    +0.000 NA
ENDBRANCH  21  23
ENDBRANCH  16  17
ENDBRANCH  14  16
ENDBRANCH   1  14
TORSDOF 6
ENDMDL
MODEL 2
REMARK VINA RESULT:    -7.909      2.219      2.769
REMARK INTER + INTRA:         -11.537
REMARK INTER:                 -10.658
REMARK INTRA:                  -0.879
REMARK UNBOUND:                -0.853
REMARK  Name = 
REMARK  7 active torsions:
REMARK  status: ('A' for Active; 'I' for Inactive)
REMARK    1  A    between atoms: C_1  and  C_2
REMARK    2  A    between atoms: C_2  and  C_3
REMARK    3  A    between atoms: C_2  and  C_14
REMARK    4  A    between atoms: C_3  and  N_4
REMARK    5  A    between atoms: N_4  and  C_5
REMARK    6  A    between atoms: C_8  and  C_9
REMARK    7  A    between atoms: C_18  and  C_19
REMARK                            x       y       z     vdW  Elec       q    Type
REMARK                         _______ _______ _______ _____ _____    ______ ____
ROOT
ATOM      1  N   UNL     1      43.762   3.362  10.378  0.00  0.00    +0.000 N 
ATOM      2  H   UNL     1      42.905   2.850  10.180  0.00  0.00    +0.000 HD
ENDROOT
BRANCH   1   3
ATOM      3  C   UNL     1      44.748   3.100   9.413  0.00  0.00    +0.000 A 
ATOM      4  C   UNL     1      45.190   1.806   9.114  0.00  0.00    +0.000 A 
ATOM      5  C   UNL     1      46.140   1.578   8.114  0.00  0.00    +0.000 A 
ATOM      6  C   UNL     1      46.639   2.639   7.358  0.00  0.00    +0.000 A 
ATOM      7  C   UNL     1      46.176   3.934   7.609  0.00  0.00    +0.000 A 
ATOM      8  C   UNL     1      45.225   4.152   8.616  0.00  0.00    +0.000 A 
BRANCH   6   9
ATOM      9  C   UNL     1      47.659   2.333   6.321  0.00  0.00    +0.000 C 
ATOM     10  N   UNL     1      47.702   3.135   5.216  0.00  0.00    +0.000 N 
ATOM     11  O   UNL     1      48.413   1.374   6.428  0.00  0.00    +0.000 OA
ATOM     12  H   UNL     1      46.965   3.783   4.979  0.00  0.00    +0.000 HD
ATOM     13  H   UNL     1      48.323   2.834   4.475  0.00  0.00    +0.000 HD
ENDBRANCH   6   9
ENDBRANCH   1   3
BRANCH   1  14
ATOM     14  C   UNL     1      43.487   4.761  10.694  0.00  0.00    +0.000 C 
BRANCH  14  16
ATOM     15  C   UNL     1      43.037   4.847  13.221  0.00  0.00    +0.000 C 
ATOM     16  C   UNL     1      43.991   5.021  12.080  0.00  0.00    +0.000 C 
BRANCH  16  17
ATOM     17  C   UNL     1      45.335   5.567  12.320  0.00  0.00    +0.000 A 
ATOM     18  C   UNL     1      45.972   6.393  11.382  0.00  0.00    +0.000 A 
ATOM     19  C   UNL     1      47.252   6.902  11.628  0.00  0.00    +0.000 A 
ATOM     20  C   UNL     1      47.909   6.597  12.819  0.00  0.00    +0.000 A 
ATOM     21  C   UNL     1      47.288   5.779  13.763  0.00  0.00    +0.000 A 
ATOM     22  C   UNL     1      46.012   5.262  13.508  0.00  0.00    +0.000 A 
BRANCH  21  23
ATOM     23  C   UNL     1      47.945   5.473  14.998  0.00  0.00    +0.000 C 
ATOM     24  N   UNL     1      48.487   5.224  15.995  0.00  0.00    +0.000 NA
ENDBRANCH  21  23
ENDBRANCH  16  17
ENDBRANCH  14  16
ENDBRANCH   1  14
TORSDOF 6
ENDMDL
MODEL 3
REMARK VINA RESULT:    -7.872      1.527      2.091
REMARK INTER + INTRA:         -11.485
REMARK INTER:                 -10.487
REMARK INTRA:                  -0.999
REMARK UNBOUND:                -0.853
REMARK  Name = 
REMARK  7 active torsions:
REMARK  status: ('A' for Active; 'I' for Inactive)
REMARK    1  A    between atoms: C_1  and  C_2
REMARK    2  A    between atoms: C_2  and  C_3
REMARK    3  A    between atoms: C_2  and  C_14
REMARK    4  A    between atoms: C_3  and  N_4
REMARK    5  A    between atoms: N_4  and  C_5
REMARK    6  A    between atoms: C_8  and  C_9
REMARK    7  A    between atoms: C_18  and  C_19
REMARK                            x       y       z     vdW  Elec       q    Type
REMARK                         _______ _______ _______ _____ _____    ______ ____
ROOT
ATOM      1  N   UNL     1      43.859   4.853  10.031  0.00  0.00    +0.000 N 
ATOM      2  H   UNL     1      44.011   5.844   9.859  0.00  0.00    +0.000 HD
ENDROOT
BRANCH   1   3
ATOM      3  C   UNL     1      44.760   4.064   9.300  0.00  0.00    +0.000 A 
ATOM      4  C   UNL     1      44.748   2.665   9.340  0.00  0.00    +0.000 A 
ATOM      5  C   UNL     1      45.630   1.909   8.561  0.00  0.00    +0.000 A 
ATOM      6  C   UNL     1      46.519   2.538   7.689  0.00  0.00    +0.000 A 
ATOM      7  C   UNL     1      46.516   3.932   7.598  0.00  0.00    +0.000 A 
ATOM      8  C   UNL     1      45.629   4.681   8.386  0.00  0.00    +0.000 A 
BRANCH   6   9
ATOM      9  C   UNL     1      47.442   1.680   6.901  0.00  0.00    +0.000 C 
ATOM     10  N   UNL     1      48.581   2.253   6.413  0.00  0.00    +0.000 N 
ATOM     11  O   UNL     1      47.178   0.508   6.661  0.00  0.00    +0.000 OA
ATOM     12  H   UNL     1      48.726   3.252   6.389  0.00  0.00    +0.000 HD
ATOM     13  H   UNL     1      49.130   1.681   5.783  0.00  0.00    +0.000 HD
ENDBRANCH   6   9
ENDBRANCH   1   3
BRANCH   1  14
ATOM     14  C   UNL     1      43.728   4.574  11.459  0.00  0.00    +0.000 C 
BRANCH  14  16
ATOM     15  C   UNL     1      45.734   3.639  12.761  0.00  0.00    +0.000 C 
ATOM     16  C   UNL     1      45.067   4.800  12.091  0.00  0.00    +0.000 C 
BRANCH  16  17
ATOM     17  C   UNL     1      45.657   6.144  12.184  0.00  0.00    +0.000 A 
ATOM     18  C   UNL     1      44.899   7.255  12.580  0.00  0.00    +0.000 A 
ATOM     19  C   UNL     1      45.477   8.526  12.661  0.00  0.00    +0.000 A 
ATOM     20  C   UNL     1      46.826   8.702  12.354  0.00  0.00    +0.000 A 
ATOM     21  C   UNL     1      47.594   7.605  11.960  0.00  0.00    +0.000 A 
ATOM     22  C   UNL     1      47.009   6.337  11.868  0.00  0.00    +0.000 A 
BRANCH  21  23
ATOM     23  C   UNL     1      48.984   7.769  11.659  0.00  0.00    +0.000 C 
ATOM     24  N   UNL     1      50.115   7.893  11.419  0.00  0.00    +0.000 NA
ENDBRANCH  21  23
ENDBRANCH  16  17
ENDBRANCH  14  16
ENDBRANCH   1  14
TORSDOF 6
ENDMDL
MODEL 4
REMARK VINA RESULT:    -7.710      3.045      6.505
REMARK INTER + INTRA:         -11.267
REMARK INTER:                 -10.128
REMARK INTRA:                  -1.138
REMARK UNBOUND:                -0.853
REMARK  Name = 
REMARK  7 active torsions:
REMARK  status: ('A' for Active; 'I' for Inactive)
REMARK    1  A    between atoms: C_1  and  C_2
REMARK    2  A    between atoms: C_2  and  C_3
REMARK    3  A    between atoms: C_2  and  C_14
REMARK    4  A    between atoms: C_3  and  N_4
REMARK    5  A    between atoms: N_4  and  C_5
REMARK    6  A    between atoms: C_8  and  C_9
REMARK    7  A    between atoms: C_18  and  C_19
REMARK                            x       y       z     vdW  Elec       q    Type
REMARK                         _______ _______ _______ _____ _____    ______ ____
ROOT
ATOM      1  N   UNL     1      43.627   5.193  12.703  0.00  0.00    +0.000 N 
ATOM      2  H   UNL     1      43.397   4.398  13.295  0.00  0.00    +0.000 HD
ENDROOT
BRANCH   1   3
ATOM      3  C   UNL     1      44.955   5.607  12.896  0.00  0.00    +0.000 A 
ATOM      4  C   UNL     1      45.895   4.838  13.592  0.00  0.00    +0.000 A 
ATOM      5  C   UNL     1      47.221   5.260  13.726  0.00  0.00    +0.000 A 
ATOM      6  C   UNL     1      47.649   6.445  13.126  0.00  0.00    +0.000 A 
ATOM      7  C   UNL     1      46.738   7.205  12.388  0.00  0.00    +0.000 A 
ATOM      8  C   UNL     1      45.409   6.774  12.263  0.00  0.00    +0.000 A 
BRANCH   6   9
ATOM      9  C   UNL     1      49.067   6.847  13.319  0.00  0.00    +0.000 C 
ATOM     10  N   UNL     1      49.804   7.130  12.205  0.00  0.00    +0.000 N 
ATOM     11  O   UNL     1      49.574   6.889  14.433  0.00  0.00    +0.000 OA
ATOM     12  H   UNL     1      49.502   6.890  11.272  0.00  0.00    +0.000 HD
ATOM     13  H   UNL     1      50.794   7.284  12.356  0.00  0.00    +0.000 HD
ENDBRANCH   6   9
ENDBRANCH   1   3
BRANCH   1  14
ATOM     14  C   UNL     1      43.184   4.978  11.327  0.00  0.00    +0.000 C 
BRANCH  14  16
ATOM     15  C   UNL     1      43.358   2.444  11.705  0.00  0.00    +0.000 C 
ATOM     16  C   UNL     1      43.707   3.647  10.884  0.00  0.00    +0.000 C 
BRANCH  16  17
ATOM     17  C   UNL     1      44.651   3.526   9.763  0.00  0.00    +0.000 A 
ATOM     18  C   UNL     1      45.128   4.652   9.077  0.00  0.00    +0.000 A 
ATOM     19  C   UNL     1      46.025   4.516   8.012  0.00  0.00    +0.000 A 
ATOM     20  C   UNL     1      46.463   3.252   7.622  0.00  0.00    +0.000 A 
ATOM     21  C   UNL     1      45.999   2.121   8.297  0.00  0.00    +0.000 A 
ATOM     22  C   UNL     1      45.093   2.260   9.354  0.00  0.00    +0.000 A 
BRANCH  21  23
ATOM     23  C   UNL     1      46.455   0.817   7.919  0.00  0.00    +0.000 C 
ATOM     24  N   UNL     1      46.828  -0.242   7.622  0.00  0.00    +0.000 NA
ENDBRANCH  21  23
ENDBRANCH  16  17
ENDBRANCH  14  16
ENDBRANCH   1  14
TORSDOF 6
ENDMDL
MODEL 5
REMARK VINA RESULT:    -6.535      2.074      2.951
REMARK INTER + INTRA:          -9.680
REMARK INTER:                  -9.100
REMARK INTRA:                  -0.579
REMARK UNBOUND:                -0.853
REMARK  Name = 
REMARK  7 active torsions:
REMARK  status: ('A' for Active; 'I' for Inactive)
REMARK    1  A    between atoms: C_1  and  C_2
REMARK    2  A    between atoms: C_2  and  C_3
REMARK    3  A    between atoms: C_2  and  C_14
REMARK    4  A    between atoms: C_3  and  N_4
REMARK    5  A    between atoms: N_4  and  C_5
REMARK    6  A    between atoms: C_8  and  C_9
REMARK    7  A    between atoms: C_18  and  C_19
REMARK                            x       y       z     vdW  Elec       q    Type
REMARK                         _______ _______ _______ _____ _____    ______ ____
ROOT
ATOM      1  N   UNL     1      44.262   5.129  10.146  0.00  0.00    +0.000 N 
ATOM      2  H   UNL     1      44.039   6.001   9.672  0.00  0.00    +0.000 HD
ENDROOT
BRANCH   1   3
ATOM      3  C   UNL     1      44.975   4.259   9.307  0.00  0.00    +0.000 A 
ATOM      4  C   UNL     1      45.896   4.710   8.354  0.00  0.00    +0.000 A 
ATOM      5  C   UNL     1      46.623   3.812   7.567  0.00  0.00    +0.000 A 
ATOM      6  C   UNL     1      46.477   2.436   7.746  0.00  0.00    +0.000 A 
ATOM      7  C   UNL     1      45.598   1.964   8.724  0.00  0.00    +0.000 A 
ATOM      8  C   UNL     1      44.870   2.873   9.506  0.00  0.00    +0.000 A 
BRANCH   6   9
ATOM      9  C   UNL     1      47.266   1.534   6.867  0.00  0.00    +0.000 C 
ATOM     10  N   UNL     1      48.205   2.102   6.054  0.00  0.00    +0.000 N 
ATOM     11  O   UNL     1      47.060   0.327   6.839  0.00  0.00    +0.000 OA
ATOM     12  H   UNL     1      48.250   3.094   5.877  0.00  0.00    +0.000 HD
ATOM     13  H   UNL     1      48.643   1.482   5.383  0.00  0.00    +0.000 HD
ENDBRANCH   6   9
ENDBRANCH   1   3
BRANCH   1  14
ATOM     14  C   UNL     1      44.805   5.372  11.480  0.00  0.00    +0.000 C 
BRANCH  14  16
ATOM     15  C   UNL     1      43.857   7.714  11.022  0.00  0.00    +0.000 C 
ATOM     16  C   UNL     1      44.898   6.854  11.671  0.00  0.00    +0.000 C 
BRANCH  16  17
ATOM     17  C   UNL     1      46.046   7.472  12.350  0.00  0.00    +0.000 A 
ATOM     18  C   UNL     1      46.428   8.796  12.093  0.00  0.00    +0.000 A 
ATOM     19  C   UNL     1      47.525   9.367  12.748  0.00  0.00    +0.000 A 
ATOM     20  C   UNL     1      48.250   8.621  13.676  0.00  0.00    +0.000 A 
ATOM     21  C   UNL     1      47.881   7.303  13.946  0.00  0.00    +0.000 A 
ATOM     22  C   UNL     1      46.791   6.732  13.279  0.00  0.00    +0.000 A 
BRANCH  21  23
ATOM     23  C   UNL     1      48.606   6.532  14.909  0.00  0.00    +0.000 C 
ATOM     24  N   UNL     1      49.202   5.915  15.694  0.00  0.00    +0.000 NA
ENDBRANCH  21  23
ENDBRANCH  16  17
ENDBRANCH  14  16
ENDBRANCH   1  14
TORSDOF 6
ENDMDL
MODEL 6
REMARK VINA RESULT:    -5.947      3.830      5.601
REMARK INTER + INTRA:          -8.886
REMARK INTER:                  -8.049
REMARK INTRA:                  -0.837
REMARK UNBOUND:                -0.853
REMARK  Name = 
REMARK  7 active torsions:
REMARK  status: ('A' for Active; 'I' for Inactive)
REMARK    1  A    between atoms: C_1  and  C_2
REMARK    2  A    between atoms: C_2  and  C_3
REMARK    3  A    between atoms: C_2  and  C_14
REMARK    4  A    between atoms: C_3  and  N_4
REMARK    5  A    between atoms: N_4  and  C_5
REMARK    6  A    between atoms: C_8  and  C_9
REMARK    7  A    between atoms: C_18  and  C_19
REMARK                            x       y       z     vdW  Elec       q    Type
REMARK                         _______ _______ _______ _____ _____    ______ ____
ROOT
ATOM      1  N   UNL     1      46.604   7.811  12.178  0.00  0.00    +0.000 N 
ATOM      2  H   UNL     1      47.376   7.971  11.535  0.00  0.00    +0.000 HD
ENDROOT
BRANCH   1   3
ATOM      3  C   UNL     1      45.912   6.631  11.864  0.00  0.00    +0.000 A 
ATOM      4  C   UNL     1      45.895   6.082  10.577  0.00  0.00    +0.000 A 
ATOM      5  C   UNL     1      45.234   4.880  10.310  0.00  0.00    +0.000 A 
ATOM      6  C   UNL     1      44.608   4.174  11.338  0.00  0.00    +0.000 A 
ATOM      7  C   UNL     1      44.653   4.680  12.640  0.00  0.00    +0.000 A 
ATOM      8  C   UNL     1      45.316   5.889  12.896  0.00  0.00    +0.000 A 
BRANCH   6   9
ATOM      9  C   UNL     1      43.908   2.911  10.987  0.00  0.00    +0.000 C 
ATOM     10  N   UNL     1      44.414   2.170   9.957  0.00  0.00    +0.000 N 
ATOM     11  O   UNL     1      42.891   2.559  11.571  0.00  0.00    +0.000 OA
ATOM     12  H   UNL     1      45.100   2.528   9.309  0.00  0.00    +0.000 HD
ATOM     13  H   UNL     1      43.852   1.380   9.662  0.00  0.00    +0.000 HD
ENDBRANCH   6   9
ENDBRANCH   1   3
BRANCH   1  14
ATOM     14  C   UNL     1      47.020   7.997  13.566  0.00  0.00    +0.000 C 
BRANCH  14  16
ATOM     15  C   UNL     1      49.285   7.347  12.545  0.00  0.00    +0.000 C 
ATOM     16  C   UNL     1      48.365   7.358  13.726  0.00  0.00    +0.000 C 
BRANCH  16  17
ATOM     17  C   UNL     1      48.732   6.634  14.953  0.00  0.00    +0.000 A 
ATOM     18  C   UNL     1      49.887   6.954  15.679  0.00  0.00    +0.000 A 
ATOM     19  C   UNL     1      50.220   6.253  16.843  0.00  0.00    +0.000 A 
ATOM     20  C   UNL     1      49.396   5.226  17.301  0.00  0.00    +0.000 A 
ATOM     21  C   UNL     1      48.241   4.896  16.590  0.00  0.00    +0.000 A 
ATOM     22  C   UNL     1      47.918   5.592  15.419  0.00  0.00    +0.000 A 
BRANCH  21  23
ATOM     23  C   UNL     1      47.377   3.855  17.059  0.00  0.00    +0.000 C 
ATOM     24  N   UNL     1      46.670   3.011  17.431  0.00  0.00    +0.000 NA
ENDBRANCH  21  23
ENDBRANCH  16  17
ENDBRANCH  14  16
ENDBRANCH   1  14
TORSDOF 6
ENDMDL
MODEL 7
REMARK VINA RESULT:    -5.868      4.334      7.253
REMARK INTER + INTRA:          -8.779
REMARK INTER:                  -8.099
REMARK INTRA:                  -0.680
REMARK UNBOUND:                -0.853
REMARK  Name = 
REMARK  7 active torsions:
REMARK  status: ('A' for Active; 'I' for Inactive)
REMARK    1  A    between atoms: C_1  and  C_2
REMARK    2  A    between atoms: C_2  and  C_3
REMARK    3  A    between atoms: C_2  and  C_14
REMARK    4  A    between atoms: C_3  and  N_4
REMARK    5  A    between atoms: N_4  and  C_5
REMARK    6  A    between atoms: C_8  and  C_9
REMARK    7  A    between atoms: C_18  and  C_19
REMARK                            x       y       z     vdW  Elec       q    Type
REMARK                         _______ _______ _______ _____ _____    ______ ____
ROOT
ATOM      1  N   UNL     1      48.074   7.213  13.415  0.00  0.00    +0.000 N 
ATOM      2  H   UNL     1      47.723   8.131  13.678  0.00  0.00    +0.000 HD
ENDROOT
BRANCH   1   3
ATOM      3  C   UNL     1      48.000   6.311  14.488  0.00  0.00    +0.000 A 
ATOM      4  C   UNL     1      47.297   5.103  14.417  0.00  0.00    +0.000 A 
ATOM      5  C   UNL     1      47.283   4.207  15.489  0.00  0.00    +0.000 A 
ATOM      6  C   UNL     1      48.013   4.480  16.647  0.00  0.00    +0.000 A 
ATOM      7  C   UNL     1      48.759   5.658  16.722  0.00  0.00    +0.000 A 
ATOM      8  C   UNL     1      48.764   6.552  15.642  0.00  0.00    +0.000 A 
BRANCH   6   9
ATOM      9  C   UNL     1      47.944   3.495  17.759  0.00  0.00    +0.000 C 
ATOM     10  N   UNL     1      46.895   2.621  17.769  0.00  0.00    +0.000 N 
ATOM     11  O   UNL     1      48.775   3.487  18.659  0.00  0.00    +0.000 OA
ATOM     12  H   UNL     1      46.078   2.738  17.189  0.00  0.00    +0.000 HD
ATOM     13  H   UNL     1      46.808   2.043  18.596  0.00  0.00    +0.000 HD
ENDBRANCH   6   9
ENDBRANCH   1   3
BRANCH   1  14
ATOM     14  C   UNL     1      47.524   6.778  12.134  0.00  0.00    +0.000 C 
BRANCH  14  16
ATOM     15  C   UNL     1      45.621   8.464  12.498  0.00  0.00    +0.000 C 
ATOM     16  C   UNL     1      46.056   7.075  12.146  0.00  0.00    +0.000 C 
BRANCH  16  17
ATOM     17  C   UNL     1      45.055   6.013  11.960  0.00  0.00    +0.000 A 
ATOM     18  C   UNL     1      43.934   5.904  12.796  0.00  0.00    +0.000 A 
ATOM     19  C   UNL     1      42.993   4.887  12.604  0.00  0.00    +0.000 A 
ATOM     20  C   UNL     1      43.157   3.968  11.568  0.00  0.00    +0.000 A 
ATOM     21  C   UNL     1      44.266   4.065  10.726  0.00  0.00    +0.000 A 
ATOM     22  C   UNL     1      45.212   5.077  10.929  0.00  0.00    +0.000 A 
BRANCH  21  23
ATOM     23  C   UNL     1      44.438   3.139   9.648  0.00  0.00    +0.000 C 
ATOM     24  N   UNL     1      44.566   2.386   8.773  0.00  0.00    +0.000 NA
ENDBRANCH  21  23
ENDBRANCH  16  17
ENDBRANCH  14  16
ENDBRANCH   1  14
TORSDOF 6
ENDMDL
MODEL 8
REMARK VINA RESULT:    -5.863      4.374      6.182
REMARK INTER + INTRA:          -8.773
REMARK INTER:                  -8.051
REMARK INTRA:                  -0.722
REMARK UNBOUND:                -0.853
REMARK  Name = 
REMARK  7 active torsions:
REMARK  status: ('A' for Active; 'I' for Inactive)
REMARK    1  A    between atoms: C_1  and  C_2
REMARK    2  A    between atoms: C_2  and  C_3
REMARK    3  A    between atoms: C_2  and  C_14
REMARK    4  A    between atoms: C_3  and  N_4
REMARK    5  A    between atoms: N_4  and  C_5
REMARK    6  A    between atoms: C_8  and  C_9
REMARK    7  A    between atoms: C_18  and  C_19
REMARK                            x       y       z     vdW  Elec       q    Type
REMARK                         _______ _______ _______ _____ _____    ______ ____
ROOT
ATOM      1  N   UNL     1      47.068   7.387  13.537  0.00  0.00    +0.000 N 
ATOM      2  H   UNL     1      46.797   8.280  13.132  0.00  0.00    +0.000 HD
ENDROOT
BRANCH   1   3
ATOM      3  C   UNL     1      46.414   6.319  12.904  0.00  0.00    +0.000 A 
ATOM      4  C   UNL     1      46.158   5.100  13.543  0.00  0.00    +0.000 A 
ATOM      5  C   UNL     1      45.462   4.074  12.896  0.00  0.00    +0.000 A 
ATOM      6  C   UNL     1      44.966   4.262  11.606  0.00  0.00    +0.000 A 
ATOM      7  C   UNL     1      45.169   5.488  10.967  0.00  0.00    +0.000 A 
ATOM      8  C   UNL     1      45.871   6.509  11.623  0.00  0.00    +0.000 A 
BRANCH   6   9
ATOM      9  C   UNL     1      44.248   3.127  10.967  0.00  0.00    +0.000 C 
ATOM     10  N   UNL     1      44.932   2.377  10.053  0.00  0.00    +0.000 N 
ATOM     11  O   UNL     1      43.073   2.890  11.218  0.00  0.00    +0.000 OA
ATOM     12  H   UNL     1      45.810   2.670   9.651  0.00  0.00    +0.000 HD
ATOM     13  H   UNL     1      44.387   1.689   9.548  0.00  0.00    +0.000 HD
ENDBRANCH   6   9
ENDBRANCH   1   3
BRANCH   1  14
ATOM     14  C   UNL     1      48.517   7.290  13.693  0.00  0.00    +0.000 C 
BRANCH  14  16
ATOM     15  C   UNL     1      48.910   8.909  15.647  0.00  0.00    +0.000 C 
ATOM     16  C   UNL     1      48.834   7.501  15.141  0.00  0.00    +0.000 C 
BRANCH  16  17
ATOM     17  C   UNL     1      49.201   6.380  16.020  0.00  0.00    +0.000 A 
ATOM     18  C   UNL     1      50.487   6.265  16.567  0.00  0.00    +0.000 A 
ATOM     19  C   UNL     1      50.818   5.191  17.400  0.00  0.00    +0.000 A 
ATOM     20  C   UNL     1      49.864   4.221  17.703  0.00  0.00    +0.000 A 
ATOM     21  C   UNL     1      48.578   4.323  17.169  0.00  0.00    +0.000 A 
ATOM     22  C   UNL     1      48.255   5.393  16.326  0.00  0.00    +0.000 A 
BRANCH  21  23
ATOM     23  C   UNL     1      47.584   3.343  17.486  0.00  0.00    +0.000 C 
ATOM     24  N   UNL     1      46.770   2.555  17.740  0.00  0.00    +0.000 NA
ENDBRANCH  21  23
ENDBRANCH  16  17
ENDBRANCH  14  16
ENDBRANCH   1  14
TORSDOF 6
ENDMDL
MODEL 9
REMARK VINA RESULT:    -5.728      4.973      6.719
REMARK INTER + INTRA:          -8.590
REMARK INTER:                  -7.901
REMARK INTRA:                  -0.689
REMARK UNBOUND:                -0.853
REMARK  Name = 
REMARK  7 active torsions:
REMARK  status: ('A' for Active; 'I' for Inactive)
REMARK    1  A    between atoms: C_1  and  C_2
REMARK    2  A    between atoms: C_2  and  C_3
REMARK    3  A    between atoms: C_2  and  C_14
REMARK    4  A    between atoms: C_3  and  N_4
REMARK    5  A    between atoms: N_4  and  C_5
REMARK    6  A    between atoms: C_8  and  C_9
REMARK    7  A    between atoms: C_18  and  C_19
REMARK                            x       y       z     vdW  Elec       q    Type
REMARK                         _______ _______ _______ _____ _____    ______ ____
ROOT
ATOM      1  N   UNL     1      47.008   7.097  13.892  0.00  0.00    +0.000 N 
ATOM      2  H   UNL     1      46.904   8.092  13.710  0.00  0.00    +0.000 HD
ENDROOT
BRANCH   1   3
ATOM      3  C   UNL     1      46.297   6.329  12.957  0.00  0.00    +0.000 A 
ATOM      4  C   UNL     1      46.232   6.658  11.598  0.00  0.00    +0.000 A 
ATOM      5  C   UNL     1      45.553   5.844  10.686  0.00  0.00    +0.000 A 
ATOM      6  C   UNL     1      44.958   4.655  11.108  0.00  0.00    +0.000 A 
ATOM      7  C   UNL     1      45.051   4.283  12.452  0.00  0.00    +0.000 A 
ATOM      8  C   UNL     1      45.731   5.108  13.359  0.00  0.00    +0.000 A 
BRANCH   6   9
ATOM      9  C   UNL     1      44.237   3.842  10.094  0.00  0.00    +0.000 C 
ATOM     10  N   UNL     1      44.115   4.359   8.836  0.00  0.00    +0.000 N 
ATOM     11  O   UNL     1      43.734   2.762  10.379  0.00  0.00    +0.000 OA
ATOM     12  H   UNL     1      44.308   5.325   8.619  0.00  0.00    +0.000 HD
ATOM     13  H   UNL     1      43.520   3.841   8.200  0.00  0.00    +0.000 HD
ENDBRANCH   6   9
ENDBRANCH   1   3
BRANCH   1  14
ATOM     14  C   UNL     1      48.405   6.742  14.130  0.00  0.00    +0.000 C 
BRANCH  14  16
ATOM     15  C   UNL     1      48.796   8.061  16.298  0.00  0.00    +0.000 C 
ATOM     16  C   UNL     1      48.628   6.742  15.611  0.00  0.00    +0.000 C 
BRANCH  16  17
ATOM     17  C   UNL     1      48.820   5.490  16.359  0.00  0.00    +0.000 A 
ATOM     18  C   UNL     1      47.810   4.521  16.444  0.00  0.00    +0.000 A 
ATOM     19  C   UNL     1      48.011   3.337  17.162  0.00  0.00    +0.000 A 
ATOM     20  C   UNL     1      49.228   3.103  17.799  0.00  0.00    +0.000 A 
ATOM     21  C   UNL     1      50.244   4.057  17.723  0.00  0.00    +0.000 A 
ATOM     22  C   UNL     1      50.035   5.246  17.014  0.00  0.00    +0.000 A 
BRANCH  21  23
ATOM     23  C   UNL     1      51.505   3.822  18.358  0.00  0.00    +0.000 C 
ATOM     24  N   UNL     1      52.528   3.621  18.872  0.00  0.00    +0.000 NA
ENDBRANCH  21  23
ENDBRANCH  16  17
ENDBRANCH  14  16
ENDBRANCH   1  14
TORSDOF 6
ENDMDL
