MODEL 1
REMARK VINA RESULT:    -8.303      0.000      0.000
REMARK INTER + INTRA:         -13.301
REMARK INTER:                 -12.186
REMARK INTRA:                  -1.116
REMARK UNBOUND:                -1.116
REMARK  Name = 
REMARK  12 active torsions:
REMARK  status: ('A' for Active; 'I' for Inactive)
REMARK    1  A    between atoms: C_1  and  C_2
REMARK    2  A    between atoms: C_2  and  C_3
REMARK    3  A    between atoms: C_5  and  O_6
REMARK    4  A    between atoms: O_6  and  C_7
REMARK    5  A    between atoms: C_9  and  S_10
REMARK    6  A    between atoms: S_10  and  C_11
REMARK    7  A    between atoms: C_11  and  C_12
REMARK    8  A    between atoms: C_12  and  C_13
REMARK    9  A    between atoms: C_12  and  C_14
REMARK   10  A    between atoms: C_12  and  C_15
REMARK   11  A    between atoms: C_18  and  C_19
REMARK   12  A    between atoms: C_25  and  C_26
REMARK                            x       y       z     vdW  Elec       q    Type
REMARK                         _______ _______ _______ _____ _____    ______ ____
ROOT
ATOM      1  C   UNL     1      48.603   6.664  14.214  0.00  0.00    +0.000 A 
ATOM      2  C   UNL     1      47.306   6.293  13.842  0.00  0.00    +0.000 A 
ATOM      3  C   UNL     1      46.670   6.916  12.760  0.00  0.00    +0.000 A 
ATOM      4  C   UNL     1      47.332   7.933  12.066  0.00  0.00    +0.000 A 
ATOM      5  C   UNL     1      48.619   8.337  12.449  0.00  0.00    +0.000 A 
ATOM      6  C   UNL     1      49.249   7.685  13.519  0.00  0.00    +0.000 A 
ENDROOT
BRANCH   5   7
ATOM      7  C   UNL     1      49.324   9.484  11.771  0.00  0.00    +0.000 C 
ATOM      8  F   UNL     1      49.979  10.309  12.635  0.00  0.00    +0.000 F 
ATOM      9  F   UNL     1      50.260   9.063  10.876  0.00  0.00    +0.000 F 
ATOM     10  F   UNL     1      48.468  10.279  11.071  0.00  0.00    +0.000 F 
ENDBRANCH   5   7
BRANCH   1  11
ATOM     11  O   UNL     1      49.138   6.025  15.308  0.00  0.00    +0.000 OA
BRANCH  11  16
ATOM     12  C   UNL     1      48.521   3.208  18.737  0.00  0.00    +0.000 C 
ATOM     13  C   UNL     1      49.097   4.177  17.713  0.00  0.00    +0.000 C 
ATOM     14  C   UNL     1      50.618   4.113  17.647  0.00  0.00    +0.000 C 
ATOM     15  C   UNL     1      48.481   5.588  17.710  0.00  0.00    +0.000 C 
ATOM     16  C   UNL     1      48.245   5.331  16.211  0.00  0.00    +0.000 C 
ATOM     17  O   UNL     1      48.532   3.915  16.403  0.00  0.00    +0.000 OA
ENDBRANCH  11  16
ENDBRANCH   1  11
BRANCH   3  18
ATOM     18  S   UNL     1      44.973   6.540  12.354  0.00  0.00    +0.000 S 
BRANCH  18  19
ATOM     19  C   UNL     1      45.050   4.705  12.211  0.00  0.00    +0.000 C 
BRANCH  19  20
ATOM     20  C   UNL     1      44.135   4.053  11.110  0.00  0.00    +0.000 C 
ATOM     21  C   UNL     1      43.433   2.804  11.698  0.00  0.00    +0.000 C 
ATOM     22  C   UNL     1      43.061   5.076  10.669  0.00  0.00    +0.000 C 
BRANCH  20  23
ATOM     23  C   UNL     1      44.935   3.610   9.850  0.00  0.00    +0.000 A 
ATOM     24  C   UNL     1      45.522   4.530   8.966  0.00  0.00    +0.000 A 
ATOM     25  C   UNL     1      46.258   4.103   7.852  0.00  0.00    +0.000 A 
ATOM     26  C   UNL     1      46.432   2.742   7.592  0.00  0.00    +0.000 A 
ATOM     27  C   UNL     1      45.836   1.807   8.437  0.00  0.00    +0.000 A 
ATOM     28  C   UNL     1      45.096   2.239   9.550  0.00  0.00    +0.000 A 
BRANCH  26  29
ATOM     29  C   UNL     1      47.237   2.353   6.402  0.00  0.00    +0.000 C 
ATOM     30  N   UNL     1      47.092   3.098   5.265  0.00  0.00    +0.000 N 
ATOM     31  O   UNL     1      47.973   1.375   6.417  0.00  0.00    +0.000 OA
ATOM     32  H   UNL     1      46.330   3.746   5.130  0.00  0.00    +0.000 HD
ATOM     33  H   UNL     1      47.560   2.742   4.440  0.00  0.00    +0.000 HD
ENDBRANCH  26  29
ENDBRANCH  20  23
ENDBRANCH  19  20
ENDBRANCH  18  19
ENDBRANCH   3  18
TORSDOF 8
ENDMDL
MODEL 2
REMARK VINA RESULT:    -7.739      2.953      4.991
REMARK INTER + INTRA:         -12.474
REMARK INTER:                 -11.352
REMARK INTRA:                  -1.122
REMARK UNBOUND:                -1.116
REMARK  Name = 
REMARK  12 active torsions:
REMARK  status: ('A' for Active; 'I' for Inactive)
REMARK    1  A    between atoms: C_1  and  C_2
REMARK    2  A    between atoms: C_2  and  C_3
REMARK    3  A    between atoms: C_5  and  O_6
REMARK    4  A    between atoms: O_6  and  C_7
REMARK    5  A    between atoms: C_9  and  S_10
REMARK    6  A    between atoms: S_10  and  C_11
REMARK    7  A    between atoms: C_11  and  C_12
REMARK    8  A    between atoms: C_12  and  C_13
REMARK    9  A    between atoms: C_12  and  C_14
REMARK   10  A    between atoms: C_12  and  C_15
REMARK   11  A    between atoms: C_18  and  C_19
REMARK   12  A    between atoms: C_25  and  C_26
REMARK                            x       y       z     vdW  Elec       q    Type
REMARK                         _______ _______ _______ _____ _____    ______ ____
ROOT
ATOM      1  C   UNL     1      48.460   6.633  14.528  0.00  0.00    +0.000 A 
ATOM      2  C   UNL     1      47.667   5.827  13.705  0.00  0.00    +0.000 A 
ATOM      3  C   UNL     1      47.025   4.694  14.223  0.00  0.00    +0.000 A 
ATOM      4  C   UNL     1      47.205   4.357  15.569  0.00  0.00    +0.000 A 
ATOM      5  C   UNL     1      48.025   5.139  16.395  0.00  0.00    +0.000 A 
ATOM      6  C   UNL     1      48.639   6.282  15.864  0.00  0.00    +0.000 A 
ENDROOT
BRANCH   5   7
ATOM      7  C   UNL     1      48.301   4.756  17.827  0.00  0.00    +0.000 C 
ATOM      8  F   UNL     1      49.624   4.586  18.101  0.00  0.00    +0.000 F 
ATOM      9  F   UNL     1      47.854   5.691  18.711  0.00  0.00    +0.000 F 
ATOM     10  F   UNL     1      47.694   3.588  18.179  0.00  0.00    +0.000 F 
ENDBRANCH   5   7
BRANCH   1  11
ATOM     11  O   UNL     1      49.080   7.705  13.928  0.00  0.00    +0.000 OA
BRANCH  11  16
ATOM     12  C   UNL     1      48.798  10.965  10.868  0.00  0.00    +0.000 C 
ATOM     13  C   UNL     1      49.213  10.057  12.017  0.00  0.00    +0.000 C 
ATOM     14  C   UNL     1      50.153  10.753  12.994  0.00  0.00    +0.000 C 
ATOM     15  C   UNL     1      49.594   8.617  11.627  0.00  0.00    +0.000 C 
ATOM     16  C   UNL     1      48.548   8.204  12.678  0.00  0.00    +0.000 C 
ATOM     17  O   UNL     1      48.041   9.569  12.719  0.00  0.00    +0.000 OA
ENDBRANCH  11  16
ENDBRANCH   1  11
BRANCH   3  18
ATOM     18  S   UNL     1      46.111   3.589  13.160  0.00  0.00    +0.000 S 
BRANCH  18  19
ATOM     19  C   UNL     1      45.076   4.790  12.222  0.00  0.00    +0.000 C 
BRANCH  19  20
ATOM     20  C   UNL     1      44.149   4.187  11.104  0.00  0.00    +0.000 C 
ATOM     21  C   UNL     1      43.349   2.995  11.686  0.00  0.00    +0.000 C 
ATOM     22  C   UNL     1      43.158   5.274  10.624  0.00  0.00    +0.000 C 
BRANCH  20  23
ATOM     23  C   UNL     1      44.950   3.677   9.871  0.00  0.00    +0.000 A 
ATOM     24  C   UNL     1      45.098   2.311   9.579  0.00  0.00    +0.000 A 
ATOM     25  C   UNL     1      45.805   1.881   8.447  0.00  0.00    +0.000 A 
ATOM     26  C   UNL     1      46.380   2.804   7.571  0.00  0.00    +0.000 A 
ATOM     27  C   UNL     1      46.271   4.165   7.853  0.00  0.00    +0.000 A 
ATOM     28  C   UNL     1      45.566   4.593   8.989  0.00  0.00    +0.000 A 
BRANCH  26  29
ATOM     29  C   UNL     1      47.104   2.284   6.380  0.00  0.00    +0.000 C 
ATOM     30  N   UNL     1      47.303   3.140   5.333  0.00  0.00    +0.000 N 
ATOM     31  O   UNL     1      47.474   1.118   6.311  0.00  0.00    +0.000 OA
ATOM     32  H   UNL     1      46.810   4.015   5.242  0.00  0.00    +0.000 HD
ATOM     33  H   UNL     1      47.692   2.728   4.493  0.00  0.00    +0.000 HD
ENDBRANCH  26  29
ENDBRANCH  20  23
ENDBRANCH  19  20
ENDBRANCH  18  19
ENDBRANCH   3  18
TORSDOF 8
ENDMDL
MODEL 3
REMARK VINA RESULT:    -7.708      2.990      3.993
REMARK INTER + INTRA:         -12.428
REMARK INTER:                 -10.930
REMARK INTRA:                  -1.498
REMARK UNBOUND:                -1.116
REMARK  Name = 
REMARK  12 active torsions:
REMARK  status: ('A' for Active; 'I' for Inactive)
REMARK    1  A    between atoms: C_1  and  C_2
REMARK    2  A    between atoms: C_2  and  C_3
REMARK    3  A    between atoms: C_5  and  O_6
REMARK    4  A    between atoms: O_6  and  C_7
REMARK    5  A    between atoms: C_9  and  S_10
REMARK    6  A    between atoms: S_10  and  C_11
REMARK    7  A    between atoms: C_11  and  C_12
REMARK    8  A    between atoms: C_12  and  C_13
REMARK    9  A    between atoms: C_12  and  C_14
REMARK   10  A    between atoms: C_12  and  C_15
REMARK   11  A    between atoms: C_18  and  C_19
REMARK   12  A    between atoms: C_25  and  C_26
REMARK                            x       y       z     vdW  Elec       q    Type
REMARK                         _______ _______ _______ _____ _____    ______ ____
ROOT
ATOM      1  C   UNL     1      47.421   8.421  13.044  0.00  0.00    +0.000 A 
ATOM      2  C   UNL     1      46.740   7.228  13.307  0.00  0.00    +0.000 A 
ATOM      3  C   UNL     1      45.453   7.015  12.793  0.00  0.00    +0.000 A 
ATOM      4  C   UNL     1      44.841   8.017  12.035  0.00  0.00    +0.000 A 
ATOM      5  C   UNL     1      45.499   9.231  11.793  0.00  0.00    +0.000 A 
ATOM      6  C   UNL     1      46.796   9.416  12.295  0.00  0.00    +0.000 A 
ENDROOT
BRANCH   5   7
ATOM      7  C   UNL     1      44.833  10.359  11.047  0.00  0.00    +0.000 C 
ATOM      8  F   UNL     1      43.998  11.106  11.821  0.00  0.00    +0.000 F 
ATOM      9  F   UNL     1      45.731  11.234  10.517  0.00  0.00    +0.000 F 
ATOM     10  F   UNL     1      44.079   9.917  10.002  0.00  0.00    +0.000 F 
ENDBRANCH   5   7
BRANCH   1  11
ATOM     11  O   UNL     1      48.664   8.561  13.616  0.00  0.00    +0.000 OA
BRANCH  11  16
ATOM     12  C   UNL     1      52.012   8.063  10.681  0.00  0.00    +0.000 C 
ATOM     13  C   UNL     1      50.903   8.608  11.570  0.00  0.00    +0.000 C 
ATOM     14  C   UNL     1      50.394   9.964  11.095  0.00  0.00    +0.000 C 
ATOM     15  C   UNL     1      51.135   8.470  13.086  0.00  0.00    +0.000 C 
ATOM     16  C   UNL     1      49.761   7.775  13.091  0.00  0.00    +0.000 C 
ATOM     17  O   UNL     1      49.805   7.663  11.640  0.00  0.00    +0.000 OA
ENDBRANCH  11  16
ENDBRANCH   1  11
BRANCH   3  18
ATOM     18  S   UNL     1      44.526   5.551  13.222  0.00  0.00    +0.000 S 
BRANCH  18  19
ATOM     19  C   UNL     1      45.251   4.327  12.052  0.00  0.00    +0.000 C 
BRANCH  19  20
ATOM     20  C   UNL     1      44.311   3.829  10.893  0.00  0.00    +0.000 C 
ATOM     21  C   UNL     1      43.574   2.544  11.344  0.00  0.00    +0.000 C 
ATOM     22  C   UNL     1      43.266   4.926  10.578  0.00  0.00    +0.000 C 
BRANCH  20  23
ATOM     23  C   UNL     1      45.090   3.507   9.584  0.00  0.00    +0.000 A 
ATOM     24  C   UNL     1      45.630   4.509   8.761  0.00  0.00    +0.000 A 
ATOM     25  C   UNL     1      46.348   4.188   7.601  0.00  0.00    +0.000 A 
ATOM     26  C   UNL     1      46.553   2.857   7.232  0.00  0.00    +0.000 A 
ATOM     27  C   UNL     1      46.004   1.844   8.017  0.00  0.00    +0.000 A 
ATOM     28  C   UNL     1      45.281   2.168   9.176  0.00  0.00    +0.000 A 
BRANCH  26  29
ATOM     29  C   UNL     1      47.337   2.583   5.998  0.00  0.00    +0.000 C 
ATOM     30  N   UNL     1      48.690   2.433   6.125  0.00  0.00    +0.000 N 
ATOM     31  O   UNL     1      46.805   2.535   4.896  0.00  0.00    +0.000 OA
ATOM     32  H   UNL     1      49.194   2.705   6.955  0.00  0.00    +0.000 HD
ATOM     33  H   UNL     1      49.211   2.365   5.258  0.00  0.00    +0.000 HD
ENDBRANCH  26  29
ENDBRANCH  20  23
ENDBRANCH  19  20
ENDBRANCH  18  19
ENDBRANCH   3  18
TORSDOF 8
ENDMDL
MODEL 4
REMARK VINA RESULT:    -7.110      4.427      7.548
REMARK INTER + INTRA:         -11.551
REMARK INTER:                  -9.749
REMARK INTRA:                  -1.801
REMARK UNBOUND:                -1.116
REMARK  Name = 
REMARK  12 active torsions:
REMARK  status: ('A' for Active; 'I' for Inactive)
REMARK    1  A    between atoms: C_1  and  C_2
REMARK    2  A    between atoms: C_2  and  C_3
REMARK    3  A    between atoms: C_5  and  O_6
REMARK    4  A    between atoms: O_6  and  C_7
REMARK    5  A    between atoms: C_9  and  S_10
REMARK    6  A    between atoms: S_10  and  C_11
REMARK    7  A    between atoms: C_11  and  C_12
REMARK    8  A    between atoms: C_12  and  C_13
REMARK    9  A    between atoms: C_12  and  C_14
REMARK   10  A    between atoms: C_12  and  C_15
REMARK   11  A    between atoms: C_18  and  C_19
REMARK   12  A    between atoms: C_25  and  C_26
REMARK                            x       y       z     vdW  Elec       q    Type
REMARK                         _______ _______ _______ _____ _____    ______ ____
ROOT
ATOM      1  C   UNL     1      46.529   4.022  13.586  0.00  0.00    +0.000 A 
ATOM      2  C   UNL     1      46.652   5.407  13.437  0.00  0.00    +0.000 A 
ATOM      3  C   UNL     1      46.004   6.071  12.387  0.00  0.00    +0.000 A 
ATOM      4  C   UNL     1      45.251   5.334  11.468  0.00  0.00    +0.000 A 
ATOM      5  C   UNL     1      45.148   3.941  11.586  0.00  0.00    +0.000 A 
ATOM      6  C   UNL     1      45.783   3.297  12.658  0.00  0.00    +0.000 A 
ENDROOT
BRANCH   5   7
ATOM      7  C   UNL     1      44.410   3.112  10.566  0.00  0.00    +0.000 C 
ATOM      8  F   UNL     1      43.429   2.334  11.101  0.00  0.00    +0.000 F 
ATOM      9  F   UNL     1      43.803   3.875   9.616  0.00  0.00    +0.000 F 
ATOM     10  F   UNL     1      45.235   2.262   9.892  0.00  0.00    +0.000 F 
ENDBRANCH   5   7
BRANCH   1  11
ATOM     11  O   UNL     1      47.227   3.447  14.623  0.00  0.00    +0.000 OA
BRANCH  11  16
ATOM     12  C   UNL     1      48.549   3.641  18.899  0.00  0.00    +0.000 C 
ATOM     13  C   UNL     1      48.443   3.391  17.402  0.00  0.00    +0.000 C 
ATOM     14  C   UNL     1      49.377   2.281  16.932  0.00  0.00    +0.000 C 
ATOM     15  C   UNL     1      48.395   4.649  16.516  0.00  0.00    +0.000 C 
ATOM     16  C   UNL     1      47.108   4.028  15.944  0.00  0.00    +0.000 C 
ATOM     17  O   UNL     1      47.074   3.072  17.042  0.00  0.00    +0.000 OA
ENDBRANCH  11  16
ENDBRANCH   1  11
BRANCH   3  18
ATOM     18  S   UNL     1      46.252   7.818  12.114  0.00  0.00    +0.000 S 
BRANCH  18  19
ATOM     19  C   UNL     1      48.052   7.855  11.724  0.00  0.00    +0.000 C 
BRANCH  19  20
ATOM     20  C   UNL     1      48.903   8.952  12.464  0.00  0.00    +0.000 C 
ATOM     21  C   UNL     1      50.251   9.142  11.725  0.00  0.00    +0.000 C 
ATOM     22  C   UNL     1      48.128  10.291  12.453  0.00  0.00    +0.000 C 
BRANCH  20  23
ATOM     23  C   UNL     1      49.211   8.577  13.943  0.00  0.00    +0.000 A 
ATOM     24  C   UNL     1      50.324   7.803  14.310  0.00  0.00    +0.000 A 
ATOM     25  C   UNL     1      50.590   7.501  15.653  0.00  0.00    +0.000 A 
ATOM     26  C   UNL     1      49.753   7.968  16.669  0.00  0.00    +0.000 A 
ATOM     27  C   UNL     1      48.625   8.715  16.330  0.00  0.00    +0.000 A 
ATOM     28  C   UNL     1      48.360   9.012  14.984  0.00  0.00    +0.000 A 
BRANCH  26  29
ATOM     29  C   UNL     1      50.099   7.626  18.075  0.00  0.00    +0.000 C 
ATOM     30  N   UNL     1      50.976   6.598  18.282  0.00  0.00    +0.000 N 
ATOM     31  O   UNL     1      49.587   8.210  19.022  0.00  0.00    +0.000 OA
ATOM     32  H   UNL     1      51.226   5.940  17.560  0.00  0.00    +0.000 HD
ATOM     33  H   UNL     1      51.101   6.312  19.246  0.00  0.00    +0.000 HD
ENDBRANCH  26  29
ENDBRANCH  20  23
ENDBRANCH  19  20
ENDBRANCH  18  19
ENDBRANCH   3  18
TORSDOF 8
ENDMDL
MODEL 5
REMARK VINA RESULT:    -6.998      4.544      7.592
REMARK INTER + INTRA:         -11.386
REMARK INTER:                  -9.715
REMARK INTRA:                  -1.671
REMARK UNBOUND:                -1.116
REMARK  Name = 
REMARK  12 active torsions:
REMARK  status: ('A' for Active; 'I' for Inactive)
REMARK    1  A    between atoms: C_1  and  C_2
REMARK    2  A    between atoms: C_2  and  C_3
REMARK    3  A    between atoms: C_5  and  O_6
REMARK    4  A    between atoms: O_6  and  C_7
REMARK    5  A    between atoms: C_9  and  S_10
REMARK    6  A    between atoms: S_10  and  C_11
REMARK    7  A    between atoms: C_11  and  C_12
REMARK    8  A    between atoms: C_12  and  C_13
REMARK    9  A    between atoms: C_12  and  C_14
REMARK   10  A    between atoms: C_12  and  C_15
REMARK   11  A    between atoms: C_18  and  C_19
REMARK   12  A    between atoms: C_25  and  C_26
REMARK                            x       y       z     vdW  Elec       q    Type
REMARK                         _______ _______ _______ _____ _____    ______ ____
ROOT
ATOM      1  C   UNL     1      47.093   4.554  14.981  0.00  0.00    +0.000 A 
ATOM      2  C   UNL     1      47.673   5.791  14.679  0.00  0.00    +0.000 A 
ATOM      3  C   UNL     1      48.690   6.317  15.487  0.00  0.00    +0.000 A 
ATOM      4  C   UNL     1      49.106   5.607  16.618  0.00  0.00    +0.000 A 
ATOM      5  C   UNL     1      48.509   4.382  16.950  0.00  0.00    +0.000 A 
ATOM      6  C   UNL     1      47.510   3.861  16.116  0.00  0.00    +0.000 A 
ENDROOT
BRANCH   5   7
ATOM      7  C   UNL     1      48.881   3.635  18.206  0.00  0.00    +0.000 C 
ATOM      8  F   UNL     1      47.930   2.750  18.615  0.00  0.00    +0.000 F 
ATOM      9  F   UNL     1      50.025   2.911  18.060  0.00  0.00    +0.000 F 
ATOM     10  F   UNL     1      49.096   4.468  19.262  0.00  0.00    +0.000 F 
ENDBRANCH   5   7
BRANCH   1  11
ATOM     11  O   UNL     1      46.079   4.129  14.154  0.00  0.00    +0.000 OA
BRANCH  11  16
ATOM     12  C   UNL     1      43.405   4.923  10.648  0.00  0.00    +0.000 C 
ATOM     13  C   UNL     1      44.053   4.369  11.909  0.00  0.00    +0.000 C 
ATOM     14  C   UNL     1      43.587   2.952  12.225  0.00  0.00    +0.000 C 
ATOM     15  C   UNL     1      44.121   5.337  13.105  0.00  0.00    +0.000 C 
ATOM     16  C   UNL     1      45.626   5.014  13.101  0.00  0.00    +0.000 C 
ATOM     17  O   UNL     1      45.498   4.400  11.786  0.00  0.00    +0.000 OA
ENDBRANCH  11  16
ENDBRANCH   1  11
BRANCH   3  18
ATOM     18  S   UNL     1      49.351   7.947  15.185  0.00  0.00    +0.000 S 
BRANCH  18  19
ATOM     19  C   UNL     1      49.203   8.046  13.352  0.00  0.00    +0.000 C 
BRANCH  19  20
ATOM     20  C   UNL     1      48.930   9.473  12.750  0.00  0.00    +0.000 C 
ATOM     21  C   UNL     1      49.341  10.553  13.781  0.00  0.00    +0.000 C 
ATOM     22  C   UNL     1      49.773   9.654  11.465  0.00  0.00    +0.000 C 
BRANCH  20  23
ATOM     23  C   UNL     1      47.433   9.695  12.387  0.00  0.00    +0.000 A 
ATOM     24  C   UNL     1      46.955  10.907  11.860  0.00  0.00    +0.000 A 
ATOM     25  C   UNL     1      45.605  11.070  11.520  0.00  0.00    +0.000 A 
ATOM     26  C   UNL     1      44.694  10.026  11.691  0.00  0.00    +0.000 A 
ATOM     27  C   UNL     1      45.136   8.823  12.239  0.00  0.00    +0.000 A 
ATOM     28  C   UNL     1      46.488   8.663  12.583  0.00  0.00    +0.000 A 
BRANCH  26  29
ATOM     29  C   UNL     1      43.278  10.258  11.296  0.00  0.00    +0.000 C 
ATOM     30  N   UNL     1      42.517  11.060  12.100  0.00  0.00    +0.000 N 
ATOM     31  O   UNL     1      42.790   9.720  10.311  0.00  0.00    +0.000 OA
ATOM     32  H   UNL     1      42.796  11.319  13.034  0.00  0.00    +0.000 HD
ATOM     33  H   UNL     1      41.530  11.105  11.872  0.00  0.00    +0.000 HD
ENDBRANCH  26  29
ENDBRANCH  20  23
ENDBRANCH  19  20
ENDBRANCH  18  19
ENDBRANCH   3  18
TORSDOF 8
ENDMDL
MODEL 6
REMARK VINA RESULT:    -6.663      4.396      8.964
REMARK INTER + INTRA:         -10.895
REMARK INTER:                  -8.822
REMARK INTRA:                  -2.073
REMARK UNBOUND:                -1.116
REMARK  Name = 
REMARK  12 active torsions:
REMARK  status: ('A' for Active; 'I' for Inactive)
REMARK    1  A    between atoms: C_1  and  C_2
REMARK    2  A    between atoms: C_2  and  C_3
REMARK    3  A    between atoms: C_5  and  O_6
REMARK    4  A    between atoms: O_6  and  C_7
REMARK    5  A    between atoms: C_9  and  S_10
REMARK    6  A    between atoms: S_10  and  C_11
REMARK    7  A    between atoms: C_11  and  C_12
REMARK    8  A    between atoms: C_12  and  C_13
REMARK    9  A    between atoms: C_12  and  C_14
REMARK   10  A    between atoms: C_12  and  C_15
REMARK   11  A    between atoms: C_18  and  C_19
REMARK   12  A    between atoms: C_25  and  C_26
REMARK                            x       y       z     vdW  Elec       q    Type
REMARK                         _______ _______ _______ _____ _____    ______ ____
ROOT
ATOM      1  C   UNL     1      45.629   5.635  12.890  0.00  0.00    +0.000 A 
ATOM      2  C   UNL     1      46.424   6.758  12.639  0.00  0.00    +0.000 A 
ATOM      3  C   UNL     1      47.607   6.969  13.360  0.00  0.00    +0.000 A 
ATOM      4  C   UNL     1      47.977   6.059  14.355  0.00  0.00    +0.000 A 
ATOM      5  C   UNL     1      47.171   4.947  14.639  0.00  0.00    +0.000 A 
ATOM      6  C   UNL     1      46.004   4.740  13.890  0.00  0.00    +0.000 A 
ENDROOT
BRANCH   5   7
ATOM      7  C   UNL     1      47.503   3.994  15.759  0.00  0.00    +0.000 C 
ATOM      8  F   UNL     1      46.589   4.000  16.769  0.00  0.00    +0.000 F 
ATOM      9  F   UNL     1      47.582   2.702  15.336  0.00  0.00    +0.000 F 
ATOM     10  F   UNL     1      48.703   4.272  16.339  0.00  0.00    +0.000 F 
ENDBRANCH   5   7
BRANCH   1  11
ATOM     11  O   UNL     1      44.467   5.525  12.160  0.00  0.00    +0.000 OA
BRANCH  11  16
ATOM     12  C   UNL     1      44.547   2.552   8.809  0.00  0.00    +0.000 C 
ATOM     13  C   UNL     1      44.817   3.720   9.747  0.00  0.00    +0.000 C 
ATOM     14  C   UNL     1      45.601   4.838   9.069  0.00  0.00    +0.000 C 
ATOM     15  C   UNL     1      45.274   3.344  11.168  0.00  0.00    +0.000 C 
ATOM     16  C   UNL     1      44.102   4.228  11.629  0.00  0.00    +0.000 C 
ATOM     17  O   UNL     1      43.569   4.240  10.274  0.00  0.00    +0.000 OA
ENDBRANCH  11  16
ENDBRANCH   1  11
BRANCH   3  18
ATOM     18  S   UNL     1      48.565   8.458  13.136  0.00  0.00    +0.000 S 
BRANCH  18  19
ATOM     19  C   UNL     1      49.959   8.151  14.301  0.00  0.00    +0.000 C 
BRANCH  19  20
ATOM     20  C   UNL     1      49.832   8.802  15.727  0.00  0.00    +0.000 C 
ATOM     21  C   UNL     1      51.090   9.657  16.016  0.00  0.00    +0.000 C 
ATOM     22  C   UNL     1      48.582   9.713  15.761  0.00  0.00    +0.000 C 
BRANCH  20  23
ATOM     23  C   UNL     1      49.695   7.743  16.860  0.00  0.00    +0.000 A 
ATOM     24  C   UNL     1      50.739   6.869  17.207  0.00  0.00    +0.000 A 
ATOM     25  C   UNL     1      50.596   5.941  18.248  0.00  0.00    +0.000 A 
ATOM     26  C   UNL     1      49.408   5.863  18.976  0.00  0.00    +0.000 A 
ATOM     27  C   UNL     1      48.346   6.700  18.634  0.00  0.00    +0.000 A 
ATOM     28  C   UNL     1      48.490   7.625  17.589  0.00  0.00    +0.000 A 
BRANCH  26  29
ATOM     29  C   UNL     1      49.325   4.868  20.079  0.00  0.00    +0.000 C 
ATOM     30  N   UNL     1      48.523   3.777  19.893  0.00  0.00    +0.000 N 
ATOM     31  O   UNL     1      49.917   5.033  21.139  0.00  0.00    +0.000 OA
ATOM     32  H   UNL     1      47.837   3.724  19.155  0.00  0.00    +0.000 HD
ATOM     33  H   UNL     1      48.394   3.180  20.701  0.00  0.00    +0.000 HD
ENDBRANCH  26  29
ENDBRANCH  20  23
ENDBRANCH  19  20
ENDBRANCH  18  19
ENDBRANCH   3  18
TORSDOF 8
ENDMDL
MODEL 7
REMARK VINA RESULT:    -6.618      3.453      7.888
REMARK INTER + INTRA:         -10.828
REMARK INTER:                  -8.510
REMARK INTRA:                  -2.319
REMARK UNBOUND:                -1.116
REMARK  Name = 
REMARK  12 active torsions:
REMARK  status: ('A' for Active; 'I' for Inactive)
REMARK    1  A    between atoms: C_1  and  C_2
REMARK    2  A    between atoms: C_2  and  C_3
REMARK    3  A    between atoms: C_5  and  O_6
REMARK    4  A    between atoms: O_6  and  C_7
REMARK    5  A    between atoms: C_9  and  S_10
REMARK    6  A    between atoms: S_10  and  C_11
REMARK    7  A    between atoms: C_11  and  C_12
REMARK    8  A    between atoms: C_12  and  C_13
REMARK    9  A    between atoms: C_12  and  C_14
REMARK   10  A    between atoms: C_12  and  C_15
REMARK   11  A    between atoms: C_18  and  C_19
REMARK   12  A    between atoms: C_25  and  C_26
REMARK                            x       y       z     vdW  Elec       q    Type
REMARK                         _______ _______ _______ _____ _____    ______ ____
ROOT
ATOM      1  C   UNL     1      45.445   5.548  12.803  0.00  0.00    +0.000 A 
ATOM      2  C   UNL     1      45.767   4.723  13.885  0.00  0.00    +0.000 A 
ATOM      3  C   UNL     1      47.012   4.833  14.519  0.00  0.00    +0.000 A 
ATOM      4  C   UNL     1      47.946   5.760  14.045  0.00  0.00    +0.000 A 
ATOM      5  C   UNL     1      47.648   6.570  12.940  0.00  0.00    +0.000 A 
ATOM      6  C   UNL     1      46.388   6.462  12.334  0.00  0.00    +0.000 A 
ENDROOT
BRANCH   5   7
ATOM      7  C   UNL     1      48.663   7.520  12.357  0.00  0.00    +0.000 C 
ATOM      8  F   UNL     1      48.607   7.613  11.000  0.00  0.00    +0.000 F 
ATOM      9  F   UNL     1      48.514   8.790  12.824  0.00  0.00    +0.000 F 
ATOM     10  F   UNL     1      49.942   7.160  12.655  0.00  0.00    +0.000 F 
ENDBRANCH   5   7
BRANCH   1  11
ATOM     11  O   UNL     1      44.216   5.349  12.218  0.00  0.00    +0.000 OA
BRANCH  11  16
ATOM     12  C   UNL     1      44.448   2.374   8.877  0.00  0.00    +0.000 C 
ATOM     13  C   UNL     1      44.663   3.553   9.815  0.00  0.00    +0.000 C 
ATOM     14  C   UNL     1      45.415   4.697   9.144  0.00  0.00    +0.000 C 
ATOM     15  C   UNL     1      45.115   3.197  11.243  0.00  0.00    +0.000 C 
ATOM     16  C   UNL     1      43.905   4.039  11.687  0.00  0.00    +0.000 C 
ATOM     17  O   UNL     1      43.390   4.028  10.324  0.00  0.00    +0.000 OA
ENDBRANCH  11  16
ENDBRANCH   1  11
BRANCH   3  18
ATOM     18  S   UNL     1      47.482   3.704  15.820  0.00  0.00    +0.000 S 
BRANCH  18  19
ATOM     19  C   UNL     1      47.175   4.744  17.308  0.00  0.00    +0.000 C 
BRANCH  19  20
ATOM     20  C   UNL     1      48.449   5.291  18.052  0.00  0.00    +0.000 C 
ATOM     21  C   UNL     1      48.025   5.926  19.399  0.00  0.00    +0.000 C 
ATOM     22  C   UNL     1      49.419   4.118  18.329  0.00  0.00    +0.000 C 
BRANCH  20  23
ATOM     23  C   UNL     1      49.210   6.369  17.226  0.00  0.00    +0.000 A 
ATOM     24  C   UNL     1      50.471   6.132  16.654  0.00  0.00    +0.000 A 
ATOM     25  C   UNL     1      51.123   7.113  15.895  0.00  0.00    +0.000 A 
ATOM     26  C   UNL     1      50.530   8.359  15.680  0.00  0.00    +0.000 A 
ATOM     27  C   UNL     1      49.291   8.631  16.259  0.00  0.00    +0.000 A 
ATOM     28  C   UNL     1      48.643   7.647  17.023  0.00  0.00    +0.000 A 
BRANCH  26  29
ATOM     29  C   UNL     1      51.266   9.353  14.851  0.00  0.00    +0.000 C 
ATOM     30  N   UNL     1      50.912  10.667  14.971  0.00  0.00    +0.000 N 
ATOM     31  O   UNL     1      52.130   9.010  14.055  0.00  0.00    +0.000 OA
ATOM     32  H   UNL     1      50.058  10.964  15.418  0.00  0.00    +0.000 HD
ATOM     33  H   UNL     1      51.346  11.304  14.313  0.00  0.00    +0.000 HD
ENDBRANCH  26  29
ENDBRANCH  20  23
ENDBRANCH  19  20
ENDBRANCH  18  19
ENDBRANCH   3  18
TORSDOF 8
ENDMDL
MODEL 8
REMARK VINA RESULT:    -6.602      4.865      8.339
REMARK INTER + INTRA:         -10.805
REMARK INTER:                  -9.754
REMARK INTRA:                  -1.050
REMARK UNBOUND:                -1.116
REMARK  Name = 
REMARK  12 active torsions:
REMARK  status: ('A' for Active; 'I' for Inactive)
REMARK    1  A    between atoms: C_1  and  C_2
REMARK    2  A    between atoms: C_2  and  C_3
REMARK    3  A    between atoms: C_5  and  O_6
REMARK    4  A    between atoms: O_6  and  C_7
REMARK    5  A    between atoms: C_9  and  S_10
REMARK    6  A    between atoms: S_10  and  C_11
REMARK    7  A    between atoms: C_11  and  C_12
REMARK    8  A    between atoms: C_12  and  C_13
REMARK    9  A    between atoms: C_12  and  C_14
REMARK   10  A    between atoms: C_12  and  C_15
REMARK   11  A    between atoms: C_18  and  C_19
REMARK   12  A    between atoms: C_25  and  C_26
REMARK                            x       y       z     vdW  Elec       q    Type
REMARK                         _______ _______ _______ _____ _____    ______ ____
ROOT
ATOM      1  C   UNL     1      46.615   6.733  12.013  0.00  0.00    +0.000 A 
ATOM      2  C   UNL     1      47.149   5.861  12.968  0.00  0.00    +0.000 A 
ATOM      3  C   UNL     1      46.544   4.623  13.220  0.00  0.00    +0.000 A 
ATOM      4  C   UNL     1      45.381   4.272  12.527  0.00  0.00    +0.000 A 
ATOM      5  C   UNL     1      44.816   5.151  11.592  0.00  0.00    +0.000 A 
ATOM      6  C   UNL     1      45.450   6.376  11.336  0.00  0.00    +0.000 A 
ENDROOT
BRANCH   5   7
ATOM      7  C   UNL     1      43.521   4.835  10.889  0.00  0.00    +0.000 C 
ATOM      8  F   UNL     1      42.578   5.809  11.018  0.00  0.00    +0.000 F 
ATOM      9  F   UNL     1      43.687   4.653   9.550  0.00  0.00    +0.000 F 
ATOM     10  F   UNL     1      42.943   3.692  11.353  0.00  0.00    +0.000 F 
ENDBRANCH   5   7
BRANCH   1  11
ATOM     11  O   UNL     1      47.253   7.941  11.855  0.00  0.00    +0.000 OA
BRANCH  11  16
ATOM     12  C   UNL     1      51.055  10.296  12.126  0.00  0.00    +0.000 C 
ATOM     13  C   UNL     1      49.618   9.840  11.913  0.00  0.00    +0.000 C 
ATOM     14  C   UNL     1      48.842  10.780  10.998  0.00  0.00    +0.000 C 
ATOM     15  C   UNL     1      48.875   9.362  13.174  0.00  0.00    +0.000 C 
ATOM     16  C   UNL     1      48.602   8.085  12.361  0.00  0.00    +0.000 C 
ATOM     17  O   UNL     1      49.594   8.492  11.375  0.00  0.00    +0.000 OA
ENDBRANCH  11  16
ENDBRANCH   1  11
BRANCH   3  18
ATOM     18  S   UNL     1      47.142   3.556  14.520  0.00  0.00    +0.000 S 
BRANCH  18  19
ATOM     19  C   UNL     1      47.850   4.795  15.685  0.00  0.00    +0.000 C 
BRANCH  19  20
ATOM     20  C   UNL     1      48.092   4.306  17.161  0.00  0.00    +0.000 C 
ATOM     21  C   UNL     1      47.980   5.511  18.127  0.00  0.00    +0.000 C 
ATOM     22  C   UNL     1      47.016   3.258  17.532  0.00  0.00    +0.000 C 
BRANCH  20  23
ATOM     23  C   UNL     1      49.494   3.657  17.356  0.00  0.00    +0.000 A 
ATOM     24  C   UNL     1      50.603   4.382  17.823  0.00  0.00    +0.000 A 
ATOM     25  C   UNL     1      51.848   3.766  18.012  0.00  0.00    +0.000 A 
ATOM     26  C   UNL     1      52.019   2.407  17.746  0.00  0.00    +0.000 A 
ATOM     27  C   UNL     1      50.942   1.670  17.255  0.00  0.00    +0.000 A 
ATOM     28  C   UNL     1      49.697   2.290  17.062  0.00  0.00    +0.000 A 
BRANCH  26  29
ATOM     29  C   UNL     1      53.361   1.809  17.983  0.00  0.00    +0.000 C 
ATOM     30  N   UNL     1      53.900   1.933  19.233  0.00  0.00    +0.000 N 
ATOM     31  O   UNL     1      53.988   1.262  17.085  0.00  0.00    +0.000 OA
ATOM     32  H   UNL     1      53.541   2.576  19.922  0.00  0.00    +0.000 HD
ATOM     33  H   UNL     1      54.860   1.621  19.333  0.00  0.00    +0.000 HD
ENDBRANCH  26  29
ENDBRANCH  20  23
ENDBRANCH  19  20
ENDBRANCH  18  19
ENDBRANCH   3  18
TORSDOF 8
ENDMDL
MODEL 9
REMARK VINA RESULT:    -6.541      3.870      7.791
REMARK INTER + INTRA:         -10.716
REMARK INTER:                  -9.304
REMARK INTRA:                  -1.411
REMARK UNBOUND:                -1.116
REMARK  Name = 
REMARK  12 active torsions:
REMARK  status: ('A' for Active; 'I' for Inactive)
REMARK    1  A    between atoms: C_1  and  C_2
REMARK    2  A    between atoms: C_2  and  C_3
REMARK    3  A    between atoms: C_5  and  O_6
REMARK    4  A    between atoms: O_6  and  C_7
REMARK    5  A    between atoms: C_9  and  S_10
REMARK    6  A    between atoms: S_10  and  C_11
REMARK    7  A    between atoms: C_11  and  C_12
REMARK    8  A    between atoms: C_12  and  C_13
REMARK    9  A    between atoms: C_12  and  C_14
REMARK   10  A    between atoms: C_12  and  C_15
REMARK   11  A    between atoms: C_18  and  C_19
REMARK   12  A    between atoms: C_25  and  C_26
REMARK                            x       y       z     vdW  Elec       q    Type
REMARK                         _______ _______ _______ _____ _____    ______ ____
ROOT
ATOM      1  C   UNL     1      45.002   7.331  11.901  0.00  0.00    +0.000 A 
ATOM      2  C   UNL     1      46.231   7.848  12.324  0.00  0.00    +0.000 A 
ATOM      3  C   UNL     1      46.479   9.227  12.276  0.00  0.00    +0.000 A 
ATOM      4  C   UNL     1      45.494  10.085  11.776  0.00  0.00    +0.000 A 
ATOM      5  C   UNL     1      44.271   9.576  11.317  0.00  0.00    +0.000 A 
ATOM      6  C   UNL     1      44.033   8.196  11.396  0.00  0.00    +0.000 A 
ENDROOT
BRANCH   5   7
ATOM      7  C   UNL     1      43.223  10.467  10.699  0.00  0.00    +0.000 C 
ATOM      8  F   UNL     1      43.718  11.323   9.764  0.00  0.00    +0.000 F 
ATOM      9  F   UNL     1      42.242   9.759  10.075  0.00  0.00    +0.000 F 
ATOM     10  F   UNL     1      42.593  11.245  11.623  0.00  0.00    +0.000 F 
ENDBRANCH   5   7
BRANCH   1  11
ATOM     11  O   UNL     1      44.857   5.964  11.951  0.00  0.00    +0.000 OA
BRANCH  11  16
ATOM     12  C   UNL     1      44.439   2.217   9.531  0.00  0.00    +0.000 C 
ATOM     13  C   UNL     1      44.252   3.358  10.521  0.00  0.00    +0.000 C 
ATOM     14  C   UNL     1      43.334   2.978  11.677  0.00  0.00    +0.000 C 
ATOM     15  C   UNL     1      44.014   4.748   9.901  0.00  0.00    +0.000 C 
ATOM     16  C   UNL     1      45.200   5.188  10.777  0.00  0.00    +0.000 C 
ATOM     17  O   UNL     1      45.538   3.794  11.032  0.00  0.00    +0.000 OA
ENDBRANCH  11  16
ENDBRANCH   1  11
BRANCH   3  18
ATOM     18  S   UNL     1      48.083   9.886  12.695  0.00  0.00    +0.000 S 
BRANCH  18  19
ATOM     19  C   UNL     1      48.336   9.146  14.363  0.00  0.00    +0.000 C 
BRANCH  19  20
ATOM     20  C   UNL     1      49.352   7.948  14.447  0.00  0.00    +0.000 C 
ATOM     21  C   UNL     1      49.628   7.407  13.023  0.00  0.00    +0.000 C 
ATOM     22  C   UNL     1      50.680   8.449  15.064  0.00  0.00    +0.000 C 
BRANCH  20  23
ATOM     23  C   UNL     1      48.822   6.772  15.319  0.00  0.00    +0.000 A 
ATOM     24  C   UNL     1      48.042   5.731  14.788  0.00  0.00    +0.000 A 
ATOM     25  C   UNL     1      47.599   4.671  15.591  0.00  0.00    +0.000 A 
ATOM     26  C   UNL     1      47.926   4.619  16.948  0.00  0.00    +0.000 A 
ATOM     27  C   UNL     1      48.675   5.654  17.506  0.00  0.00    +0.000 A 
ATOM     28  C   UNL     1      49.114   6.716  16.700  0.00  0.00    +0.000 A 
BRANCH  26  29
ATOM     29  C   UNL     1      47.438   3.459  17.743  0.00  0.00    +0.000 C 
ATOM     30  N   UNL     1      48.231   3.007  18.760  0.00  0.00    +0.000 N 
ATOM     31  O   UNL     1      46.384   2.895  17.475  0.00  0.00    +0.000 OA
ATOM     32  H   UNL     1      49.199   3.274  18.857  0.00  0.00    +0.000 HD
ATOM     33  H   UNL     1      47.931   2.148  19.206  0.00  0.00    +0.000 HD
ENDBRANCH  26  29
ENDBRANCH  20  23
ENDBRANCH  19  20
ENDBRANCH  18  19
ENDBRANCH   3  18
TORSDOF 8
ENDMDL
