MODEL 1
REMARK VINA RESULT:    -6.605      0.000      0.000
REMARK INTER + INTRA:          -8.747
REMARK INTER:                  -8.343
REMARK INTRA:                  -0.404
REMARK UNBOUND:                -0.404
REMARK  Name = 
REMARK  5 active torsions:
REMARK  status: ('A' for Active; 'I' for Inactive)
REMARK    1  A    between atoms: N_1  and  C_2
REMARK    2  A    between atoms: C_2  and  C_3
REMARK    3  A    between atoms: N_6  and  C_7
REMARK    4  A    between atoms: C_7  and  C_8
REMARK    5  A    between atoms: C_14  and  C_15
REMARK                            x       y       z     vdW  Elec       q    Type
REMARK                         _______ _______ _______ _____ _____    ______ ____
ROOT
ATOM      1  C   UNL     1      44.022   5.216  11.347  0.00  0.00    +0.000 A 
ATOM      2  C   UNL     1      43.119   4.523  12.132  0.00  0.00    +0.000 A 
ATOM      3  N   UNL     1      43.080   3.219  11.714  0.00  0.00    +0.000 N 
ATOM      4  C   UNL     1      43.910   3.047  10.630  0.00  0.00    +0.000 A 
ATOM      5  C   UNL     1      44.120   1.925   9.817  0.00  0.00    +0.000 A 
ATOM      6  C   UNL     1      45.005   2.060   8.741  0.00  0.00    +0.000 A 
ATOM      7  C   UNL     1      45.696   3.258   8.521  0.00  0.00    +0.000 A 
ATOM      8  C   UNL     1      45.528   4.339   9.395  0.00  0.00    +0.000 A 
ATOM      9  C   UNL     1      44.569   4.260  10.426  0.00  0.00    +0.000 A 
ATOM     10  H   UNL     1      42.484   2.501  12.101  0.00  0.00    +0.000 HD
ENDROOT
BRANCH   7  11
ATOM     11  C   UNL     1      46.570   3.368   7.319  0.00  0.00    +0.000 C 
ATOM     12  N   UNL     1      47.463   2.350   7.114  0.00  0.00    +0.000 N 
ATOM     13  O   UNL     1      46.547   4.341   6.585  0.00  0.00    +0.000 OA
ATOM     14  H   UNL     1      47.682   1.669   7.827  0.00  0.00    +0.000 HD
ATOM     15  H   UNL     1      48.149   2.500   6.384  0.00  0.00    +0.000 HD
ENDBRANCH   7  11
BRANCH   1  16
ATOM     16  C   UNL     1      44.302   6.694  11.360  0.00  0.00    +0.000 C 
BRANCH  16  20
ATOM     17  C   UNL     1      48.007   7.937  13.175  0.00  0.00    +0.000 C 
ATOM     18  C   UNL     1      47.431   6.558  13.530  0.00  0.00    +0.000 C 
ATOM     19  C   UNL     1      46.301   6.109  12.600  0.00  0.00    +0.000 C 
ATOM     20  N   UNL     1      45.229   7.100  12.438  0.00  0.00    +0.000 NA
ATOM     21  C   UNL     1      45.752   8.444  12.119  0.00  0.00    +0.000 C 
ATOM     22  C   UNL     1      46.834   8.921  13.088  0.00  0.00    +0.000 C 
BRANCH  17  23
ATOM     23  C   UNL     1      48.872   7.892  11.899  0.00  0.00    +0.000 C 
BRANCH  23  24
ATOM     24  N   UNL     1      50.158   7.232  12.125  0.00  0.00    +0.000 NA
ATOM     25  H   UNL     1      50.848   7.923  12.418  0.00  0.00    +0.000 HD
ATOM     26  H   UNL     1      50.505   6.845  11.247  0.00  0.00    +0.000 HD
ENDBRANCH  23  24
ENDBRANCH  17  23
ENDBRANCH  16  20
ENDBRANCH   1  16
TORSDOF 5
ENDMDL
MODEL 2
REMARK VINA RESULT:    -6.435      3.407      4.989
REMARK INTER + INTRA:          -8.532
REMARK INTER:                  -8.193
REMARK INTRA:                  -0.340
REMARK UNBOUND:                -0.404
REMARK  Name = 
REMARK  5 active torsions:
REMARK  status: ('A' for Active; 'I' for Inactive)
REMARK    1  A    between atoms: N_1  and  C_2
REMARK    2  A    between atoms: C_2  and  C_3
REMARK    3  A    between atoms: N_6  and  C_7
REMARK    4  A    between atoms: C_7  and  C_8
REMARK    5  A    between atoms: C_14  and  C_15
REMARK                            x       y       z     vdW  Elec       q    Type
REMARK                         _______ _______ _______ _____ _____    ______ ____
ROOT
ATOM      1  C   UNL     1      46.661   6.511  13.347  0.00  0.00    +0.000 A 
ATOM      2  C   UNL     1      46.451   7.874  13.255  0.00  0.00    +0.000 A 
ATOM      3  N   UNL     1      45.293   8.097  12.558  0.00  0.00    +0.000 N 
ATOM      4  C   UNL     1      44.755   6.900  12.143  0.00  0.00    +0.000 A 
ATOM      5  C   UNL     1      43.645   6.638  11.331  0.00  0.00    +0.000 A 
ATOM      6  C   UNL     1      43.358   5.300  11.036  0.00  0.00    +0.000 A 
ATOM      7  C   UNL     1      44.122   4.261  11.582  0.00  0.00    +0.000 A 
ATOM      8  C   UNL     1      45.179   4.547  12.456  0.00  0.00    +0.000 A 
ATOM      9  C   UNL     1      45.548   5.889  12.687  0.00  0.00    +0.000 A 
ATOM     10  H   UNL     1      44.920   9.007  12.325  0.00  0.00    +0.000 HD
ENDROOT
BRANCH   7  11
ATOM     11  C   UNL     1      43.816   2.860  11.178  0.00  0.00    +0.000 C 
ATOM     12  N   UNL     1      44.488   2.375  10.087  0.00  0.00    +0.000 N 
ATOM     13  O   UNL     1      42.967   2.192  11.741  0.00  0.00    +0.000 OA
ATOM     14  H   UNL     1      44.999   2.974   9.454  0.00  0.00    +0.000 HD
ATOM     15  H   UNL     1      44.171   1.480   9.731  0.00  0.00    +0.000 HD
ENDBRANCH   7  11
BRANCH   1  16
ATOM     16  C   UNL     1      47.862   5.805  13.915  0.00  0.00    +0.000 C 
BRANCH  16  20
ATOM     17  C   UNL     1      48.691   3.669  17.564  0.00  0.00    +0.000 C 
ATOM     18  C   UNL     1      47.459   3.276  16.737  0.00  0.00    +0.000 C 
ATOM     19  C   UNL     1      47.447   3.881  15.330  0.00  0.00    +0.000 C 
ATOM     20  N   UNL     1      47.658   5.335  15.302  0.00  0.00    +0.000 NA
ATOM     21  C   UNL     1      48.824   5.747  16.109  0.00  0.00    +0.000 C 
ATOM     22  C   UNL     1      48.802   5.198  17.536  0.00  0.00    +0.000 C 
BRANCH  17  23
ATOM     23  C   UNL     1      49.967   2.949  17.081  0.00  0.00    +0.000 C 
BRANCH  23  24
ATOM     24  N   UNL     1      49.663   1.745  16.307  0.00  0.00    +0.000 NA
ATOM     25  H   UNL     1      49.037   1.983  15.539  0.00  0.00    +0.000 HD
ATOM     26  H   UNL     1      49.152   1.081  16.889  0.00  0.00    +0.000 HD
ENDBRANCH  23  24
ENDBRANCH  17  23
ENDBRANCH  16  20
ENDBRANCH   1  16
TORSDOF 5
ENDMDL
MODEL 3
REMARK VINA RESULT:    -6.355      4.112      5.580
REMARK INTER + INTRA:          -8.431
REMARK INTER:                  -8.516
REMARK INTRA:                   0.086
REMARK UNBOUND:                -0.404
REMARK  Name = 
REMARK  5 active torsions:
REMARK  status: ('A' for Active; 'I' for Inactive)
REMARK    1  A    between atoms: N_1  and  C_2
REMARK    2  A    between atoms: C_2  and  C_3
REMARK    3  A    between atoms: N_6  and  C_7
REMARK    4  A    between atoms: C_7  and  C_8
REMARK    5  A    between atoms: C_14  and  C_15
REMARK                            x       y       z     vdW  Elec       q    Type
REMARK                         _______ _______ _______ _____ _____    ______ ____
ROOT
ATOM      1  C   UNL     1      47.029   5.325  14.112  0.00  0.00    +0.000 A 
ATOM      2  C   UNL     1      47.759   6.471  13.855  0.00  0.00    +0.000 A 
ATOM      3  N   UNL     1      47.468   6.905  12.588  0.00  0.00    +0.000 N 
ATOM      4  C   UNL     1      46.590   6.035  11.983  0.00  0.00    +0.000 A 
ATOM      5  C   UNL     1      46.090   6.016  10.674  0.00  0.00    +0.000 A 
ATOM      6  C   UNL     1      45.233   4.966  10.322  0.00  0.00    +0.000 A 
ATOM      7  C   UNL     1      44.847   4.004  11.263  0.00  0.00    +0.000 A 
ATOM      8  C   UNL     1      45.298   4.091  12.586  0.00  0.00    +0.000 A 
ATOM      9  C   UNL     1      46.240   5.081  12.938  0.00  0.00    +0.000 A 
ATOM     10  H   UNL     1      47.884   7.708  12.138  0.00  0.00    +0.000 HD
ENDROOT
BRANCH   7  11
ATOM     11  C   UNL     1      43.991   2.870  10.815  0.00  0.00    +0.000 C 
ATOM     12  N   UNL     1      44.415   2.178   9.711  0.00  0.00    +0.000 N 
ATOM     13  O   UNL     1      42.932   2.602  11.355  0.00  0.00    +0.000 OA
ATOM     14  H   UNL     1      45.139   2.527   9.098  0.00  0.00    +0.000 HD
ATOM     15  H   UNL     1      43.760   1.508   9.327  0.00  0.00    +0.000 HD
ENDBRANCH   7  11
BRANCH   1  16
ATOM     16  C   UNL     1      47.117   4.436  15.322  0.00  0.00    +0.000 C 
BRANCH  16  20
ATOM     17  C   UNL     1      49.738   4.818  18.721  0.00  0.00    +0.000 C 
ATOM     18  C   UNL     1      49.610   5.997  17.745  0.00  0.00    +0.000 C 
ATOM     19  C   UNL     1      48.434   5.863  16.774  0.00  0.00    +0.000 C 
ATOM     20  N   UNL     1      48.391   4.580  16.058  0.00  0.00    +0.000 NA
ATOM     21  C   UNL     1      48.535   3.426  16.968  0.00  0.00    +0.000 C 
ATOM     22  C   UNL     1      49.750   3.528  17.892  0.00  0.00    +0.000 C 
BRANCH  17  23
ATOM     23  C   UNL     1      48.644   4.844  19.807  0.00  0.00    +0.000 C 
BRANCH  23  24
ATOM     24  N   UNL     1      48.540   3.570  20.519  0.00  0.00    +0.000 NA
ATOM     25  H   UNL     1      47.601   3.191  20.404  0.00  0.00    +0.000 HD
ATOM     26  H   UNL     1      48.659   3.725  21.521  0.00  0.00    +0.000 HD
ENDBRANCH  23  24
ENDBRANCH  17  23
ENDBRANCH  16  20
ENDBRANCH   1  16
TORSDOF 5
ENDMDL
MODEL 4
REMARK VINA RESULT:    -6.022      2.132      6.439
REMARK INTER + INTRA:          -8.011
REMARK INTER:                  -7.513
REMARK INTRA:                  -0.497
REMARK UNBOUND:                -0.404
REMARK  Name = 
REMARK  5 active torsions:
REMARK  status: ('A' for Active; 'I' for Inactive)
REMARK    1  A    between atoms: N_1  and  C_2
REMARK    2  A    between atoms: C_2  and  C_3
REMARK    3  A    between atoms: N_6  and  C_7
REMARK    4  A    between atoms: C_7  and  C_8
REMARK    5  A    between atoms: C_14  and  C_15
REMARK                            x       y       z     vdW  Elec       q    Type
REMARK                         _______ _______ _______ _____ _____    ______ ____
ROOT
ATOM      1  C   UNL     1      45.935   6.646  12.290  0.00  0.00    +0.000 A 
ATOM      2  C   UNL     1      44.896   7.490  12.634  0.00  0.00    +0.000 A 
ATOM      3  N   UNL     1      45.368   8.776  12.675  0.00  0.00    +0.000 N 
ATOM      4  C   UNL     1      46.718   8.791  12.409  0.00  0.00    +0.000 A 
ATOM      5  C   UNL     1      47.636   9.850  12.434  0.00  0.00    +0.000 A 
ATOM      6  C   UNL     1      48.976   9.554  12.160  0.00  0.00    +0.000 A 
ATOM      7  C   UNL     1      49.372   8.254  11.817  0.00  0.00    +0.000 A 
ATOM      8  C   UNL     1      48.422   7.230  11.721  0.00  0.00    +0.000 A 
ATOM      9  C   UNL     1      47.084   7.483  12.090  0.00  0.00    +0.000 A 
ATOM     10  H   UNL     1      44.823   9.589  12.926  0.00  0.00    +0.000 HD
ENDROOT
BRANCH   7  11
ATOM     11  C   UNL     1      50.821   7.982  11.604  0.00  0.00    +0.000 C 
ATOM     12  N   UNL     1      51.645   8.158  12.685  0.00  0.00    +0.000 N 
ATOM     13  O   UNL     1      51.273   7.680  10.514  0.00  0.00    +0.000 OA
ATOM     14  H   UNL     1      51.348   8.645  13.519  0.00  0.00    +0.000 HD
ATOM     15  H   UNL     1      52.639   8.114  12.499  0.00  0.00    +0.000 HD
ENDBRANCH   7  11
BRANCH   1  16
ATOM     16  C   UNL     1      45.916   5.142  12.244  0.00  0.00    +0.000 C 
BRANCH  16  20
ATOM     17  C   UNL     1      44.632   2.846   8.831  0.00  0.00    +0.000 C 
ATOM     18  C   UNL     1      44.597   4.379   8.751  0.00  0.00    +0.000 C 
ATOM     19  C   UNL     1      45.360   5.069   9.886  0.00  0.00    +0.000 C 
ATOM     20  N   UNL     1      44.986   4.604  11.229  0.00  0.00    +0.000 NA
ATOM     21  C   UNL     1      44.988   3.131  11.331  0.00  0.00    +0.000 C 
ATOM     22  C   UNL     1      44.170   2.443  10.237  0.00  0.00    +0.000 C 
BRANCH  17  23
ATOM     23  C   UNL     1      46.014   2.278   8.450  0.00  0.00    +0.000 C 
BRANCH  23  24
ATOM     24  N   UNL     1      46.010   0.817   8.373  0.00  0.00    +0.000 NA
ATOM     25  H   UNL     1      46.960   0.481   8.217  0.00  0.00    +0.000 HD
ATOM     26  H   UNL     1      45.470   0.516   7.562  0.00  0.00    +0.000 HD
ENDBRANCH  23  24
ENDBRANCH  17  23
ENDBRANCH  16  20
ENDBRANCH   1  16
TORSDOF 5
ENDMDL
MODEL 5
REMARK VINA RESULT:    -5.679      2.645      6.694
REMARK INTER + INTRA:          -7.578
REMARK INTER:                  -7.142
REMARK INTRA:                  -0.436
REMARK UNBOUND:                -0.404
REMARK  Name = 
REMARK  5 active torsions:
REMARK  status: ('A' for Active; 'I' for Inactive)
REMARK    1  A    between atoms: N_1  and  C_2
REMARK    2  A    between atoms: C_2  and  C_3
REMARK    3  A    between atoms: N_6  and  C_7
REMARK    4  A    between atoms: C_7  and  C_8
REMARK    5  A    between atoms: C_14  and  C_15
REMARK                            x       y       z     vdW  Elec       q    Type
REMARK                         _______ _______ _______ _____ _____    ______ ____
ROOT
ATOM      1  C   UNL     1      46.963   7.931  12.675  0.00  0.00    +0.000 A 
ATOM      2  C   UNL     1      46.324   9.067  13.135  0.00  0.00    +0.000 A 
ATOM      3  N   UNL     1      47.149  10.144  12.947  0.00  0.00    +0.000 N 
ATOM      4  C   UNL     1      48.348   9.732  12.411  0.00  0.00    +0.000 A 
ATOM      5  C   UNL     1      49.517  10.455  12.140  0.00  0.00    +0.000 A 
ATOM      6  C   UNL     1      50.613   9.749  11.630  0.00  0.00    +0.000 A 
ATOM      7  C   UNL     1      50.522   8.380  11.349  0.00  0.00    +0.000 A 
ATOM      8  C   UNL     1      49.316   7.697  11.554  0.00  0.00    +0.000 A 
ATOM      9  C   UNL     1      48.231   8.364  12.160  0.00  0.00    +0.000 A 
ATOM     10  H   UNL     1      46.938  11.094  13.219  0.00  0.00    +0.000 HD
ENDROOT
BRANCH   7  11
ATOM     11  C   UNL     1      51.740   7.665  10.874  0.00  0.00    +0.000 C 
ATOM     12  N   UNL     1      52.826   7.681  11.710  0.00  0.00    +0.000 N 
ATOM     13  O   UNL     1      51.802   7.145   9.774  0.00  0.00    +0.000 OA
ATOM     14  H   UNL     1      52.893   8.307  12.500  0.00  0.00    +0.000 HD
ATOM     15  H   UNL     1      53.691   7.322  11.322  0.00  0.00    +0.000 HD
ENDBRANCH   7  11
BRANCH   1  16
ATOM     16  C   UNL     1      46.493   6.506  12.788  0.00  0.00    +0.000 C 
BRANCH  16  20
ATOM     17  C   UNL     1      43.332   4.219  10.959  0.00  0.00    +0.000 C 
ATOM     18  C   UNL     1      44.222   5.100  10.070  0.00  0.00    +0.000 C 
ATOM     19  C   UNL     1      45.482   5.606  10.776  0.00  0.00    +0.000 C 
ATOM     20  N   UNL     1      45.225   6.254  12.069  0.00  0.00    +0.000 NA
ATOM     21  C   UNL     1      44.352   5.441  12.939  0.00  0.00    +0.000 C 
ATOM     22  C   UNL     1      43.060   4.991  12.256  0.00  0.00    +0.000 C 
BRANCH  17  23
ATOM     23  C   UNL     1      43.945   2.822  11.189  0.00  0.00    +0.000 C 
BRANCH  23  24
ATOM     24  N   UNL     1      43.026   1.922  11.886  0.00  0.00    +0.000 NA
ATOM     25  H   UNL     1      43.433   0.989  11.932  0.00  0.00    +0.000 HD
ATOM     26  H   UNL     1      42.165   1.827  11.349  0.00  0.00    +0.000 HD
ENDBRANCH  23  24
ENDBRANCH  17  23
ENDBRANCH  16  20
ENDBRANCH   1  16
TORSDOF 5
ENDMDL
MODEL 6
REMARK VINA RESULT:    -5.674      3.545      5.649
REMARK INTER + INTRA:          -7.571
REMARK INTER:                  -7.069
REMARK INTRA:                  -0.502
REMARK UNBOUND:                -0.404
REMARK  Name = 
REMARK  5 active torsions:
REMARK  status: ('A' for Active; 'I' for Inactive)
REMARK    1  A    between atoms: N_1  and  C_2
REMARK    2  A    between atoms: C_2  and  C_3
REMARK    3  A    between atoms: N_6  and  C_7
REMARK    4  A    between atoms: C_7  and  C_8
REMARK    5  A    between atoms: C_14  and  C_15
REMARK                            x       y       z     vdW  Elec       q    Type
REMARK                         _______ _______ _______ _____ _____    ______ ____
ROOT
ATOM      1  C   UNL     1      47.642   7.292  14.034  0.00  0.00    +0.000 A 
ATOM      2  C   UNL     1      47.585   8.663  14.196  0.00  0.00    +0.000 A 
ATOM      3  N   UNL     1      46.571   9.157  13.419  0.00  0.00    +0.000 N 
ATOM      4  C   UNL     1      45.984   8.137  12.705  0.00  0.00    +0.000 A 
ATOM      5  C   UNL     1      44.985   8.174  11.723  0.00  0.00    +0.000 A 
ATOM      6  C   UNL     1      44.614   6.962  11.129  0.00  0.00    +0.000 A 
ATOM      7  C   UNL     1      45.183   5.751  11.544  0.00  0.00    +0.000 A 
ATOM      8  C   UNL     1      46.121   5.733  12.584  0.00  0.00    +0.000 A 
ATOM      9  C   UNL     1      46.584   6.950  13.127  0.00  0.00    +0.000 A 
ATOM     10  H   UNL     1      46.328  10.134  13.330  0.00  0.00    +0.000 HD
ENDROOT
BRANCH   7  11
ATOM     11  C   UNL     1      44.802   4.501  10.829  0.00  0.00    +0.000 C 
ATOM     12  N   UNL     1      44.221   4.651   9.597  0.00  0.00    +0.000 N 
ATOM     13  O   UNL     1      44.936   3.399  11.330  0.00  0.00    +0.000 OA
ATOM     14  H   UNL     1      43.867   5.539   9.269  0.00  0.00    +0.000 HD
ATOM     15  H   UNL     1      43.834   3.811   9.183  0.00  0.00    +0.000 HD
ENDBRANCH   7  11
BRANCH   1  16
ATOM     16  C   UNL     1      48.671   6.346  14.593  0.00  0.00    +0.000 C 
BRANCH  16  20
ATOM     17  C   UNL     1      48.588   3.493  17.821  0.00  0.00    +0.000 C 
ATOM     18  C   UNL     1      47.318   3.705  16.985  0.00  0.00    +0.000 C 
ATOM     19  C   UNL     1      47.559   4.494  15.695  0.00  0.00    +0.000 C 
ATOM     20  N   UNL     1      48.277   5.761  15.893  0.00  0.00    +0.000 NA
ATOM     21  C   UNL     1      49.492   5.594  16.714  0.00  0.00    +0.000 C 
ATOM     22  C   UNL     1      49.239   4.865  18.035  0.00  0.00    +0.000 C 
BRANCH  17  23
ATOM     23  C   UNL     1      49.533   2.453  17.186  0.00  0.00    +0.000 C 
BRANCH  23  24
ATOM     24  N   UNL     1      50.775   2.298  17.944  0.00  0.00    +0.000 NA
ATOM     25  H   UNL     1      51.537   2.072  17.306  0.00  0.00    +0.000 HD
ATOM     26  H   UNL     1      50.694   1.502  18.577  0.00  0.00    +0.000 HD
ENDBRANCH  23  24
ENDBRANCH  17  23
ENDBRANCH  16  20
ENDBRANCH   1  16
TORSDOF 5
ENDMDL
MODEL 7
REMARK VINA RESULT:    -5.622      3.852      6.383
REMARK INTER + INTRA:          -7.505
REMARK INTER:                  -7.071
REMARK INTRA:                  -0.435
REMARK UNBOUND:                -0.404
REMARK  Name = 
REMARK  5 active torsions:
REMARK  status: ('A' for Active; 'I' for Inactive)
REMARK    1  A    between atoms: N_1  and  C_2
REMARK    2  A    between atoms: C_2  and  C_3
REMARK    3  A    between atoms: N_6  and  C_7
REMARK    4  A    between atoms: C_7  and  C_8
REMARK    5  A    between atoms: C_14  and  C_15
REMARK                            x       y       z     vdW  Elec       q    Type
REMARK                         _______ _______ _______ _____ _____    ______ ____
ROOT
ATOM      1  C   UNL     1      48.764   8.200  14.334  0.00  0.00    +0.000 A 
ATOM      2  C   UNL     1      48.246   9.417  13.933  0.00  0.00    +0.000 A 
ATOM      3  N   UNL     1      47.018   9.208  13.362  0.00  0.00    +0.000 N 
ATOM      4  C   UNL     1      46.734   7.862  13.337  0.00  0.00    +0.000 A 
ATOM      5  C   UNL     1      45.653   7.173  12.771  0.00  0.00    +0.000 A 
ATOM      6  C   UNL     1      45.653   5.777  12.862  0.00  0.00    +0.000 A 
ATOM      7  C   UNL     1      46.672   5.099  13.544  0.00  0.00    +0.000 A 
ATOM      8  C   UNL     1      47.699   5.816  14.170  0.00  0.00    +0.000 A 
ATOM      9  C   UNL     1      47.773   7.215  14.006  0.00  0.00    +0.000 A 
ATOM     10  H   UNL     1      46.432   9.927  12.960  0.00  0.00    +0.000 HD
ENDROOT
BRANCH   7  11
ATOM     11  C   UNL     1      46.659   3.609  13.549  0.00  0.00    +0.000 C 
ATOM     12  N   UNL     1      45.717   3.000  12.762  0.00  0.00    +0.000 N 
ATOM     13  O   UNL     1      47.401   2.955  14.261  0.00  0.00    +0.000 OA
ATOM     14  H   UNL     1      44.936   3.502  12.365  0.00  0.00    +0.000 HD
ATOM     15  H   UNL     1      45.618   1.999  12.881  0.00  0.00    +0.000 HD
ENDBRANCH   7  11
BRANCH   1  16
ATOM     16  C   UNL     1      50.133   7.928  14.896  0.00  0.00    +0.000 C 
BRANCH  16  20
ATOM     17  C   UNL     1      48.919   6.008  18.557  0.00  0.00    +0.000 C 
ATOM     18  C   UNL     1      48.635   7.505  18.375  0.00  0.00    +0.000 C 
ATOM     19  C   UNL     1      48.823   7.993  16.935  0.00  0.00    +0.000 C 
ATOM     20  N   UNL     1      50.118   7.627  16.344  0.00  0.00    +0.000 NA
ATOM     21  C   UNL     1      50.431   6.196  16.524  0.00  0.00    +0.000 C 
ATOM     22  C   UNL     1      50.308   5.723  17.973  0.00  0.00    +0.000 C 
BRANCH  17  23
ATOM     23  C   UNL     1      47.804   5.129  17.954  0.00  0.00    +0.000 C 
BRANCH  23  24
ATOM     24  N   UNL     1      46.516   5.339  18.615  0.00  0.00    +0.000 NA
ATOM     25  H   UNL     1      46.669   5.559  19.598  0.00  0.00    +0.000 HD
ATOM     26  H   UNL     1      45.977   4.473  18.602  0.00  0.00    +0.000 HD
ENDBRANCH  23  24
ENDBRANCH  17  23
ENDBRANCH  16  20
ENDBRANCH   1  16
TORSDOF 5
ENDMDL
MODEL 8
REMARK VINA RESULT:    -5.610      3.179      6.707
REMARK INTER + INTRA:          -7.490
REMARK INTER:                  -7.054
REMARK INTRA:                  -0.436
REMARK UNBOUND:                -0.404
REMARK  Name = 
REMARK  5 active torsions:
REMARK  status: ('A' for Active; 'I' for Inactive)
REMARK    1  A    between atoms: N_1  and  C_2
REMARK    2  A    between atoms: C_2  and  C_3
REMARK    3  A    between atoms: N_6  and  C_7
REMARK    4  A    between atoms: C_7  and  C_8
REMARK    5  A    between atoms: C_14  and  C_15
REMARK                            x       y       z     vdW  Elec       q    Type
REMARK                         _______ _______ _______ _____ _____    ______ ____
ROOT
ATOM      1  C   UNL     1      47.153   4.485  14.786  0.00  0.00    +0.000 A 
ATOM      2  C   UNL     1      46.964   4.069  16.090  0.00  0.00    +0.000 A 
ATOM      3  N   UNL     1      47.632   4.924  16.927  0.00  0.00    +0.000 N 
ATOM      4  C   UNL     1      48.302   5.875  16.192  0.00  0.00    +0.000 A 
ATOM      5  C   UNL     1      49.183   6.884  16.602  0.00  0.00    +0.000 A 
ATOM      6  C   UNL     1      49.759   7.686  15.609  0.00  0.00    +0.000 A 
ATOM      7  C   UNL     1      49.420   7.519  14.261  0.00  0.00    +0.000 A 
ATOM      8  C   UNL     1      48.476   6.555  13.885  0.00  0.00    +0.000 A 
ATOM      9  C   UNL     1      47.959   5.670  14.855  0.00  0.00    +0.000 A 
ATOM     10  H   UNL     1      47.682   4.835  17.933  0.00  0.00    +0.000 HD
ENDROOT
BRANCH   7  11
ATOM     11  C   UNL     1      50.115   8.353  13.240  0.00  0.00    +0.000 C 
ATOM     12  N   UNL     1      50.800   7.682  12.262  0.00  0.00    +0.000 N 
ATOM     13  O   UNL     1      50.136   9.570  13.300  0.00  0.00    +0.000 OA
ATOM     14  H   UNL     1      51.013   6.697  12.327  0.00  0.00    +0.000 HD
ATOM     15  H   UNL     1      51.387   8.249  11.661  0.00  0.00    +0.000 HD
ENDBRANCH   7  11
BRANCH   1  16
ATOM     16  C   UNL     1      46.710   3.786  13.529  0.00  0.00    +0.000 C 
BRANCH  16  20
ATOM     17  C   UNL     1      43.820   4.702  10.468  0.00  0.00    +0.000 C 
ATOM     18  C   UNL     1      44.694   5.834  11.027  0.00  0.00    +0.000 C 
ATOM     19  C   UNL     1      45.876   5.338  11.864  0.00  0.00    +0.000 C 
ATOM     20  N   UNL     1      45.504   4.389  12.922  0.00  0.00    +0.000 NA
ATOM     21  C   UNL     1      44.644   3.299  12.420  0.00  0.00    +0.000 C 
ATOM     22  C   UNL     1      43.425   3.797  11.641  0.00  0.00    +0.000 C 
BRANCH  17  23
ATOM     23  C   UNL     1      44.515   3.950   9.314  0.00  0.00    +0.000 C 
BRANCH  23  24
ATOM     24  N   UNL     1      45.280   4.849   8.450  0.00  0.00    +0.000 NA
ATOM     25  H   UNL     1      44.860   4.868   7.521  0.00  0.00    +0.000 HD
ATOM     26  H   UNL     1      46.224   4.483   8.322  0.00  0.00    +0.000 HD
ENDBRANCH  23  24
ENDBRANCH  17  23
ENDBRANCH  16  20
ENDBRANCH   1  16
TORSDOF 5
ENDMDL
MODEL 9
REMARK VINA RESULT:    -5.392      4.212      5.863
REMARK INTER + INTRA:          -7.215
REMARK INTER:                  -6.883
REMARK INTRA:                  -0.332
REMARK UNBOUND:                -0.404
REMARK  Name = 
REMARK  5 active torsions:
REMARK  status: ('A' for Active; 'I' for Inactive)
REMARK    1  A    between atoms: N_1  and  C_2
REMARK    2  A    between atoms: C_2  and  C_3
REMARK    3  A    between atoms: N_6  and  C_7
REMARK    4  A    between atoms: C_7  and  C_8
REMARK    5  A    between atoms: C_14  and  C_15
REMARK                            x       y       z     vdW  Elec       q    Type
REMARK                         _______ _______ _______ _____ _____    ______ ____
ROOT
ATOM      1  C   UNL     1      47.186   4.980  14.320  0.00  0.00    +0.000 A 
ATOM      2  C   UNL     1      47.098   3.602  14.260  0.00  0.00    +0.000 A 
ATOM      3  N   UNL     1      46.245   3.257  13.245  0.00  0.00    +0.000 N 
ATOM      4  C   UNL     1      45.727   4.391  12.660  0.00  0.00    +0.000 A 
ATOM      5  C   UNL     1      44.755   4.532  11.661  0.00  0.00    +0.000 A 
ATOM      6  C   UNL     1      44.389   5.832  11.292  0.00  0.00    +0.000 A 
ATOM      7  C   UNL     1      45.015   6.947  11.862  0.00  0.00    +0.000 A 
ATOM      8  C   UNL     1      46.040   6.777  12.801  0.00  0.00    +0.000 A 
ATOM      9  C   UNL     1      46.356   5.481  13.261  0.00  0.00    +0.000 A 
ATOM     10  H   UNL     1      45.982   2.313  13.000  0.00  0.00    +0.000 HD
ENDROOT
BRANCH   7  11
ATOM     11  C   UNL     1      44.537   8.307  11.483  0.00  0.00    +0.000 C 
ATOM     12  N   UNL     1      43.289   8.384  10.923  0.00  0.00    +0.000 N 
ATOM     13  O   UNL     1      45.235   9.298  11.601  0.00  0.00    +0.000 OA
ATOM     14  H   UNL     1      42.796   7.571  10.582  0.00  0.00    +0.000 HD
ATOM     15  H   UNL     1      43.030   9.285  10.536  0.00  0.00    +0.000 HD
ENDBRANCH   7  11
BRANCH   1  16
ATOM     16  C   UNL     1      47.906   5.808  15.349  0.00  0.00    +0.000 C 
BRANCH  16  20
ATOM     17  C   UNL     1      49.661   4.784  19.149  0.00  0.00    +0.000 C 
ATOM     18  C   UNL     1      50.582   5.003  17.940  0.00  0.00    +0.000 C 
ATOM     19  C   UNL     1      49.881   5.659  16.747  0.00  0.00    +0.000 C 
ATOM     20  N   UNL     1      48.634   4.993  16.345  0.00  0.00    +0.000 NA
ATOM     21  C   UNL     1      47.736   4.748  17.491  0.00  0.00    +0.000 C 
ATOM     22  C   UNL     1      48.419   4.031  18.657  0.00  0.00    +0.000 C 
BRANCH  17  23
ATOM     23  C   UNL     1      49.335   6.105  19.875  0.00  0.00    +0.000 C 
BRANCH  23  24
ATOM     24  N   UNL     1      50.535   6.892  20.159  0.00  0.00    +0.000 NA
ATOM     25  H   UNL     1      50.267   7.840  20.421  0.00  0.00    +0.000 HD
ATOM     26  H   UNL     1      51.095   6.984  19.311  0.00  0.00    +0.000 HD
ENDBRANCH  23  24
ENDBRANCH  17  23
ENDBRANCH  16  20
ENDBRANCH   1  16
TORSDOF 5
ENDMDL
