MODEL 1
REMARK VINA RESULT:    -7.821      0.000      0.000
REMARK INTER + INTRA:         -11.767
REMARK INTER:                 -10.565
REMARK INTRA:                  -1.202
REMARK UNBOUND:                -1.202
REMARK  Name = 
REMARK  7 active torsions:
REMARK  status: ('A' for Active; 'I' for Inactive)
REMARK    1  A    between atoms: C_1  and  C_2
REMARK    2  A    between atoms: C_2  and  N_3
REMARK    3  A    between atoms: C_2  and  C_16
REMARK    4  A    between atoms: C_4  and  C_6
REMARK    5  A    between atoms: C_19  and  C_20
REMARK    6  A    between atoms: C_20  and  N_21
REMARK    7  A    between atoms: C_22  and  C_24
REMARK                            x       y       z     vdW  Elec       q    Type
REMARK                         _______ _______ _______ _____ _____    ______ ____
ROOT
ATOM      1  C   UNL     1      47.269   8.892  13.841  0.00  0.00    +0.000 C 
ATOM      2  C   UNL     1      47.756   7.438  13.842  0.00  0.00    +0.000 C 
ENDROOT
BRANCH   2   3
ATOM      3  C   UNL     1      46.788   6.555  13.061  0.00  0.00    +0.000 A 
ATOM      4  C   UNL     1      46.238   6.992  11.849  0.00  0.00    +0.000 A 
ATOM      5  C   UNL     1      45.406   6.152  11.095  0.00  0.00    +0.000 A 
ATOM      6  C   UNL     1      45.097   4.858  11.539  0.00  0.00    +0.000 A 
ATOM      7  C   UNL     1      45.632   4.427  12.760  0.00  0.00    +0.000 A 
ATOM      8  C   UNL     1      46.460   5.266  13.513  0.00  0.00    +0.000 A 
BRANCH   6   9
ATOM      9  C   UNL     1      44.226   3.937  10.719  0.00  0.00    +0.000 C 
BRANCH   9  10
ATOM     10  N   UNL     1      45.006   3.040   9.903  0.00  0.00    +0.000 N 
ATOM     11  C   UNL     1      45.383   3.358   8.616  0.00  0.00    +0.000 C 
ATOM     12  O   UNL     1      45.091   4.431   8.089  0.00  0.00    +0.000 OA
ATOM     13  H   UNL     1      45.363   2.178  10.296  0.00  0.00    +0.000 HD
BRANCH  11  14
ATOM     14  C   UNL     1      46.145   2.316   7.950  0.00  0.00    +0.000 A 
ATOM     15  C   UNL     1      47.020   2.354   6.876  0.00  0.00    +0.000 A 
ATOM     16  C   UNL     1      47.442   1.021   6.652  0.00  0.00    +0.000 A 
ATOM     17  C   UNL     1      46.808   0.251   7.596  0.00  0.00    +0.000 A 
ATOM     18  O   UNL     1      46.027   1.023   8.394  0.00  0.00    +0.000 OA
ENDBRANCH  11  14
ENDBRANCH   9  10
ENDBRANCH   6   9
ENDBRANCH   2   3
BRANCH   2  19
ATOM     19  N   UNL     1      47.907   6.899  15.187  0.00  0.00    +0.000 N 
ATOM     20  C   UNL     1      49.123   6.609  15.754  0.00  0.00    +0.000 C 
ATOM     21  O   UNL     1      50.190   6.810  15.184  0.00  0.00    +0.000 OA
ATOM     22  H   UNL     1      47.095   6.411  15.553  0.00  0.00    +0.000 HD
BRANCH  20  23
ATOM     23  C   UNL     1      49.086   6.104  17.131  0.00  0.00    +0.000 A 
ATOM     24  C   UNL     1      49.557   4.828  17.411  0.00  0.00    +0.000 A 
ATOM     25  S   UNL     1      49.447   4.407  19.060  0.00  0.00    +0.000 S 
ATOM     26  C   UNL     1      48.727   5.898  19.449  0.00  0.00    +0.000 A 
ATOM     27  N   UNL     1      48.329   6.175  20.720  0.00  0.00    +0.000 NA
ATOM     28  C   UNL     1      47.764   7.328  20.861  0.00  0.00    +0.000 A 
ATOM     29  N   UNL     1      47.575   8.237  19.850  0.00  0.00    +0.000 N 
ATOM     30  C   UNL     1      48.000   8.019  18.563  0.00  0.00    +0.000 A 
ATOM     31  O   UNL     1      47.884   8.877  17.696  0.00  0.00    +0.000 OA
ATOM     32  C   UNL     1      48.605   6.720  18.342  0.00  0.00    +0.000 A 
ATOM     33  H   UNL     1      47.145   9.131  20.032  0.00  0.00    +0.000 HD
ENDBRANCH  20  23
ENDBRANCH   2  19
TORSDOF 6
ENDMDL
MODEL 2
REMARK VINA RESULT:    -7.816      1.335      1.875
REMARK INTER + INTRA:         -11.760
REMARK INTER:                 -10.727
REMARK INTRA:                  -1.032
REMARK UNBOUND:                -1.202
REMARK  Name = 
REMARK  7 active torsions:
REMARK  status: ('A' for Active; 'I' for Inactive)
REMARK    1  A    between atoms: C_1  and  C_2
REMARK    2  A    between atoms: C_2  and  N_3
REMARK    3  A    between atoms: C_2  and  C_16
REMARK    4  A    between atoms: C_4  and  C_6
REMARK    5  A    between atoms: C_19  and  C_20
REMARK    6  A    between atoms: C_20  and  N_21
REMARK    7  A    between atoms: C_22  and  C_24
REMARK                            x       y       z     vdW  Elec       q    Type
REMARK                         _______ _______ _______ _____ _____    ______ ____
ROOT
ATOM      1  C   UNL     1      47.272   9.185  13.226  0.00  0.00    +0.000 C 
ATOM      2  C   UNL     1      47.771   7.774  13.559  0.00  0.00    +0.000 C 
ENDROOT
BRANCH   2   3
ATOM      3  C   UNL     1      46.822   6.728  12.986  0.00  0.00    +0.000 A 
ATOM      4  C   UNL     1      46.017   7.020  11.877  0.00  0.00    +0.000 A 
ATOM      5  C   UNL     1      45.198   6.035  11.305  0.00  0.00    +0.000 A 
ATOM      6  C   UNL     1      45.157   4.737  11.835  0.00  0.00    +0.000 A 
ATOM      7  C   UNL     1      45.948   4.448  12.955  0.00  0.00    +0.000 A 
ATOM      8  C   UNL     1      46.763   5.432  13.526  0.00  0.00    +0.000 A 
BRANCH   6   9
ATOM      9  C   UNL     1      44.301   3.663  11.207  0.00  0.00    +0.000 C 
BRANCH   9  10
ATOM     10  N   UNL     1      45.047   2.850  10.280  0.00  0.00    +0.000 N 
ATOM     11  C   UNL     1      45.190   3.192   8.952  0.00  0.00    +0.000 C 
ATOM     12  O   UNL     1      44.703   4.219   8.480  0.00  0.00    +0.000 OA
ATOM     13  H   UNL     1      45.554   2.038  10.611  0.00  0.00    +0.000 HD
BRANCH  11  14
ATOM     14  C   UNL     1      45.957   2.235   8.175  0.00  0.00    +0.000 A 
ATOM     15  C   UNL     1      46.773   2.386   7.066  0.00  0.00    +0.000 A 
ATOM     16  C   UNL     1      47.236   1.092   6.724  0.00  0.00    +0.000 A 
ATOM     17  C   UNL     1      46.683   0.230   7.640  0.00  0.00    +0.000 A 
ATOM     18  O   UNL     1      45.914   0.909   8.529  0.00  0.00    +0.000 OA
ENDBRANCH  11  14
ENDBRANCH   9  10
ENDBRANCH   6   9
ENDBRANCH   2   3
BRANCH   2  19
ATOM     19  N   UNL     1      47.910   7.553  14.992  0.00  0.00    +0.000 N 
ATOM     20  C   UNL     1      49.077   7.143  15.585  0.00  0.00    +0.000 C 
ATOM     21  O   UNL     1      50.115   6.958  14.959  0.00  0.00    +0.000 OA
ATOM     22  H   UNL     1      47.044   7.360  15.488  0.00  0.00    +0.000 HD
BRANCH  20  23
ATOM     23  C   UNL     1      49.042   7.003  17.046  0.00  0.00    +0.000 A 
ATOM     24  C   UNL     1      49.260   8.113  17.851  0.00  0.00    +0.000 A 
ATOM     25  S   UNL     1      49.176   7.772  19.520  0.00  0.00    +0.000 S 
ATOM     26  C   UNL     1      48.890   6.121  19.223  0.00  0.00    +0.000 A 
ATOM     27  N   UNL     1      48.766   5.235  20.248  0.00  0.00    +0.000 NA
ATOM     28  C   UNL     1      48.589   4.012  19.875  0.00  0.00    +0.000 A 
ATOM     29  N   UNL     1      48.509   3.595  18.570  0.00  0.00    +0.000 N 
ATOM     30  C   UNL     1      48.584   4.459  17.506  0.00  0.00    +0.000 A 
ATOM     31  O   UNL     1      48.435   4.070  16.353  0.00  0.00    +0.000 OA
ATOM     32  C   UNL     1      48.823   5.841  17.870  0.00  0.00    +0.000 A 
ATOM     33  H   UNL     1      48.348   2.624  18.346  0.00  0.00    +0.000 HD
ENDBRANCH  20  23
ENDBRANCH   2  19
TORSDOF 6
ENDMDL
MODEL 3
REMARK VINA RESULT:    -7.249      2.919      4.428
REMARK INTER + INTRA:         -10.994
REMARK INTER:                  -9.827
REMARK INTRA:                  -1.166
REMARK UNBOUND:                -1.202
REMARK  Name = 
REMARK  7 active torsions:
REMARK  status: ('A' for Active; 'I' for Inactive)
REMARK    1  A    between atoms: C_1  and  C_2
REMARK    2  A    between atoms: C_2  and  N_3
REMARK    3  A    between atoms: C_2  and  C_16
REMARK    4  A    between atoms: C_4  and  C_6
REMARK    5  A    between atoms: C_19  and  C_20
REMARK    6  A    between atoms: C_20  and  N_21
REMARK    7  A    between atoms: C_22  and  C_24
REMARK                            x       y       z     vdW  Elec       q    Type
REMARK                         _______ _______ _______ _____ _____    ______ ____
ROOT
ATOM      1  C   UNL     1      47.527   3.875  15.679  0.00  0.00    +0.000 C 
ATOM      2  C   UNL     1      47.106   5.169  14.972  0.00  0.00    +0.000 C 
ENDROOT
BRANCH   2   3
ATOM      3  C   UNL     1      46.200   4.854  13.787  0.00  0.00    +0.000 A 
ATOM      4  C   UNL     1      45.452   5.864  13.167  0.00  0.00    +0.000 A 
ATOM      5  C   UNL     1      44.675   5.587  12.033  0.00  0.00    +0.000 A 
ATOM      6  C   UNL     1      44.621   4.292  11.496  0.00  0.00    +0.000 A 
ATOM      7  C   UNL     1      45.355   3.278  12.125  0.00  0.00    +0.000 A 
ATOM      8  C   UNL     1      46.128   3.554  13.259  0.00  0.00    +0.000 A 
BRANCH   6   9
ATOM      9  C   UNL     1      43.812   3.993  10.257  0.00  0.00    +0.000 C 
BRANCH   9  10
ATOM     10  N   UNL     1      44.604   3.360   9.233  0.00  0.00    +0.000 N 
ATOM     11  C   UNL     1      45.544   4.052   8.499  0.00  0.00    +0.000 C 
ATOM     12  O   UNL     1      45.775   5.246   8.682  0.00  0.00    +0.000 OA
ATOM     13  H   UNL     1      44.539   2.360   9.086  0.00  0.00    +0.000 HD
BRANCH  11  14
ATOM     14  C   UNL     1      46.223   3.245   7.500  0.00  0.00    +0.000 A 
ATOM     15  C   UNL     1      46.766   1.972   7.553  0.00  0.00    +0.000 A 
ATOM     16  C   UNL     1      47.324   1.716   6.277  0.00  0.00    +0.000 A 
ATOM     17  C   UNL     1      47.089   2.839   5.521  0.00  0.00    +0.000 A 
ATOM     18  O   UNL     1      46.416   3.768   6.246  0.00  0.00    +0.000 OA
ENDBRANCH  11  14
ENDBRANCH   9  10
ENDBRANCH   6   9
ENDBRANCH   2   3
BRANCH   2  19
ATOM     19  N   UNL     1      48.245   5.948  14.504  0.00  0.00    +0.000 N 
ATOM     20  C   UNL     1      48.915   6.855  15.286  0.00  0.00    +0.000 C 
ATOM     21  O   UNL     1      48.629   7.065  16.459  0.00  0.00    +0.000 OA
ATOM     22  H   UNL     1      48.304   6.068  13.497  0.00  0.00    +0.000 HD
BRANCH  20  23
ATOM     23  C   UNL     1      50.060   7.524  14.658  0.00  0.00    +0.000 A 
ATOM     24  C   UNL     1      51.291   7.534  15.300  0.00  0.00    +0.000 A 
ATOM     25  S   UNL     1      52.509   8.347  14.426  0.00  0.00    +0.000 S 
ATOM     26  C   UNL     1      51.422   8.751  13.181  0.00  0.00    +0.000 A 
ATOM     27  N   UNL     1      51.819   9.504  12.120  0.00  0.00    +0.000 NA
ATOM     28  C   UNL     1      50.881   9.765  11.272  0.00  0.00    +0.000 A 
ATOM     29  N   UNL     1      49.584   9.329  11.380  0.00  0.00    +0.000 N 
ATOM     30  C   UNL     1      49.150   8.531  12.409  0.00  0.00    +0.000 A 
ATOM     31  O   UNL     1      48.005   8.094  12.443  0.00  0.00    +0.000 OA
ATOM     32  C   UNL     1      50.157   8.242  13.411  0.00  0.00    +0.000 A 
ATOM     33  H   UNL     1      48.903   9.550  10.670  0.00  0.00    +0.000 HD
ENDBRANCH  20  23
ENDBRANCH   2  19
TORSDOF 6
ENDMDL
MODEL 4
REMARK VINA RESULT:    -7.126      3.890      8.806
REMARK INTER + INTRA:         -10.828
REMARK INTER:                  -9.778
REMARK INTRA:                  -1.050
REMARK UNBOUND:                -1.202
REMARK  Name = 
REMARK  7 active torsions:
REMARK  status: ('A' for Active; 'I' for Inactive)
REMARK    1  A    between atoms: C_1  and  C_2
REMARK    2  A    between atoms: C_2  and  N_3
REMARK    3  A    between atoms: C_2  and  C_16
REMARK    4  A    between atoms: C_4  and  C_6
REMARK    5  A    between atoms: C_19  and  C_20
REMARK    6  A    between atoms: C_20  and  N_21
REMARK    7  A    between atoms: C_22  and  C_24
REMARK                            x       y       z     vdW  Elec       q    Type
REMARK                         _______ _______ _______ _____ _____    ______ ____
ROOT
ATOM      1  C   UNL     1      49.344   7.408  13.086  0.00  0.00    +0.000 C 
ATOM      2  C   UNL     1      48.019   6.901  13.668  0.00  0.00    +0.000 C 
ENDROOT
BRANCH   2   3
ATOM      3  C   UNL     1      48.268   6.142  14.967  0.00  0.00    +0.000 A 
ATOM      4  C   UNL     1      47.504   5.015  15.297  0.00  0.00    +0.000 A 
ATOM      5  C   UNL     1      47.782   4.275  16.456  0.00  0.00    +0.000 A 
ATOM      6  C   UNL     1      48.823   4.650  17.317  0.00  0.00    +0.000 A 
ATOM      7  C   UNL     1      49.577   5.787  16.997  0.00  0.00    +0.000 A 
ATOM      8  C   UNL     1      49.298   6.526  15.842  0.00  0.00    +0.000 A 
BRANCH   6   9
ATOM      9  C   UNL     1      49.147   3.842  18.550  0.00  0.00    +0.000 C 
BRANCH   9  10
ATOM     10  N   UNL     1      50.489   3.315  18.515  0.00  0.00    +0.000 N 
ATOM     11  C   UNL     1      50.848   2.276  17.682  0.00  0.00    +0.000 C 
ATOM     12  O   UNL     1      50.052   1.746  16.908  0.00  0.00    +0.000 OA
ATOM     13  H   UNL     1      51.222   3.757  19.054  0.00  0.00    +0.000 HD
BRANCH  11  14
ATOM     14  C   UNL     1      52.238   1.873  17.808  0.00  0.00    +0.000 A 
ATOM     15  C   UNL     1      53.419   2.592  17.732  0.00  0.00    +0.000 A 
ATOM     16  C   UNL     1      54.472   1.661  17.907  0.00  0.00    +0.000 A 
ATOM     17  C   UNL     1      53.877   0.435  18.082  0.00  0.00    +0.000 A 
ATOM     18  O   UNL     1      52.525   0.550  18.033  0.00  0.00    +0.000 OA
ENDBRANCH  11  14
ENDBRANCH   9  10
ENDBRANCH   6   9
ENDBRANCH   2   3
BRANCH   2  19
ATOM     19  N   UNL     1      47.297   6.036  12.745  0.00  0.00    +0.000 N 
ATOM     20  C   UNL     1      46.353   6.493  11.861  0.00  0.00    +0.000 C 
ATOM     21  O   UNL     1      46.059   7.679  11.751  0.00  0.00    +0.000 OA
ATOM     22  H   UNL     1      47.244   5.058  13.017  0.00  0.00    +0.000 HD
BRANCH  20  23
ATOM     23  C   UNL     1      45.749   5.483  10.984  0.00  0.00    +0.000 A 
ATOM     24  C   UNL     1      45.875   5.602   9.606  0.00  0.00    +0.000 A 
ATOM     25  S   UNL     1      45.122   4.339   8.742  0.00  0.00    +0.000 S 
ATOM     26  C   UNL     1      44.565   3.615  10.177  0.00  0.00    +0.000 A 
ATOM     27  N   UNL     1      43.794   2.494  10.145  0.00  0.00    +0.000 NA
ATOM     28  C   UNL     1      43.413   2.078  11.307  0.00  0.00    +0.000 A 
ATOM     29  N   UNL     1      43.746   2.670  12.499  0.00  0.00    +0.000 N 
ATOM     30  C   UNL     1      44.556   3.775  12.582  0.00  0.00    +0.000 A 
ATOM     31  O   UNL     1      44.897   4.240  13.664  0.00  0.00    +0.000 OA
ATOM     32  C   UNL     1      44.979   4.307  11.302  0.00  0.00    +0.000 A 
ATOM     33  H   UNL     1      43.432   2.280  13.375  0.00  0.00    +0.000 HD
ENDBRANCH  20  23
ENDBRANCH   2  19
TORSDOF 6
ENDMDL
MODEL 5
REMARK VINA RESULT:    -6.778      1.993      2.474
REMARK INTER + INTRA:         -10.357
REMARK INTER:                  -9.142
REMARK INTRA:                  -1.215
REMARK UNBOUND:                -1.202
REMARK  Name = 
REMARK  7 active torsions:
REMARK  status: ('A' for Active; 'I' for Inactive)
REMARK    1  A    between atoms: C_1  and  C_2
REMARK    2  A    between atoms: C_2  and  N_3
REMARK    3  A    between atoms: C_2  and  C_16
REMARK    4  A    between atoms: C_4  and  C_6
REMARK    5  A    between atoms: C_19  and  C_20
REMARK    6  A    between atoms: C_20  and  N_21
REMARK    7  A    between atoms: C_22  and  C_24
REMARK                            x       y       z     vdW  Elec       q    Type
REMARK                         _______ _______ _______ _____ _____    ______ ____
ROOT
ATOM      1  C   UNL     1      48.865  10.297  14.263  0.00  0.00    +0.000 C 
ATOM      2  C   UNL     1      49.111   8.791  14.111  0.00  0.00    +0.000 C 
ENDROOT
BRANCH   2   3
ATOM      3  C   UNL     1      47.967   8.144  13.337  0.00  0.00    +0.000 A 
ATOM      4  C   UNL     1      46.773   8.840  13.106  0.00  0.00    +0.000 A 
ATOM      5  C   UNL     1      45.750   8.272  12.333  0.00  0.00    +0.000 A 
ATOM      6  C   UNL     1      45.893   6.991  11.779  0.00  0.00    +0.000 A 
ATOM      7  C   UNL     1      47.079   6.287  12.025  0.00  0.00    +0.000 A 
ATOM      8  C   UNL     1      48.098   6.853  12.798  0.00  0.00    +0.000 A 
BRANCH   6   9
ATOM      9  C   UNL     1      44.809   6.385  10.921  0.00  0.00    +0.000 C 
BRANCH   9  10
ATOM     10  N   UNL     1      45.336   5.433   9.976  0.00  0.00    +0.000 N 
ATOM     11  C   UNL     1      44.781   4.182   9.806  0.00  0.00    +0.000 C 
ATOM     12  O   UNL     1      43.795   3.806  10.439  0.00  0.00    +0.000 OA
ATOM     13  H   UNL     1      46.088   5.699   9.353  0.00  0.00    +0.000 HD
BRANCH  11  14
ATOM     14  C   UNL     1      45.467   3.361   8.824  0.00  0.00    +0.000 A 
ATOM     15  C   UNL     1      46.043   3.668   7.602  0.00  0.00    +0.000 A 
ATOM     16  C   UNL     1      46.542   2.453   7.072  0.00  0.00    +0.000 A 
ATOM     17  C   UNL     1      46.247   1.480   7.996  0.00  0.00    +0.000 A 
ATOM     18  O   UNL     1      45.605   2.016   9.065  0.00  0.00    +0.000 OA
ENDBRANCH  11  14
ENDBRANCH   9  10
ENDBRANCH   6   9
ENDBRANCH   2   3
BRANCH   2  19
ATOM     19  N   UNL     1      49.257   8.115  15.393  0.00  0.00    +0.000 N 
ATOM     20  C   UNL     1      50.437   7.568  15.829  0.00  0.00    +0.000 C 
ATOM     21  O   UNL     1      51.480   7.628  15.187  0.00  0.00    +0.000 OA
ATOM     22  H   UNL     1      48.397   7.746  15.789  0.00  0.00    +0.000 HD
BRANCH  20  23
ATOM     23  C   UNL     1      50.407   6.954  17.162  0.00  0.00    +0.000 A 
ATOM     24  C   UNL     1      51.212   7.462  18.173  0.00  0.00    +0.000 A 
ATOM     25  S   UNL     1      51.046   6.636  19.656  0.00  0.00    +0.000 S 
ATOM     26  C   UNL     1      49.926   5.544  18.985  0.00  0.00    +0.000 A 
ATOM     27  N   UNL     1      49.410   4.525  19.724  0.00  0.00    +0.000 NA
ATOM     28  C   UNL     1      48.603   3.754  19.075  0.00  0.00    +0.000 A 
ATOM     29  N   UNL     1      48.252   3.917  17.759  0.00  0.00    +0.000 N 
ATOM     30  C   UNL     1      48.713   4.955  16.988  0.00  0.00    +0.000 A 
ATOM     31  O   UNL     1      48.326   5.120  15.837  0.00  0.00    +0.000 OA
ATOM     32  C   UNL     1      49.656   5.829  17.659  0.00  0.00    +0.000 A 
ATOM     33  H   UNL     1      47.598   3.290  17.317  0.00  0.00    +0.000 HD
ENDBRANCH  20  23
ENDBRANCH   2  19
TORSDOF 6
ENDMDL
MODEL 6
REMARK VINA RESULT:    -6.623      3.719      8.588
REMARK INTER + INTRA:         -10.149
REMARK INTER:                  -9.085
REMARK INTRA:                  -1.063
REMARK UNBOUND:                -1.202
REMARK  Name = 
REMARK  7 active torsions:
REMARK  status: ('A' for Active; 'I' for Inactive)
REMARK    1  A    between atoms: C_1  and  C_2
REMARK    2  A    between atoms: C_2  and  N_3
REMARK    3  A    between atoms: C_2  and  C_16
REMARK    4  A    between atoms: C_4  and  C_6
REMARK    5  A    between atoms: C_19  and  C_20
REMARK    6  A    between atoms: C_20  and  N_21
REMARK    7  A    between atoms: C_22  and  C_24
REMARK                            x       y       z     vdW  Elec       q    Type
REMARK                         _______ _______ _______ _____ _____    ______ ____
ROOT
ATOM      1  C   UNL     1      48.705   8.963  11.641  0.00  0.00    +0.000 C 
ATOM      2  C   UNL     1      47.666   8.267  12.527  0.00  0.00    +0.000 C 
ENDROOT
BRANCH   2   3
ATOM      3  C   UNL     1      48.293   7.856  13.855  0.00  0.00    +0.000 A 
ATOM      4  C   UNL     1      49.046   8.769  14.606  0.00  0.00    +0.000 A 
ATOM      5  C   UNL     1      49.561   8.413  15.861  0.00  0.00    +0.000 A 
ATOM      6  C   UNL     1      49.344   7.133  16.391  0.00  0.00    +0.000 A 
ATOM      7  C   UNL     1      48.607   6.213  15.633  0.00  0.00    +0.000 A 
ATOM      8  C   UNL     1      48.095   6.568  14.380  0.00  0.00    +0.000 A 
BRANCH   6   9
ATOM      9  C   UNL     1      49.869   6.751  17.753  0.00  0.00    +0.000 C 
BRANCH   9  10
ATOM     10  N   UNL     1      50.259   5.365  17.815  0.00  0.00    +0.000 N 
ATOM     11  C   UNL     1      51.517   4.938  17.444  0.00  0.00    +0.000 C 
ATOM     12  O   UNL     1      52.388   5.714  17.052  0.00  0.00    +0.000 OA
ATOM     13  H   UNL     1      49.631   4.678  18.212  0.00  0.00    +0.000 HD
BRANCH  11  14
ATOM     14  C   UNL     1      51.710   3.503  17.556  0.00  0.00    +0.000 A 
ATOM     15  C   UNL     1      52.744   2.748  18.084  0.00  0.00    +0.000 A 
ATOM     16  C   UNL     1      52.393   1.389  17.890  0.00  0.00    +0.000 A 
ATOM     17  C   UNL     1      51.172   1.392  17.260  0.00  0.00    +0.000 A 
ATOM     18  O   UNL     1      50.742   2.664  17.060  0.00  0.00    +0.000 OA
ENDBRANCH  11  14
ENDBRANCH   9  10
ENDBRANCH   6   9
ENDBRANCH   2   3
BRANCH   2  19
ATOM     19  N   UNL     1      47.086   7.091  11.893  0.00  0.00    +0.000 N 
ATOM     20  C   UNL     1      45.799   7.043  11.420  0.00  0.00    +0.000 C 
ATOM     21  O   UNL     1      45.036   8.002  11.462  0.00  0.00    +0.000 OA
ATOM     22  H   UNL     1      47.527   6.207  12.133  0.00  0.00    +0.000 HD
BRANCH  20  23
ATOM     23  C   UNL     1      45.395   5.785  10.781  0.00  0.00    +0.000 A 
ATOM     24  C   UNL     1      45.678   5.571   9.439  0.00  0.00    +0.000 A 
ATOM     25  S   UNL     1      45.146   4.056   8.863  0.00  0.00    +0.000 S 
ATOM     26  C   UNL     1      44.480   3.654  10.376  0.00  0.00    +0.000 A 
ATOM     27  N   UNL     1      43.815   2.481  10.562  0.00  0.00    +0.000 NA
ATOM     28  C   UNL     1      43.331   2.327  11.749  0.00  0.00    +0.000 A 
ATOM     29  N   UNL     1      43.464   3.230  12.773  0.00  0.00    +0.000 N 
ATOM     30  C   UNL     1      44.163   4.405  12.645  0.00  0.00    +0.000 A 
ATOM     31  O   UNL     1      44.328   5.160  13.596  0.00  0.00    +0.000 OA
ATOM     32  C   UNL     1      44.693   4.646  11.317  0.00  0.00    +0.000 A 
ATOM     33  H   UNL     1      43.078   3.039  13.685  0.00  0.00    +0.000 HD
ENDBRANCH  20  23
ENDBRANCH   2  19
TORSDOF 6
ENDMDL
MODEL 7
REMARK VINA RESULT:    -6.488      4.691      7.987
REMARK INTER + INTRA:          -9.966
REMARK INTER:                  -9.011
REMARK INTRA:                  -0.955
REMARK UNBOUND:                -1.202
REMARK  Name = 
REMARK  7 active torsions:
REMARK  status: ('A' for Active; 'I' for Inactive)
REMARK    1  A    between atoms: C_1  and  C_2
REMARK    2  A    between atoms: C_2  and  N_3
REMARK    3  A    between atoms: C_2  and  C_16
REMARK    4  A    between atoms: C_4  and  C_6
REMARK    5  A    between atoms: C_19  and  C_20
REMARK    6  A    between atoms: C_20  and  N_21
REMARK    7  A    between atoms: C_22  and  C_24
REMARK                            x       y       z     vdW  Elec       q    Type
REMARK                         _______ _______ _______ _____ _____    ______ ____
ROOT
ATOM      1  C   UNL     1      45.212   9.428  12.481  0.00  0.00    +0.000 C 
ATOM      2  C   UNL     1      46.039   8.174  12.786  0.00  0.00    +0.000 C 
ENDROOT
BRANCH   2   3
ATOM      3  C   UNL     1      47.474   8.356  12.302  0.00  0.00    +0.000 A 
ATOM      4  C   UNL     1      47.923   9.600  11.838  0.00  0.00    +0.000 A 
ATOM      5  C   UNL     1      49.261   9.784  11.461  0.00  0.00    +0.000 A 
ATOM      6  C   UNL     1      50.180   8.728  11.529  0.00  0.00    +0.000 A 
ATOM      7  C   UNL     1      49.728   7.478  11.976  0.00  0.00    +0.000 A 
ATOM      8  C   UNL     1      48.393   7.294  12.350  0.00  0.00    +0.000 A 
BRANCH   6   9
ATOM      9  C   UNL     1      51.629   8.926  11.154  0.00  0.00    +0.000 C 
BRANCH   9  10
ATOM     10  N   UNL     1      52.120   7.864  10.312  0.00  0.00    +0.000 N 
ATOM     11  C   UNL     1      52.778   8.112   9.126  0.00  0.00    +0.000 C 
ATOM     12  O   UNL     1      53.000   9.252   8.720  0.00  0.00    +0.000 OA
ATOM     13  H   UNL     1      52.058   6.902  10.620  0.00  0.00    +0.000 HD
BRANCH  11  14
ATOM     14  C   UNL     1      53.176   6.912   8.410  0.00  0.00    +0.000 A 
ATOM     15  C   UNL     1      52.683   6.315   7.262  0.00  0.00    +0.000 A 
ATOM     16  C   UNL     1      53.452   5.145   7.051  0.00  0.00    +0.000 A 
ATOM     17  C   UNL     1      54.368   5.096   8.075  0.00  0.00    +0.000 A 
ATOM     18  O   UNL     1      54.218   6.164   8.899  0.00  0.00    +0.000 OA
ENDBRANCH  11  14
ENDBRANCH   9  10
ENDBRANCH   6   9
ENDBRANCH   2   3
BRANCH   2  19
ATOM     19  N   UNL     1      45.483   6.974  12.178  0.00  0.00    +0.000 N 
ATOM     20  C   UNL     1      45.493   5.743  12.785  0.00  0.00    +0.000 C 
ATOM     21  O   UNL     1      45.947   5.556  13.909  0.00  0.00    +0.000 OA
ATOM     22  H   UNL     1      45.415   6.992  11.164  0.00  0.00    +0.000 HD
BRANCH  20  23
ATOM     23  C   UNL     1      44.857   4.652  12.037  0.00  0.00    +0.000 A 
ATOM     24  C   UNL     1      44.048   3.741  12.702  0.00  0.00    +0.000 A 
ATOM     25  S   UNL     1      43.385   2.546  11.681  0.00  0.00    +0.000 S 
ATOM     26  C   UNL     1      44.194   3.179  10.324  0.00  0.00    +0.000 A 
ATOM     27  N   UNL     1      44.093   2.583   9.105  0.00  0.00    +0.000 NA
ATOM     28  C   UNL     1      44.789   3.151   8.177  0.00  0.00    +0.000 A 
ATOM     29  N   UNL     1      45.565   4.269   8.352  0.00  0.00    +0.000 N 
ATOM     30  C   UNL     1      45.661   4.929   9.552  0.00  0.00    +0.000 A 
ATOM     31  O   UNL     1      46.302   5.968   9.663  0.00  0.00    +0.000 OA
ATOM     32  C   UNL     1      44.929   4.308  10.639  0.00  0.00    +0.000 A 
ATOM     33  H   UNL     1      46.068   4.676   7.579  0.00  0.00    +0.000 HD
ENDBRANCH  20  23
ENDBRANCH   2  19
TORSDOF 6
ENDMDL
MODEL 8
REMARK VINA RESULT:    -5.919      2.478      3.469
REMARK INTER + INTRA:          -9.198
REMARK INTER:                  -8.680
REMARK INTRA:                  -0.518
REMARK UNBOUND:                -1.202
REMARK  Name = 
REMARK  7 active torsions:
REMARK  status: ('A' for Active; 'I' for Inactive)
REMARK    1  A    between atoms: C_1  and  C_2
REMARK    2  A    between atoms: C_2  and  N_3
REMARK    3  A    between atoms: C_2  and  C_16
REMARK    4  A    between atoms: C_4  and  C_6
REMARK    5  A    between atoms: C_19  and  C_20
REMARK    6  A    between atoms: C_20  and  N_21
REMARK    7  A    between atoms: C_22  and  C_24
REMARK                            x       y       z     vdW  Elec       q    Type
REMARK                         _______ _______ _______ _____ _____    ______ ____
ROOT
ATOM      1  C   UNL     1      48.465   9.680  15.429  0.00  0.00    +0.000 C 
ATOM      2  C   UNL     1      48.981   8.445  14.681  0.00  0.00    +0.000 C 
ENDROOT
BRANCH   2   3
ATOM      3  C   UNL     1      47.925   7.940  13.703  0.00  0.00    +0.000 A 
ATOM      4  C   UNL     1      48.041   6.674  13.113  0.00  0.00    +0.000 A 
ATOM      5  C   UNL     1      47.034   6.180  12.271  0.00  0.00    +0.000 A 
ATOM      6  C   UNL     1      45.892   6.944  11.991  0.00  0.00    +0.000 A 
ATOM      7  C   UNL     1      45.783   8.217  12.566  0.00  0.00    +0.000 A 
ATOM      8  C   UNL     1      46.789   8.711  13.404  0.00  0.00    +0.000 A 
BRANCH   6   9
ATOM      9  C   UNL     1      44.789   6.408  11.110  0.00  0.00    +0.000 C 
BRANCH   9  10
ATOM     10  N   UNL     1      45.286   5.474  10.130  0.00  0.00    +0.000 N 
ATOM     11  C   UNL     1      44.733   4.222   9.963  0.00  0.00    +0.000 C 
ATOM     12  O   UNL     1      43.776   3.829  10.629  0.00  0.00    +0.000 OA
ATOM     13  H   UNL     1      46.010   5.756   9.482  0.00  0.00    +0.000 HD
BRANCH  11  14
ATOM     14  C   UNL     1      45.386   3.421   8.942  0.00  0.00    +0.000 A 
ATOM     15  C   UNL     1      45.923   3.754   7.710  0.00  0.00    +0.000 A 
ATOM     16  C   UNL     1      46.402   2.550   7.138  0.00  0.00    +0.000 A 
ATOM     17  C   UNL     1      46.133   1.557   8.049  0.00  0.00    +0.000 A 
ATOM     18  O   UNL     1      45.527   2.071   9.149  0.00  0.00    +0.000 OA
ENDBRANCH  11  14
ENDBRANCH   9  10
ENDBRANCH   6   9
ENDBRANCH   2   3
BRANCH   2  19
ATOM     19  N   UNL     1      49.353   7.361  15.579  0.00  0.00    +0.000 N 
ATOM     20  C   UNL     1      50.596   7.241  16.146  0.00  0.00    +0.000 C 
ATOM     21  O   UNL     1      51.493   8.058  15.969  0.00  0.00    +0.000 OA
ATOM     22  H   UNL     1      48.798   6.514  15.490  0.00  0.00    +0.000 HD
BRANCH  20  23
ATOM     23  C   UNL     1      50.782   6.102  17.053  0.00  0.00    +0.000 A 
ATOM     24  C   UNL     1      49.707   5.623  17.789  0.00  0.00    +0.000 A 
ATOM     25  S   UNL     1      50.099   4.294  18.783  0.00  0.00    +0.000 S 
ATOM     26  C   UNL     1      51.729   4.341  18.296  0.00  0.00    +0.000 A 
ATOM     27  N   UNL     1      52.644   3.480  18.819  0.00  0.00    +0.000 NA
ATOM     28  C   UNL     1      53.848   3.656  18.386  0.00  0.00    +0.000 A 
ATOM     29  N   UNL     1      54.219   4.603  17.466  0.00  0.00    +0.000 N 
ATOM     30  C   UNL     1      53.324   5.463  16.879  0.00  0.00    +0.000 A 
ATOM     31  O   UNL     1      53.669   6.250  16.005  0.00  0.00    +0.000 OA
ATOM     32  C   UNL     1      51.962   5.334  17.361  0.00  0.00    +0.000 A 
ATOM     33  H   UNL     1      55.175   4.674  17.153  0.00  0.00    +0.000 HD
ENDBRANCH  20  23
ENDBRANCH   2  19
TORSDOF 6
ENDMDL
MODEL 9
REMARK VINA RESULT:    -5.783      5.818      8.368
REMARK INTER + INTRA:          -9.013
REMARK INTER:                  -8.052
REMARK INTRA:                  -0.962
REMARK UNBOUND:                -1.202
REMARK  Name = 
REMARK  7 active torsions:
REMARK  status: ('A' for Active; 'I' for Inactive)
REMARK    1  A    between atoms: C_1  and  C_2
REMARK    2  A    between atoms: C_2  and  N_3
REMARK    3  A    between atoms: C_2  and  C_16
REMARK    4  A    between atoms: C_4  and  C_6
REMARK    5  A    between atoms: C_19  and  C_20
REMARK    6  A    between atoms: C_20  and  N_21
REMARK    7  A    between atoms: C_22  and  C_24
REMARK                            x       y       z     vdW  Elec       q    Type
REMARK                         _______ _______ _______ _____ _____    ______ ____
ROOT
ATOM      1  C   UNL     1      51.773  10.541  11.749  0.00  0.00    +0.000 C 
ATOM      2  C   UNL     1      51.156   9.505  10.801  0.00  0.00    +0.000 C 
ENDROOT
BRANCH   2   3
ATOM      3  C   UNL     1      49.827   9.005  11.357  0.00  0.00    +0.000 A 
ATOM      4  C   UNL     1      49.686   7.683  11.799  0.00  0.00    +0.000 A 
ATOM      5  C   UNL     1      48.485   7.244  12.376  0.00  0.00    +0.000 A 
ATOM      6  C   UNL     1      47.394   8.114  12.516  0.00  0.00    +0.000 A 
ATOM      7  C   UNL     1      47.528   9.431  12.057  0.00  0.00    +0.000 A 
ATOM      8  C   UNL     1      48.725   9.868  11.479  0.00  0.00    +0.000 A 
BRANCH   6   9
ATOM      9  C   UNL     1      46.109   7.658  13.164  0.00  0.00    +0.000 C 
BRANCH   9  10
ATOM     10  N   UNL     1      45.504   6.561  12.451  0.00  0.00    +0.000 N 
ATOM     11  C   UNL     1      45.498   5.275  12.950  0.00  0.00    +0.000 C 
ATOM     12  O   UNL     1      45.995   4.988  14.039  0.00  0.00    +0.000 OA
ATOM     13  H   UNL     1      44.994   6.732  11.594  0.00  0.00    +0.000 HD
BRANCH  11  14
ATOM     14  C   UNL     1      44.860   4.306  12.077  0.00  0.00    +0.000 A 
ATOM     15  C   UNL     1      44.980   4.068  10.717  0.00  0.00    +0.000 A 
ATOM     16  C   UNL     1      44.089   3.010  10.412  0.00  0.00    +0.000 A 
ATOM     17  C   UNL     1      43.482   2.663  11.595  0.00  0.00    +0.000 A 
ATOM     18  O   UNL     1      43.946   3.433  12.612  0.00  0.00    +0.000 OA
ENDBRANCH  11  14
ENDBRANCH   9  10
ENDBRANCH   6   9
ENDBRANCH   2   3
BRANCH   2  19
ATOM     19  N   UNL     1      52.033   8.365  10.571  0.00  0.00    +0.000 N 
ATOM     20  C   UNL     1      52.906   8.282   9.516  0.00  0.00    +0.000 C 
ATOM     21  O   UNL     1      53.044   9.179   8.692  0.00  0.00    +0.000 OA
ATOM     22  H   UNL     1      51.729   7.492  10.994  0.00  0.00    +0.000 HD
BRANCH  20  23
ATOM     23  C   UNL     1      53.735   7.072   9.460  0.00  0.00    +0.000 A 
ATOM     24  C   UNL     1      54.639   6.808  10.480  0.00  0.00    +0.000 A 
ATOM     25  S   UNL     1      55.512   5.360  10.259  0.00  0.00    +0.000 S 
ATOM     26  C   UNL     1      54.743   5.060   8.771  0.00  0.00    +0.000 A 
ATOM     27  N   UNL     1      55.073   3.977   8.016  0.00  0.00    +0.000 NA
ATOM     28  C   UNL     1      54.436   3.896   6.896  0.00  0.00    +0.000 A 
ATOM     29  N   UNL     1      53.489   4.791   6.467  0.00  0.00    +0.000 N 
ATOM     30  C   UNL     1      53.093   5.873   7.214  0.00  0.00    +0.000 A 
ATOM     31  O   UNL     1      52.193   6.616   6.840  0.00  0.00    +0.000 OA
ATOM     32  C   UNL     1      53.807   6.032   8.465  0.00  0.00    +0.000 A 
ATOM     33  H   UNL     1      53.012   4.659   5.588  0.00  0.00    +0.000 HD
ENDBRANCH  20  23
ENDBRANCH   2  19
TORSDOF 6
ENDMDL
