MODEL 1
REMARK VINA RESULT:    -8.071      0.000      0.000
REMARK INTER + INTRA:         -11.674
REMARK INTER:                 -10.430
REMARK INTRA:                  -1.244
REMARK UNBOUND:                -1.244
REMARK  Name = 
REMARK  5 active torsions:
REMARK  status: ('A' for Active; 'I' for Inactive)
REMARK    1  A    between atoms: C_2  and  C_20
REMARK    2  A    between atoms: N_3  and  C_4
REMARK    3  A    between atoms: C_4  and  C_5
REMARK    4  A    between atoms: C_8  and  C_9
REMARK    5  A    between atoms: C_9  and  C_10
REMARK                            x       y       z     vdW  Elec       q    Type
REMARK                         _______ _______ _______ _____ _____    ______ ____
ROOT
ATOM      1  C   UNL     1      47.001   8.199  13.448  0.00  0.00    +0.000 C 
ENDROOT
BRANCH   1   2
ATOM      2  C   UNL     1      46.209   7.284  12.560  0.00  0.00    +0.000 A 
ATOM      3  C   UNL     1      46.754   6.707  11.410  0.00  0.00    +0.000 A 
ATOM      4  C   UNL     1      45.967   5.883  10.602  0.00  0.00    +0.000 A 
ATOM      5  C   UNL     1      44.646   5.643  10.971  0.00  0.00    +0.000 A 
ATOM      6  N   UNL     1      44.108   6.170  12.100  0.00  0.00    +0.000 NA
ATOM      7  C   UNL     1      44.894   6.964  12.866  0.00  0.00    +0.000 A 
BRANCH   5   8
ATOM      8  C   UNL     1      43.764   4.715  10.183  0.00  0.00    +0.000 C 
BRANCH   8   9
ATOM      9  C   UNL     1      44.308   3.308  10.010  0.00  0.00    +0.000 C 
ATOM     10  O   UNL     1      44.455   2.584  11.000  0.00  0.00    +0.000 OA
ATOM     11  N   UNL     1      44.535   2.845   8.717  0.00  0.00    +0.000 N 
ATOM     12  C   UNL     1      44.837   1.432   8.512  0.00  0.00    +0.000 C 
ATOM     13  C   UNL     1      46.330   1.231   8.268  0.00  0.00    +0.000 C 
ATOM     14  C   UNL     1      46.805   2.102   7.105  0.00  0.00    +0.000 C 
ATOM     15  C   UNL     1      46.418   3.569   7.321  0.00  0.00    +0.000 C 
ATOM     16  C   UNL     1      44.919   3.711   7.601  0.00  0.00    +0.000 C 
ENDBRANCH   8   9
ENDBRANCH   5   8
ENDBRANCH   1   2
BRANCH   1  19
ATOM     17  O   UNL     1      49.495   6.902  13.654  0.00  0.00    +0.000 OA
ATOM     18  C   UNL     1      48.761   6.938  14.637  0.00  0.00    +0.000 C 
ATOM     19  N   UNL     1      47.515   7.509  14.604  0.00  0.00    +0.000 N 
ATOM     20  H   UNL     1      47.021   7.668  15.475  0.00  0.00    +0.000 HD
BRANCH  18  21
ATOM     21  C   UNL     1      49.149   6.320  15.911  0.00  0.00    +0.000 A 
ATOM     22  C   UNL     1      50.189   6.856  16.657  0.00  0.00    +0.000 A 
ATOM     23  S   UNL     1      50.510   5.995  18.096  0.00  0.00    +0.000 S 
ATOM     24  C   UNL     1      49.242   4.904  17.792  0.00  0.00    +0.000 A 
ATOM     25  N   UNL     1      48.950   3.904  18.668  0.00  0.00    +0.000 NA
ATOM     26  C   UNL     1      47.936   3.177  18.331  0.00  0.00    +0.000 A 
ATOM     27  N   UNL     1      47.193   3.355  17.194  0.00  0.00    +0.000 N 
ATOM     28  C   UNL     1      47.495   4.297  16.245  0.00  0.00    +0.000 A 
ATOM     29  O   UNL     1      46.899   4.336  15.173  0.00  0.00    +0.000 OA
ATOM     30  C   UNL     1      48.600   5.175  16.598  0.00  0.00    +0.000 A 
ATOM     31  H   UNL     1      46.431   2.731  16.972  0.00  0.00    +0.000 HD
ENDBRANCH  18  21
ENDBRANCH   1  19
TORSDOF 5
ENDMDL
MODEL 2
REMARK VINA RESULT:    -7.005      2.790      8.193
REMARK INTER + INTRA:         -10.296
REMARK INTER:                  -9.377
REMARK INTRA:                  -0.919
REMARK UNBOUND:                -1.244
REMARK  Name = 
REMARK  5 active torsions:
REMARK  status: ('A' for Active; 'I' for Inactive)
REMARK    1  A    between atoms: C_2  and  C_20
REMARK    2  A    between atoms: N_3  and  C_4
REMARK    3  A    between atoms: C_4  and  C_5
REMARK    4  A    between atoms: C_8  and  C_9
REMARK    5  A    between atoms: C_9  and  C_10
REMARK                            x       y       z     vdW  Elec       q    Type
REMARK                         _______ _______ _______ _____ _____    ______ ____
ROOT
ATOM      1  C   UNL     1      47.147   7.874  12.046  0.00  0.00    +0.000 C 
ENDROOT
BRANCH   1   2
ATOM      2  C   UNL     1      47.950   7.854  13.315  0.00  0.00    +0.000 A 
ATOM      3  C   UNL     1      47.742   8.779  14.341  0.00  0.00    +0.000 A 
ATOM      4  C   UNL     1      48.533   8.734  15.491  0.00  0.00    +0.000 A 
ATOM      5  C   UNL     1      49.512   7.750  15.596  0.00  0.00    +0.000 A 
ATOM      6  N   UNL     1      49.708   6.824  14.623  0.00  0.00    +0.000 NA
ATOM      7  C   UNL     1      48.927   6.890  13.520  0.00  0.00    +0.000 A 
BRANCH   5   8
ATOM      8  C   UNL     1      50.354   7.604  16.834  0.00  0.00    +0.000 C 
BRANCH   8   9
ATOM      9  C   UNL     1      50.761   6.180  17.166  0.00  0.00    +0.000 C 
ATOM     10  O   UNL     1      51.916   5.805  16.938  0.00  0.00    +0.000 OA
ATOM     11  N   UNL     1      49.836   5.366  17.812  0.00  0.00    +0.000 N 
ATOM     12  C   UNL     1      50.273   4.079  18.344  0.00  0.00    +0.000 C 
ATOM     13  C   UNL     1      49.829   2.940  17.431  0.00  0.00    +0.000 C 
ATOM     14  C   UNL     1      48.318   2.993  17.204  0.00  0.00    +0.000 C 
ATOM     15  C   UNL     1      47.884   4.375  16.705  0.00  0.00    +0.000 C 
ATOM     16  C   UNL     1      48.388   5.483  17.634  0.00  0.00    +0.000 C 
ENDBRANCH   8   9
ENDBRANCH   5   8
ENDBRANCH   1   2
BRANCH   1  19
ATOM     17  O   UNL     1      44.376   7.457  11.748  0.00  0.00    +0.000 OA
ATOM     18  C   UNL     1      45.137   6.501  11.631  0.00  0.00    +0.000 C 
ATOM     19  N   UNL     1      46.492   6.614  11.807  0.00  0.00    +0.000 N 
ATOM     20  H   UNL     1      47.091   5.844  11.534  0.00  0.00    +0.000 HD
BRANCH  18  21
ATOM     21  C   UNL     1      44.638   5.150  11.345  0.00  0.00    +0.000 A 
ATOM     22  C   UNL     1      43.843   4.491  12.272  0.00  0.00    +0.000 A 
ATOM     23  S   UNL     1      43.375   2.925  11.776  0.00  0.00    +0.000 S 
ATOM     24  C   UNL     1      44.182   3.093  10.289  0.00  0.00    +0.000 A 
ATOM     25  N   UNL     1      44.157   2.099   9.360  0.00  0.00    +0.000 NA
ATOM     26  C   UNL     1      44.777   2.379   8.261  0.00  0.00    +0.000 A 
ATOM     27  N   UNL     1      45.425   3.560   8.010  0.00  0.00    +0.000 N 
ATOM     28  C   UNL     1      45.544   4.559   8.943  0.00  0.00    +0.000 A 
ATOM     29  O   UNL     1      46.251   5.540   8.739  0.00  0.00    +0.000 OA
ATOM     30  C   UNL     1      44.822   4.314  10.182  0.00  0.00    +0.000 A 
ATOM     31  H   UNL     1      45.918   3.704   7.142  0.00  0.00    +0.000 HD
ENDBRANCH  18  21
ENDBRANCH   1  19
TORSDOF 5
ENDMDL
MODEL 3
REMARK VINA RESULT:    -6.946      3.854      9.146
REMARK INTER + INTRA:         -10.220
REMARK INTER:                  -9.253
REMARK INTRA:                  -0.967
REMARK UNBOUND:                -1.244
REMARK  Name = 
REMARK  5 active torsions:
REMARK  status: ('A' for Active; 'I' for Inactive)
REMARK    1  A    between atoms: C_2  and  C_20
REMARK    2  A    between atoms: N_3  and  C_4
REMARK    3  A    between atoms: C_4  and  C_5
REMARK    4  A    between atoms: C_8  and  C_9
REMARK    5  A    between atoms: C_9  and  C_10
REMARK                            x       y       z     vdW  Elec       q    Type
REMARK                         _______ _______ _______ _____ _____    ______ ____
ROOT
ATOM      1  C   UNL     1      47.163   3.380  16.850  0.00  0.00    +0.000 C 
ENDROOT
BRANCH   1   2
ATOM      2  C   UNL     1      48.559   3.589  17.362  0.00  0.00    +0.000 A 
ATOM      3  C   UNL     1      49.591   2.684  17.102  0.00  0.00    +0.000 A 
ATOM      4  C   UNL     1      50.866   2.911  17.624  0.00  0.00    +0.000 A 
ATOM      5  C   UNL     1      51.086   4.054  18.389  0.00  0.00    +0.000 A 
ATOM      6  N   UNL     1      50.103   4.960  18.627  0.00  0.00    +0.000 NA
ATOM      7  C   UNL     1      48.877   4.715  18.108  0.00  0.00    +0.000 A 
BRANCH   5   8
ATOM      8  C   UNL     1      52.449   4.392  18.926  0.00  0.00    +0.000 C 
BRANCH   8   9
ATOM      9  C   UNL     1      53.584   4.242  17.930  0.00  0.00    +0.000 C 
ATOM     10  O   UNL     1      53.702   5.057  17.009  0.00  0.00    +0.000 OA
ATOM     11  N   UNL     1      54.520   3.235  18.147  0.00  0.00    +0.000 N 
ATOM     12  C   UNL     1      55.738   3.212  17.342  0.00  0.00    +0.000 C 
ATOM     13  C   UNL     1      55.643   2.147  16.253  0.00  0.00    +0.000 C 
ATOM     14  C   UNL     1      55.324   0.782  16.866  0.00  0.00    +0.000 C 
ATOM     15  C   UNL     1      54.078   0.854  17.754  0.00  0.00    +0.000 C 
ATOM     16  C   UNL     1      54.207   1.964  18.801  0.00  0.00    +0.000 C 
ENDBRANCH   8   9
ENDBRANCH   5   8
ENDBRANCH   1   2
BRANCH   1  19
ATOM     17  O   UNL     1      47.319   3.094  14.050  0.00  0.00    +0.000 OA
ATOM     18  C   UNL     1      46.866   4.135  14.517  0.00  0.00    +0.000 C 
ATOM     19  N   UNL     1      46.800   4.368  15.866  0.00  0.00    +0.000 N 
ATOM     20  H   UNL     1      46.265   5.159  16.205  0.00  0.00    +0.000 HD
BRANCH  18  21
ATOM     21  C   UNL     1      46.409   5.231  13.654  0.00  0.00    +0.000 A 
ATOM     22  C   UNL     1      47.228   6.329  13.430  0.00  0.00    +0.000 A 
ATOM     23  S   UNL     1      46.523   7.510  12.419  0.00  0.00    +0.000 S 
ATOM     24  C   UNL     1      45.118   6.575  12.211  0.00  0.00    +0.000 A 
ATOM     25  N   UNL     1      44.098   7.005  11.419  0.00  0.00    +0.000 NA
ATOM     26  C   UNL     1      43.113   6.175  11.319  0.00  0.00    +0.000 A 
ATOM     27  N   UNL     1      43.052   4.958  11.944  0.00  0.00    +0.000 N 
ATOM     28  C   UNL     1      44.018   4.515  12.811  0.00  0.00    +0.000 A 
ATOM     29  O   UNL     1      43.865   3.488  13.464  0.00  0.00    +0.000 OA
ATOM     30  C   UNL     1      45.174   5.391  12.923  0.00  0.00    +0.000 A 
ATOM     31  H   UNL     1      42.238   4.369  11.850  0.00  0.00    +0.000 HD
ENDBRANCH  18  21
ENDBRANCH   1  19
TORSDOF 5
ENDMDL
MODEL 4
REMARK VINA RESULT:    -6.747      3.117      8.053
REMARK INTER + INTRA:          -9.963
REMARK INTER:                  -8.975
REMARK INTRA:                  -0.988
REMARK UNBOUND:                -1.244
REMARK  Name = 
REMARK  5 active torsions:
REMARK  status: ('A' for Active; 'I' for Inactive)
REMARK    1  A    between atoms: C_2  and  C_20
REMARK    2  A    between atoms: N_3  and  C_4
REMARK    3  A    between atoms: C_4  and  C_5
REMARK    4  A    between atoms: C_8  and  C_9
REMARK    5  A    between atoms: C_9  and  C_10
REMARK                            x       y       z     vdW  Elec       q    Type
REMARK                         _______ _______ _______ _____ _____    ______ ____
ROOT
ATOM      1  C   UNL     1      48.056   8.150  12.212  0.00  0.00    +0.000 C 
ENDROOT
BRANCH   1   2
ATOM      2  C   UNL     1      48.383   7.917  13.658  0.00  0.00    +0.000 A 
ATOM      3  C   UNL     1      48.315   8.937  14.610  0.00  0.00    +0.000 A 
ATOM      4  C   UNL     1      48.654   8.676  15.939  0.00  0.00    +0.000 A 
ATOM      5  C   UNL     1      49.046   7.387  16.292  0.00  0.00    +0.000 A 
ATOM      6  N   UNL     1      49.090   6.376  15.387  0.00  0.00    +0.000 NA
ATOM      7  C   UNL     1      48.754   6.657  14.106  0.00  0.00    +0.000 A 
BRANCH   5   8
ATOM      8  C   UNL     1      49.363   7.022  17.716  0.00  0.00    +0.000 C 
BRANCH   8   9
ATOM      9  C   UNL     1      50.560   6.106  17.890  0.00  0.00    +0.000 C 
ATOM     10  O   UNL     1      51.696   6.535  17.666  0.00  0.00    +0.000 OA
ATOM     11  N   UNL     1      50.342   4.827  18.395  0.00  0.00    +0.000 N 
ATOM     12  C   UNL     1      51.489   4.013  18.784  0.00  0.00    +0.000 C 
ATOM     13  C   UNL     1      51.786   2.958  17.723  0.00  0.00    +0.000 C 
ATOM     14  C   UNL     1      50.542   2.114  17.442  0.00  0.00    +0.000 C 
ATOM     15  C   UNL     1      49.341   3.002  17.096  0.00  0.00    +0.000 C 
ATOM     16  C   UNL     1      49.111   4.067  18.173  0.00  0.00    +0.000 C 
ENDBRANCH   8   9
ENDBRANCH   5   8
ENDBRANCH   1   2
BRANCH   1  19
ATOM     17  O   UNL     1      45.274   7.837  11.882  0.00  0.00    +0.000 OA
ATOM     18  C   UNL     1      46.024   6.960  11.462  0.00  0.00    +0.000 C 
ATOM     19  N   UNL     1      47.384   7.018  11.626  0.00  0.00    +0.000 N 
ATOM     20  H   UNL     1      47.971   6.365  11.118  0.00  0.00    +0.000 HD
BRANCH  18  21
ATOM     21  C   UNL     1      45.508   5.756  10.801  0.00  0.00    +0.000 A 
ATOM     22  C   UNL     1      45.782   5.526   9.460  0.00  0.00    +0.000 A 
ATOM     23  S   UNL     1      45.084   4.089   8.858  0.00  0.00    +0.000 S 
ATOM     24  C   UNL     1      44.430   3.703  10.380  0.00  0.00    +0.000 A 
ATOM     25  N   UNL     1      43.718   2.559  10.569  0.00  0.00    +0.000 NA
ATOM     26  C   UNL     1      43.318   2.373  11.784  0.00  0.00    +0.000 A 
ATOM     27  N   UNL     1      43.558   3.232  12.824  0.00  0.00    +0.000 N 
ATOM     28  C   UNL     1      44.201   4.433  12.667  0.00  0.00    +0.000 A 
ATOM     29  O   UNL     1      44.273   5.242  13.585  0.00  0.00    +0.000 OA
ATOM     30  C   UNL     1      44.716   4.669  11.327  0.00  0.00    +0.000 A 
ATOM     31  H   UNL     1      43.189   3.044  13.744  0.00  0.00    +0.000 HD
ENDBRANCH  18  21
ENDBRANCH   1  19
TORSDOF 5
ENDMDL
MODEL 5
REMARK VINA RESULT:    -6.540      2.076      2.557
REMARK INTER + INTRA:          -9.696
REMARK INTER:                  -8.713
REMARK INTRA:                  -0.982
REMARK UNBOUND:                -1.244
REMARK  Name = 
REMARK  5 active torsions:
REMARK  status: ('A' for Active; 'I' for Inactive)
REMARK    1  A    between atoms: C_2  and  C_20
REMARK    2  A    between atoms: N_3  and  C_4
REMARK    3  A    between atoms: C_4  and  C_5
REMARK    4  A    between atoms: C_8  and  C_9
REMARK    5  A    between atoms: C_9  and  C_10
REMARK                            x       y       z     vdW  Elec       q    Type
REMARK                         _______ _______ _______ _____ _____    ______ ____
ROOT
ATOM      1  C   UNL     1      47.683   7.819  13.548  0.00  0.00    +0.000 C 
ENDROOT
BRANCH   1   2
ATOM      2  C   UNL     1      46.689   6.976  12.803  0.00  0.00    +0.000 A 
ATOM      3  C   UNL     1      45.720   6.214  13.460  0.00  0.00    +0.000 A 
ATOM      4  C   UNL     1      44.834   5.426  12.722  0.00  0.00    +0.000 A 
ATOM      5  C   UNL     1      44.930   5.427  11.333  0.00  0.00    +0.000 A 
ATOM      6  N   UNL     1      45.845   6.185  10.676  0.00  0.00    +0.000 NA
ATOM      7  C   UNL     1      46.690   6.940  11.416  0.00  0.00    +0.000 A 
BRANCH   5   8
ATOM      8  C   UNL     1      43.967   4.653  10.475  0.00  0.00    +0.000 C 
BRANCH   8   9
ATOM      9  C   UNL     1      44.398   3.235  10.149  0.00  0.00    +0.000 C 
ATOM     10  O   UNL     1      44.478   2.397  11.053  0.00  0.00    +0.000 OA
ATOM     11  N   UNL     1      44.599   2.900   8.813  0.00  0.00    +0.000 N 
ATOM     12  C   UNL     1      44.790   1.498   8.454  0.00  0.00    +0.000 C 
ATOM     13  C   UNL     1      46.264   1.205   8.189  0.00  0.00    +0.000 C 
ATOM     14  C   UNL     1      46.817   2.158   7.128  0.00  0.00    +0.000 C 
ATOM     15  C   UNL     1      46.547   3.618   7.505  0.00  0.00    +0.000 C 
ATOM     16  C   UNL     1      45.061   3.849   7.799  0.00  0.00    +0.000 C 
ENDBRANCH   8   9
ENDBRANCH   5   8
ENDBRANCH   1   2
BRANCH   1  19
ATOM     17  O   UNL     1      50.002   6.846  14.821  0.00  0.00    +0.000 OA
ATOM     18  C   UNL     1      48.978   6.993  15.482  0.00  0.00    +0.000 C 
ATOM     19  N   UNL     1      47.799   7.417  14.927  0.00  0.00    +0.000 N 
ATOM     20  H   UNL     1      47.035   7.687  15.536  0.00  0.00    +0.000 HD
BRANCH  18  21
ATOM     21  C   UNL     1      48.933   6.670  16.914  0.00  0.00    +0.000 A 
ATOM     22  C   UNL     1      49.391   5.441  17.365  0.00  0.00    +0.000 A 
ATOM     23  S   UNL     1      49.241   5.236  19.054  0.00  0.00    +0.000 S 
ATOM     24  C   UNL     1      48.602   6.800  19.243  0.00  0.00    +0.000 A 
ATOM     25  N   UNL     1      48.273   7.281  20.473  0.00  0.00    +0.000 NA
ATOM     26  C   UNL     1      47.838   8.498  20.473  0.00  0.00    +0.000 A 
ATOM     27  N   UNL     1      47.695   9.275  19.354  0.00  0.00    +0.000 N 
ATOM     28  C   UNL     1      47.940   8.810  18.087  0.00  0.00    +0.000 A 
ATOM     29  O   UNL     1      47.665   9.482  17.098  0.00  0.00    +0.000 OA
ATOM     30  C   UNL     1      48.478   7.460  18.034  0.00  0.00    +0.000 A 
ATOM     31  H   UNL     1      47.319  10.209  19.418  0.00  0.00    +0.000 HD
ENDBRANCH  18  21
ENDBRANCH   1  19
TORSDOF 5
ENDMDL
MODEL 6
REMARK VINA RESULT:    -6.511      3.623      8.456
REMARK INTER + INTRA:          -9.658
REMARK INTER:                  -8.732
REMARK INTRA:                  -0.926
REMARK UNBOUND:                -1.244
REMARK  Name = 
REMARK  5 active torsions:
REMARK  status: ('A' for Active; 'I' for Inactive)
REMARK    1  A    between atoms: C_2  and  C_20
REMARK    2  A    between atoms: N_3  and  C_4
REMARK    3  A    between atoms: C_4  and  C_5
REMARK    4  A    between atoms: C_8  and  C_9
REMARK    5  A    between atoms: C_9  and  C_10
REMARK                            x       y       z     vdW  Elec       q    Type
REMARK                         _______ _______ _______ _____ _____    ______ ____
ROOT
ATOM      1  C   UNL     1      44.206   3.375  11.981  0.00  0.00    +0.000 C 
ENDROOT
BRANCH   1   2
ATOM      2  C   UNL     1      45.043   4.533  12.441  0.00  0.00    +0.000 A 
ATOM      3  C   UNL     1      44.765   5.849  12.061  0.00  0.00    +0.000 A 
ATOM      4  C   UNL     1      45.590   6.889  12.495  0.00  0.00    +0.000 A 
ATOM      5  C   UNL     1      46.674   6.590  13.316  0.00  0.00    +0.000 A 
ATOM      6  N   UNL     1      46.942   5.322  13.720  0.00  0.00    +0.000 NA
ATOM      7  C   UNL     1      46.125   4.333  13.286  0.00  0.00    +0.000 A 
BRANCH   5   8
ATOM      8  C   UNL     1      47.563   7.668  13.871  0.00  0.00    +0.000 C 
BRANCH   8   9
ATOM      9  C   UNL     1      48.998   7.631  13.378  0.00  0.00    +0.000 C 
ATOM     10  O   UNL     1      49.859   7.045  14.043  0.00  0.00    +0.000 OA
ATOM     11  N   UNL     1      49.280   8.183  12.132  0.00  0.00    +0.000 N 
ATOM     12  C   UNL     1      50.594   7.960  11.538  0.00  0.00    +0.000 C 
ATOM     13  C   UNL     1      51.469   9.202  11.685  0.00  0.00    +0.000 C 
ATOM     14  C   UNL     1      50.765  10.426  11.098  0.00  0.00    +0.000 C 
ATOM     15  C   UNL     1      49.365  10.596  11.698  0.00  0.00    +0.000 C 
ATOM     16  C   UNL     1      48.543   9.311  11.560  0.00  0.00    +0.000 C 
ENDBRANCH   8   9
ENDBRANCH   5   8
ENDBRANCH   1   2
BRANCH   1  19
ATOM     17  O   UNL     1      44.027   3.846   9.209  0.00  0.00    +0.000 OA
ATOM     18  C   UNL     1      44.754   2.943   9.612  0.00  0.00    +0.000 C 
ATOM     19  N   UNL     1      44.859   2.623  10.940  0.00  0.00    +0.000 N 
ATOM     20  H   UNL     1      45.594   1.992  11.240  0.00  0.00    +0.000 HD
BRANCH  18  21
ATOM     21  C   UNL     1      45.525   2.104   8.687  0.00  0.00    +0.000 A 
ATOM     22  C   UNL     1      45.424   0.722   8.751  0.00  0.00    +0.000 A 
ATOM     23  S   UNL     1      46.407  -0.087   7.613  0.00  0.00    +0.000 S 
ATOM     24  C   UNL     1      46.967   1.383   6.968  0.00  0.00    +0.000 A 
ATOM     25  N   UNL     1      47.839   1.405   5.923  0.00  0.00    +0.000 NA
ATOM     26  C   UNL     1      48.147   2.589   5.509  0.00  0.00    +0.000 A 
ATOM     27  N   UNL     1      47.668   3.753   6.050  0.00  0.00    +0.000 N 
ATOM     28  C   UNL     1      46.850   3.784   7.150  0.00  0.00    +0.000 A 
ATOM     29  O   UNL     1      46.557   4.842   7.696  0.00  0.00    +0.000 OA
ATOM     30  C   UNL     1      46.434   2.475   7.628  0.00  0.00    +0.000 A 
ATOM     31  H   UNL     1      47.974   4.649   5.699  0.00  0.00    +0.000 HD
ENDBRANCH  18  21
ENDBRANCH   1  19
TORSDOF 5
ENDMDL
MODEL 7
REMARK VINA RESULT:    -6.460      3.553      5.312
REMARK INTER + INTRA:          -9.592
REMARK INTER:                  -8.651
REMARK INTRA:                  -0.941
REMARK UNBOUND:                -1.244
REMARK  Name = 
REMARK  5 active torsions:
REMARK  status: ('A' for Active; 'I' for Inactive)
REMARK    1  A    between atoms: C_2  and  C_20
REMARK    2  A    between atoms: N_3  and  C_4
REMARK    3  A    between atoms: C_4  and  C_5
REMARK    4  A    between atoms: C_8  and  C_9
REMARK    5  A    between atoms: C_9  and  C_10
REMARK                            x       y       z     vdW  Elec       q    Type
REMARK                         _______ _______ _______ _____ _____    ______ ____
ROOT
ATOM      1  C   UNL     1      48.774   4.547  17.697  0.00  0.00    +0.000 C 
ENDROOT
BRANCH   1   2
ATOM      2  C   UNL     1      48.300   4.997  16.346  0.00  0.00    +0.000 A 
ATOM      3  C   UNL     1      47.277   4.338  15.659  0.00  0.00    +0.000 A 
ATOM      4  C   UNL     1      46.890   4.781  14.392  0.00  0.00    +0.000 A 
ATOM      5  C   UNL     1      47.530   5.888  13.842  0.00  0.00    +0.000 A 
ATOM      6  N   UNL     1      48.504   6.559  14.507  0.00  0.00    +0.000 NA
ATOM      7  C   UNL     1      48.859   6.110  15.734  0.00  0.00    +0.000 A 
BRANCH   5   8
ATOM      8  C   UNL     1      47.118   6.457  12.512  0.00  0.00    +0.000 C 
BRANCH   8   9
ATOM      9  C   UNL     1      45.623   6.641  12.331  0.00  0.00    +0.000 C 
ATOM     10  O   UNL     1      45.048   7.576  12.898  0.00  0.00    +0.000 OA
ATOM     11  N   UNL     1      44.959   5.797  11.445  0.00  0.00    +0.000 N 
ATOM     12  C   UNL     1      43.577   6.095  11.081  0.00  0.00    +0.000 C 
ATOM     13  C   UNL     1      42.613   5.181  11.831  0.00  0.00    +0.000 C 
ATOM     14  C   UNL     1      42.973   3.713  11.595  0.00  0.00    +0.000 C 
ATOM     15  C   UNL     1      44.445   3.447  11.927  0.00  0.00    +0.000 C 
ATOM     16  C   UNL     1      45.366   4.416  11.181  0.00  0.00    +0.000 C 
ENDBRANCH   8   9
ENDBRANCH   5   8
ENDBRANCH   1   2
BRANCH   1  19
ATOM     17  O   UNL     1      50.667   4.774  19.773  0.00  0.00    +0.000 OA
ATOM     18  C   UNL     1      50.990   4.207  18.733  0.00  0.00    +0.000 C 
ATOM     19  N   UNL     1      50.142   4.097  17.662  0.00  0.00    +0.000 N 
ATOM     20  H   UNL     1      50.389   3.478  16.898  0.00  0.00    +0.000 HD
BRANCH  18  21
ATOM     21  C   UNL     1      52.336   3.652  18.545  0.00  0.00    +0.000 A 
ATOM     22  C   UNL     1      53.451   4.375  18.946  0.00  0.00    +0.000 A 
ATOM     23  S   UNL     1      54.929   3.580  18.630  0.00  0.00    +0.000 S 
ATOM     24  C   UNL     1      54.127   2.225  17.988  0.00  0.00    +0.000 A 
ATOM     25  N   UNL     1      54.823   1.143  17.544  0.00  0.00    +0.000 NA
ATOM     26  C   UNL     1      54.084   0.170  17.121  0.00  0.00    +0.000 A 
ATOM     27  N   UNL     1      52.715   0.185  17.095  0.00  0.00    +0.000 N 
ATOM     28  C   UNL     1      51.973   1.279  17.459  0.00  0.00    +0.000 A 
ATOM     29  O   UNL     1      50.759   1.311  17.288  0.00  0.00    +0.000 OA
ATOM     30  C   UNL     1      52.754   2.386  17.989  0.00  0.00    +0.000 A 
ATOM     31  H   UNL     1      52.197  -0.597  16.722  0.00  0.00    +0.000 HD
ENDBRANCH  18  21
ENDBRANCH   1  19
TORSDOF 5
ENDMDL
MODEL 8
REMARK VINA RESULT:    -6.355      1.849      2.380
REMARK INTER + INTRA:          -9.456
REMARK INTER:                  -8.529
REMARK INTRA:                  -0.927
REMARK UNBOUND:                -1.244
REMARK  Name = 
REMARK  5 active torsions:
REMARK  status: ('A' for Active; 'I' for Inactive)
REMARK    1  A    between atoms: C_2  and  C_20
REMARK    2  A    between atoms: N_3  and  C_4
REMARK    3  A    between atoms: C_4  and  C_5
REMARK    4  A    between atoms: C_8  and  C_9
REMARK    5  A    between atoms: C_9  and  C_10
REMARK                            x       y       z     vdW  Elec       q    Type
REMARK                         _______ _______ _______ _____ _____    ______ ____
ROOT
ATOM      1  C   UNL     1      48.731   7.954  13.756  0.00  0.00    +0.000 C 
ENDROOT
BRANCH   1   2
ATOM      2  C   UNL     1      47.477   7.185  13.452  0.00  0.00    +0.000 A 
ATOM      3  C   UNL     1      46.393   7.764  12.788  0.00  0.00    +0.000 A 
ATOM      4  C   UNL     1      45.239   7.014  12.551  0.00  0.00    +0.000 A 
ATOM      5  C   UNL     1      45.199   5.689  12.976  0.00  0.00    +0.000 A 
ATOM      6  N   UNL     1      46.254   5.100  13.595  0.00  0.00    +0.000 NA
ATOM      7  C   UNL     1      47.361   5.850  13.810  0.00  0.00    +0.000 A 
BRANCH   5   8
ATOM      8  C   UNL     1      44.014   4.807  12.695  0.00  0.00    +0.000 C 
BRANCH   8   9
ATOM      9  C   UNL     1      44.332   3.531  11.938  0.00  0.00    +0.000 C 
ATOM     10  O   UNL     1      44.725   2.535  12.554  0.00  0.00    +0.000 OA
ATOM     11  N   UNL     1      44.075   3.497  10.570  0.00  0.00    +0.000 N 
ATOM     12  C   UNL     1      44.155   2.222   9.864  0.00  0.00    +0.000 C 
ATOM     13  C   UNL     1      45.458   2.123   9.075  0.00  0.00    +0.000 C 
ATOM     14  C   UNL     1      45.606   3.320   8.134  0.00  0.00    +0.000 C 
ATOM     15  C   UNL     1      45.456   4.641   8.895  0.00  0.00    +0.000 C 
ATOM     16  C   UNL     1      44.154   4.672   9.701  0.00  0.00    +0.000 C 
ENDBRANCH   8   9
ENDBRANCH   5   8
ENDBRANCH   1   2
BRANCH   1  19
ATOM     17  O   UNL     1      51.370   7.812  14.734  0.00  0.00    +0.000 OA
ATOM     18  C   UNL     1      50.438   7.789  15.533  0.00  0.00    +0.000 C 
ATOM     19  N   UNL     1      49.127   7.807  15.133  0.00  0.00    +0.000 N 
ATOM     20  H   UNL     1      48.402   7.959  15.825  0.00  0.00    +0.000 HD
BRANCH  18  21
ATOM     21  C   UNL     1      50.666   7.685  16.980  0.00  0.00    +0.000 A 
ATOM     22  C   UNL     1      51.272   8.727  17.666  0.00  0.00    +0.000 A 
ATOM     23  S   UNL     1      51.472   8.419  19.334  0.00  0.00    +0.000 S 
ATOM     24  C   UNL     1      50.715   6.903  19.202  0.00  0.00    +0.000 A 
ATOM     25  N   UNL     1      50.533   6.110  20.294  0.00  0.00    +0.000 NA
ATOM     26  C   UNL     1      49.907   5.005  20.055  0.00  0.00    +0.000 A 
ATOM     27  N   UNL     1      49.453   4.618  18.822  0.00  0.00    +0.000 N 
ATOM     28  C   UNL     1      49.680   5.344  17.681  0.00  0.00    +0.000 A 
ATOM     29  O   UNL     1      49.388   4.901  16.575  0.00  0.00    +0.000 OA
ATOM     30  C   UNL     1      50.339   6.622  17.901  0.00  0.00    +0.000 A 
ATOM     31  H   UNL     1      48.999   3.726  18.696  0.00  0.00    +0.000 HD
ENDBRANCH  18  21
ENDBRANCH   1  19
TORSDOF 5
ENDMDL
MODEL 9
REMARK VINA RESULT:    -6.353      4.610      7.859
REMARK INTER + INTRA:          -9.454
REMARK INTER:                  -8.401
REMARK INTRA:                  -1.053
REMARK UNBOUND:                -1.244
REMARK  Name = 
REMARK  5 active torsions:
REMARK  status: ('A' for Active; 'I' for Inactive)
REMARK    1  A    between atoms: C_2  and  C_20
REMARK    2  A    between atoms: N_3  and  C_4
REMARK    3  A    between atoms: C_4  and  C_5
REMARK    4  A    between atoms: C_8  and  C_9
REMARK    5  A    between atoms: C_9  and  C_10
REMARK                            x       y       z     vdW  Elec       q    Type
REMARK                         _______ _______ _______ _____ _____    ______ ____
ROOT
ATOM      1  C   UNL     1      46.270   8.176  12.890  0.00  0.00    +0.000 C 
ENDROOT
BRANCH   1   2
ATOM      2  C   UNL     1      47.720   8.376  12.555  0.00  0.00    +0.000 A 
ATOM      3  C   UNL     1      48.393   7.558  11.645  0.00  0.00    +0.000 A 
ATOM      4  C   UNL     1      49.749   7.770  11.387  0.00  0.00    +0.000 A 
ATOM      5  C   UNL     1      50.404   8.810  12.042  0.00  0.00    +0.000 A 
ATOM      6  N   UNL     1      49.759   9.634  12.907  0.00  0.00    +0.000 NA
ATOM      7  C   UNL     1      48.444   9.407  13.137  0.00  0.00    +0.000 A 
BRANCH   5   8
ATOM      8  C   UNL     1      51.845   9.134  11.762  0.00  0.00    +0.000 C 
BRANCH   8   9
ATOM      9  C   UNL     1      52.137   9.581  10.342  0.00  0.00    +0.000 C 
ATOM     10  O   UNL     1      51.653  10.637   9.921  0.00  0.00    +0.000 OA
ATOM     11  N   UNL     1      53.027   8.825   9.584  0.00  0.00    +0.000 N 
ATOM     12  C   UNL     1      53.498   9.352   8.307  0.00  0.00    +0.000 C 
ATOM     13  C   UNL     1      52.775   8.676   7.146  0.00  0.00    +0.000 C 
ATOM     14  C   UNL     1      52.920   7.156   7.237  0.00  0.00    +0.000 C 
ATOM     15  C   UNL     1      52.476   6.642   8.610  0.00  0.00    +0.000 C 
ATOM     16  C   UNL     1      53.200   7.380   9.739  0.00  0.00    +0.000 C 
ENDBRANCH   8   9
ENDBRANCH   5   8
ENDBRANCH   1   2
BRANCH   1  19
ATOM     17  O   UNL     1      43.978   7.552  11.374  0.00  0.00    +0.000 OA
ATOM     18  C   UNL     1      44.708   6.640  11.750  0.00  0.00    +0.000 C 
ATOM     19  N   UNL     1      45.815   6.858  12.529  0.00  0.00    +0.000 N 
ATOM     20  H   UNL     1      46.477   6.103  12.668  0.00  0.00    +0.000 HD
BRANCH  18  21
ATOM     21  C   UNL     1      44.413   5.237  11.433  0.00  0.00    +0.000 A 
ATOM     22  C   UNL     1      43.617   4.483  12.283  0.00  0.00    +0.000 A 
ATOM     23  S   UNL     1      43.400   2.871  11.763  0.00  0.00    +0.000 S 
ATOM     24  C   UNL     1      44.327   3.139  10.363  0.00  0.00    +0.000 A 
ATOM     25  N   UNL     1      44.521   2.150   9.449  0.00  0.00    +0.000 NA
ATOM     26  C   UNL     1      45.209   2.505   8.414  0.00  0.00    +0.000 A 
ATOM     27  N   UNL     1      45.727   3.758   8.215  0.00  0.00    +0.000 N 
ATOM     28  C   UNL     1      45.625   4.764   9.141  0.00  0.00    +0.000 A 
ATOM     29  O   UNL     1      46.221   5.825   8.997  0.00  0.00    +0.000 OA
ATOM     30  C   UNL     1      44.817   4.431  10.305  0.00  0.00    +0.000 A 
ATOM     31  H   UNL     1      46.284   3.962   7.399  0.00  0.00    +0.000 HD
ENDBRANCH  18  21
ENDBRANCH   1  19
TORSDOF 5
ENDMDL
