MODEL 1
REMARK VINA RESULT:    -7.791      0.000      0.000
REMARK INTER + INTRA:         -12.592
REMARK INTER:                 -11.663
REMARK INTRA:                  -0.929
REMARK UNBOUND:                -0.929
REMARK  Name = 
REMARK  10 active torsions:
REMARK  status: ('A' for Active; 'I' for Inactive)
REMARK    1  A    between atoms: C_1  and  C_2
REMARK    2  A    between atoms: C_2  and  N_3
REMARK    3  A    between atoms: C_2  and  C_19
REMARK    4  A    between atoms: N_3  and  C_4
REMARK    5  A    between atoms: C_4  and  C_5
REMARK    6  A    between atoms: C_8  and  C_9
REMARK    7  A    between atoms: C_9  and  O_10
REMARK    8  A    between atoms: C_9  and  C_11
REMARK    9  A    between atoms: C_11  and  N_12
REMARK   10  A    between atoms: C_19  and  C_21
REMARK                            x       y       z     vdW  Elec       q    Type
REMARK                         _______ _______ _______ _____ _____    ______ ____
ROOT
ATOM      1  N   UNL     1      47.915   4.706  14.877  0.00  0.00    +0.000 NA
ATOM      2  H   UNL     1      48.457   3.851  14.981  0.00  0.00    +0.000 HD
ENDROOT
BRANCH   1   4
ATOM      3  C   UNL     1      49.260   6.674  15.641  0.00  0.00    +0.000 C 
ATOM      4  C   UNL     1      48.228   5.605  16.014  0.00  0.00    +0.000 C 
BRANCH   4   5
ATOM      5  C   UNL     1      48.628   4.845  17.307  0.00  0.00    +0.000 C 
ATOM      6  O   UNL     1      47.763   4.481  18.107  0.00  0.00    +0.000 OA
BRANCH   5   7
ATOM      7  C   UNL     1      50.049   4.569  17.595  0.00  0.00    +0.000 A 
ATOM      8  C   UNL     1      50.932   5.498  18.112  0.00  0.00    +0.000 A 
ATOM      9  S   UNL     1      52.435   4.820  18.561  0.00  0.00    +0.000 S 
ATOM     10  C   UNL     1      51.962   3.276  18.033  0.00  0.00    +0.000 A 
ATOM     11  N   UNL     1      52.774   2.197  18.186  0.00  0.00    +0.000 NA
ATOM     12  C   UNL     1      52.272   1.093  17.745  0.00  0.00    +0.000 A 
ATOM     13  N   UNL     1      51.050   0.974  17.129  0.00  0.00    +0.000 N 
ATOM     14  C   UNL     1      50.262   2.062  16.827  0.00  0.00    +0.000 A 
ATOM     15  O   UNL     1      49.347   1.984  16.013  0.00  0.00    +0.000 OA
ATOM     16  C   UNL     1      50.709   3.295  17.451  0.00  0.00    +0.000 A 
ATOM     17  H   UNL     1      50.771   0.101  16.707  0.00  0.00    +0.000 HD
ENDBRANCH   5   7
ENDBRANCH   4   5
ENDBRANCH   1   4
BRANCH   1  18
ATOM     18  C   UNL     1      46.502   4.341  14.743  0.00  0.00    +0.000 C 
BRANCH  18  19
ATOM     19  C   UNL     1      46.005   4.566  13.327  0.00  0.00    +0.000 A 
ATOM     20  C   UNL     1      46.216   5.779  12.651  0.00  0.00    +0.000 A 
ATOM     21  C   UNL     1      45.864   5.928  11.299  0.00  0.00    +0.000 A 
ATOM     22  C   UNL     1      45.305   4.859  10.586  0.00  0.00    +0.000 A 
ATOM     23  C   UNL     1      45.018   3.677  11.290  0.00  0.00    +0.000 A 
ATOM     24  C   UNL     1      45.371   3.530  12.638  0.00  0.00    +0.000 A 
BRANCH  22  25
ATOM     25  C   UNL     1      45.097   4.936   9.071  0.00  0.00    +0.000 C 
BRANCH  25  26
ATOM     26  O   UNL     1      43.803   4.427   8.731  0.00  0.00    +0.000 OA
ATOM     27  H   UNL     1      43.847   4.057   7.834  0.00  0.00    +0.000 HD
ENDBRANCH  25  26
BRANCH  25  28
ATOM     28  C   UNL     1      46.216   4.106   8.359  0.00  0.00    +0.000 C 
BRANCH  28  29
ATOM     29  N   UNL     1      45.921   2.990   7.448  0.00  0.00    +0.000 NA
ATOM     30  C   UNL     1      46.615   3.062   6.168  0.00  0.00    +0.000 C 
ATOM     31  C   UNL     1      47.736   2.040   6.239  0.00  0.00    +0.000 C 
ATOM     32  O   UNL     1      47.541   1.287   7.442  0.00  0.00    +0.000 OA
ATOM     33  C   UNL     1      46.285   1.687   7.973  0.00  0.00    +0.000 C 
ENDBRANCH  28  29
ENDBRANCH  25  28
ENDBRANCH  22  25
ENDBRANCH  18  19
ENDBRANCH   1  18
TORSDOF 9
ENDMDL
MODEL 2
REMARK VINA RESULT:    -7.703      1.150      1.447
REMARK INTER + INTRA:         -12.460
REMARK INTER:                 -11.377
REMARK INTRA:                  -1.082
REMARK UNBOUND:                -0.929
REMARK  Name = 
REMARK  10 active torsions:
REMARK  status: ('A' for Active; 'I' for Inactive)
REMARK    1  A    between atoms: C_1  and  C_2
REMARK    2  A    between atoms: C_2  and  N_3
REMARK    3  A    between atoms: C_2  and  C_19
REMARK    4  A    between atoms: N_3  and  C_4
REMARK    5  A    between atoms: C_4  and  C_5
REMARK    6  A    between atoms: C_8  and  C_9
REMARK    7  A    between atoms: C_9  and  O_10
REMARK    8  A    between atoms: C_9  and  C_11
REMARK    9  A    between atoms: C_11  and  N_12
REMARK   10  A    between atoms: C_19  and  C_21
REMARK                            x       y       z     vdW  Elec       q    Type
REMARK                         _______ _______ _______ _____ _____    ______ ____
ROOT
ATOM      1  N   UNL     1      48.381   5.323  15.501  0.00  0.00    +0.000 NA
ATOM      2  H   UNL     1      47.739   4.533  15.488  0.00  0.00    +0.000 HD
ENDROOT
BRANCH   1   4
ATOM      3  C   UNL     1      48.958   7.359  16.839  0.00  0.00    +0.000 C 
ATOM      4  C   UNL     1      48.297   5.977  16.830  0.00  0.00    +0.000 C 
BRANCH   4   5
ATOM      5  C   UNL     1      48.816   5.084  17.989  0.00  0.00    +0.000 C 
ATOM      6  O   UNL     1      48.046   4.707  18.875  0.00  0.00    +0.000 OA
BRANCH   5   7
ATOM      7  C   UNL     1      50.239   4.696  18.046  0.00  0.00    +0.000 A 
ATOM      8  C   UNL     1      51.247   5.510  18.524  0.00  0.00    +0.000 A 
ATOM      9  S   UNL     1      52.744   4.700  18.689  0.00  0.00    +0.000 S 
ATOM     10  C   UNL     1      52.093   3.253  18.083  0.00  0.00    +0.000 A 
ATOM     11  N   UNL     1      52.837   2.118  18.014  0.00  0.00    +0.000 NA
ATOM     12  C   UNL     1      52.201   1.099  17.541  0.00  0.00    +0.000 A 
ATOM     13  N   UNL     1      50.904   1.119  17.095  0.00  0.00    +0.000 N 
ATOM     14  C   UNL     1      50.164   2.278  17.014  0.00  0.00    +0.000 A 
ATOM     15  O   UNL     1      49.145   2.341  16.332  0.00  0.00    +0.000 OA
ATOM     16  C   UNL     1      50.778   3.408  17.687  0.00  0.00    +0.000 A 
ATOM     17  H   UNL     1      50.507   0.314  16.632  0.00  0.00    +0.000 HD
ENDBRANCH   5   7
ENDBRANCH   4   5
ENDBRANCH   1   4
BRANCH   1  18
ATOM     18  C   UNL     1      48.070   6.189  14.362  0.00  0.00    +0.000 C 
BRANCH  18  19
ATOM     19  C   UNL     1      46.905   5.643  13.555  0.00  0.00    +0.000 A 
ATOM     20  C   UNL     1      46.089   6.479  12.775  0.00  0.00    +0.000 A 
ATOM     21  C   UNL     1      45.098   5.946  11.934  0.00  0.00    +0.000 A 
ATOM     22  C   UNL     1      44.910   4.560  11.842  0.00  0.00    +0.000 A 
ATOM     23  C   UNL     1      45.672   3.736  12.688  0.00  0.00    +0.000 A 
ATOM     24  C   UNL     1      46.661   4.269  13.525  0.00  0.00    +0.000 A 
BRANCH  22  25
ATOM     25  C   UNL     1      43.976   3.952  10.793  0.00  0.00    +0.000 C 
BRANCH  25  26
ATOM     26  O   UNL     1      42.721   3.615  11.395  0.00  0.00    +0.000 OA
ATOM     27  H   UNL     1      42.840   3.600  12.359  0.00  0.00    +0.000 HD
ENDBRANCH  25  26
BRANCH  25  28
ATOM     28  C   UNL     1      44.651   2.677  10.185  0.00  0.00    +0.000 C 
BRANCH  28  29
ATOM     29  N   UNL     1      44.670   2.399   8.742  0.00  0.00    +0.000 NA
ATOM     30  C   UNL     1      44.845   3.581   7.907  0.00  0.00    +0.000 C 
ATOM     31  C   UNL     1      46.281   3.542   7.417  0.00  0.00    +0.000 C 
ATOM     32  O   UNL     1      46.823   2.274   7.805  0.00  0.00    +0.000 OA
ATOM     33  C   UNL     1      45.741   1.513   8.325  0.00  0.00    +0.000 C 
ENDBRANCH  28  29
ENDBRANCH  25  28
ENDBRANCH  22  25
ENDBRANCH  18  19
ENDBRANCH   1  18
TORSDOF 9
ENDMDL
MODEL 3
REMARK VINA RESULT:    -7.671      2.551      3.348
REMARK INTER + INTRA:         -12.412
REMARK INTER:                 -11.066
REMARK INTRA:                  -1.346
REMARK UNBOUND:                -0.929
REMARK  Name = 
REMARK  10 active torsions:
REMARK  status: ('A' for Active; 'I' for Inactive)
REMARK    1  A    between atoms: C_1  and  C_2
REMARK    2  A    between atoms: C_2  and  N_3
REMARK    3  A    between atoms: C_2  and  C_19
REMARK    4  A    between atoms: N_3  and  C_4
REMARK    5  A    between atoms: C_4  and  C_5
REMARK    6  A    between atoms: C_8  and  C_9
REMARK    7  A    between atoms: C_9  and  O_10
REMARK    8  A    between atoms: C_9  and  C_11
REMARK    9  A    between atoms: C_11  and  N_12
REMARK   10  A    between atoms: C_19  and  C_21
REMARK                            x       y       z     vdW  Elec       q    Type
REMARK                         _______ _______ _______ _____ _____    ______ ____
ROOT
ATOM      1  N   UNL     1      47.031   8.645  12.783  0.00  0.00    +0.000 NA
ATOM      2  H   UNL     1      47.459   8.063  12.066  0.00  0.00    +0.000 HD
ENDROOT
BRANCH   1   4
ATOM      3  C   UNL     1      48.664   9.761  14.319  0.00  0.00    +0.000 C 
ATOM      4  C   UNL     1      47.823   8.513  14.030  0.00  0.00    +0.000 C 
BRANCH   4   5
ATOM      5  C   UNL     1      48.678   7.218  14.083  0.00  0.00    +0.000 C 
ATOM      6  O   UNL     1      49.101   6.709  13.043  0.00  0.00    +0.000 OA
BRANCH   5   7
ATOM      7  C   UNL     1      48.975   6.579  15.381  0.00  0.00    +0.000 A 
ATOM      8  C   UNL     1      49.871   7.079  16.306  0.00  0.00    +0.000 A 
ATOM      9  S   UNL     1      49.821   6.258  17.804  0.00  0.00    +0.000 S 
ATOM     10  C   UNL     1      48.632   5.183  17.240  0.00  0.00    +0.000 A 
ATOM     11  N   UNL     1      48.087   4.242  18.054  0.00  0.00    +0.000 NA
ATOM     12  C   UNL     1      47.191   3.507  17.484  0.00  0.00    +0.000 A 
ATOM     13  N   UNL     1      46.818   3.601  16.167  0.00  0.00    +0.000 N 
ATOM     14  C   UNL     1      47.446   4.442  15.275  0.00  0.00    +0.000 A 
ATOM     15  O   UNL     1      47.327   4.293  14.062  0.00  0.00    +0.000 OA
ATOM     16  C   UNL     1      48.338   5.398  15.907  0.00  0.00    +0.000 A 
ATOM     17  H   UNL     1      46.193   2.920  15.760  0.00  0.00    +0.000 HD
ENDBRANCH   5   7
ENDBRANCH   4   5
ENDBRANCH   1   4
BRANCH   1  18
ATOM     18  C   UNL     1      45.621   8.268  12.900  0.00  0.00    +0.000 C 
BRANCH  18  19
ATOM     19  C   UNL     1      45.362   6.899  12.297  0.00  0.00    +0.000 A 
ATOM     20  C   UNL     1      44.500   5.972  12.907  0.00  0.00    +0.000 A 
ATOM     21  C   UNL     1      44.170   4.763  12.273  0.00  0.00    +0.000 A 
ATOM     22  C   UNL     1      44.684   4.458  11.005  0.00  0.00    +0.000 A 
ATOM     23  C   UNL     1      45.610   5.350  10.439  0.00  0.00    +0.000 A 
ATOM     24  C   UNL     1      45.938   6.557  11.072  0.00  0.00    +0.000 A 
BRANCH  22  25
ATOM     25  C   UNL     1      44.186   3.244  10.215  0.00  0.00    +0.000 C 
BRANCH  25  26
ATOM     26  O   UNL     1      43.469   2.360  11.082  0.00  0.00    +0.000 OA
ATOM     27  H   UNL     1      44.087   2.019  11.749  0.00  0.00    +0.000 HD
ENDBRANCH  25  26
BRANCH  25  28
ATOM     28  C   UNL     1      45.414   2.511   9.579  0.00  0.00    +0.000 C 
BRANCH  28  29
ATOM     29  N   UNL     1      45.489   2.182   8.148  0.00  0.00    +0.000 NA
ATOM     30  C   UNL     1      45.967   3.273   7.307  0.00  0.00    +0.000 C 
ATOM     31  C   UNL     1      47.400   2.925   6.942  0.00  0.00    +0.000 C 
ATOM     32  O   UNL     1      47.637   1.589   7.399  0.00  0.00    +0.000 OA
ATOM     33  C   UNL     1      46.385   1.083   7.841  0.00  0.00    +0.000 C 
ENDBRANCH  28  29
ENDBRANCH  25  28
ENDBRANCH  22  25
ENDBRANCH  18  19
ENDBRANCH   1  18
TORSDOF 9
ENDMDL
MODEL 4
REMARK VINA RESULT:    -7.433      1.970      2.648
REMARK INTER + INTRA:         -12.055
REMARK INTER:                 -10.851
REMARK INTRA:                  -1.204
REMARK UNBOUND:                -0.929
REMARK  Name = 
REMARK  10 active torsions:
REMARK  status: ('A' for Active; 'I' for Inactive)
REMARK    1  A    between atoms: C_1  and  C_2
REMARK    2  A    between atoms: C_2  and  N_3
REMARK    3  A    between atoms: C_2  and  C_19
REMARK    4  A    between atoms: N_3  and  C_4
REMARK    5  A    between atoms: C_4  and  C_5
REMARK    6  A    between atoms: C_8  and  C_9
REMARK    7  A    between atoms: C_9  and  O_10
REMARK    8  A    between atoms: C_9  and  C_11
REMARK    9  A    between atoms: C_11  and  N_12
REMARK   10  A    between atoms: C_19  and  C_21
REMARK                            x       y       z     vdW  Elec       q    Type
REMARK                         _______ _______ _______ _____ _____    ______ ____
ROOT
ATOM      1  N   UNL     1      49.033   6.517  14.470  0.00  0.00    +0.000 NA
ATOM      2  H   UNL     1      48.602   5.653  14.793  0.00  0.00    +0.000 HD
ENDROOT
BRANCH   1   4
ATOM      3  C   UNL     1      51.138   7.337  15.549  0.00  0.00    +0.000 C 
ATOM      4  C   UNL     1      49.613   7.220  15.640  0.00  0.00    +0.000 C 
BRANCH   4   5
ATOM      5  C   UNL     1      49.161   6.626  17.001  0.00  0.00    +0.000 C 
ATOM      6  O   UNL     1      49.021   7.359  17.983  0.00  0.00    +0.000 OA
BRANCH   5   7
ATOM      7  C   UNL     1      48.912   5.177  17.132  0.00  0.00    +0.000 A 
ATOM      8  C   UNL     1      47.677   4.583  16.960  0.00  0.00    +0.000 A 
ATOM      9  S   UNL     1      47.750   2.875  16.935  0.00  0.00    +0.000 S 
ATOM     10  C   UNL     1      49.428   2.885  17.199  0.00  0.00    +0.000 A 
ATOM     11  N   UNL     1      50.146   1.732  17.225  0.00  0.00    +0.000 NA
ATOM     12  C   UNL     1      51.410   1.903  17.426  0.00  0.00    +0.000 A 
ATOM     13  N   UNL     1      52.016   3.116  17.643  0.00  0.00    +0.000 N 
ATOM     14  C   UNL     1      51.305   4.289  17.766  0.00  0.00    +0.000 A 
ATOM     15  O   UNL     1      51.807   5.292  18.266  0.00  0.00    +0.000 OA
ATOM     16  C   UNL     1      49.910   4.167  17.383  0.00  0.00    +0.000 A 
ATOM     17  H   UNL     1      52.989   3.164  17.906  0.00  0.00    +0.000 HD
ENDBRANCH   5   7
ENDBRANCH   4   5
ENDBRANCH   1   4
BRANCH   1  18
ATOM     18  C   UNL     1      48.031   7.279  13.721  0.00  0.00    +0.000 C 
BRANCH  18  19
ATOM     19  C   UNL     1      47.095   6.360  12.956  0.00  0.00    +0.000 A 
ATOM     20  C   UNL     1      46.503   5.237  13.558  0.00  0.00    +0.000 A 
ATOM     21  C   UNL     1      45.542   4.472  12.877  0.00  0.00    +0.000 A 
ATOM     22  C   UNL     1      45.139   4.820  11.581  0.00  0.00    +0.000 A 
ATOM     23  C   UNL     1      45.796   5.892  10.954  0.00  0.00    +0.000 A 
ATOM     24  C   UNL     1      46.754   6.656  11.634  0.00  0.00    +0.000 A 
BRANCH  22  25
ATOM     25  C   UNL     1      43.959   4.122  10.899  0.00  0.00    +0.000 C 
BRANCH  25  26
ATOM     26  O   UNL     1      42.898   3.929  11.841  0.00  0.00    +0.000 OA
ATOM     27  H   UNL     1      42.826   4.728  12.388  0.00  0.00    +0.000 HD
ENDBRANCH  25  26
BRANCH  25  28
ATOM     28  C   UNL     1      44.440   2.748  10.326  0.00  0.00    +0.000 C 
BRANCH  28  29
ATOM     29  N   UNL     1      44.500   2.465   8.885  0.00  0.00    +0.000 NA
ATOM     30  C   UNL     1      44.773   3.632   8.056  0.00  0.00    +0.000 C 
ATOM     31  C   UNL     1      46.223   3.512   7.623  0.00  0.00    +0.000 C 
ATOM     32  O   UNL     1      46.677   2.217   8.033  0.00  0.00    +0.000 OA
ATOM     33  C   UNL     1      45.535   1.519   8.512  0.00  0.00    +0.000 C 
ENDBRANCH  28  29
ENDBRANCH  25  28
ENDBRANCH  22  25
ENDBRANCH  18  19
ENDBRANCH   1  18
TORSDOF 9
ENDMDL
MODEL 5
REMARK VINA RESULT:    -7.051      3.213      4.385
REMARK INTER + INTRA:         -11.484
REMARK INTER:                  -9.896
REMARK INTRA:                  -1.588
REMARK UNBOUND:                -0.929
REMARK  Name = 
REMARK  10 active torsions:
REMARK  status: ('A' for Active; 'I' for Inactive)
REMARK    1  A    between atoms: C_1  and  C_2
REMARK    2  A    between atoms: C_2  and  N_3
REMARK    3  A    between atoms: C_2  and  C_19
REMARK    4  A    between atoms: N_3  and  C_4
REMARK    5  A    between atoms: C_4  and  C_5
REMARK    6  A    between atoms: C_8  and  C_9
REMARK    7  A    between atoms: C_9  and  O_10
REMARK    8  A    between atoms: C_9  and  C_11
REMARK    9  A    between atoms: C_11  and  N_12
REMARK   10  A    between atoms: C_19  and  C_21
REMARK                            x       y       z     vdW  Elec       q    Type
REMARK                         _______ _______ _______ _____ _____    ______ ____
ROOT
ATOM      1  N   UNL     1      47.840   9.003  15.324  0.00  0.00    +0.000 NA
ATOM      2  H   UNL     1      47.264   9.626  15.887  0.00  0.00    +0.000 HD
ENDROOT
BRANCH   1   4
ATOM      3  C   UNL     1      50.069  10.056  15.758  0.00  0.00    +0.000 C 
ATOM      4  C   UNL     1      49.156   8.848  15.988  0.00  0.00    +0.000 C 
BRANCH   4   5
ATOM      5  C   UNL     1      49.869   7.514  15.638  0.00  0.00    +0.000 C 
ATOM      6  O   UNL     1      50.442   7.381  14.554  0.00  0.00    +0.000 OA
BRANCH   5   7
ATOM      7  C   UNL     1      49.850   6.390  16.595  0.00  0.00    +0.000 A 
ATOM      8  C   UNL     1      50.756   6.233  17.627  0.00  0.00    +0.000 A 
ATOM      9  S   UNL     1      50.335   4.977  18.706  0.00  0.00    +0.000 S 
ATOM     10  C   UNL     1      48.956   4.579  17.797  0.00  0.00    +0.000 A 
ATOM     11  N   UNL     1      48.095   3.611  18.206  0.00  0.00    +0.000 NA
ATOM     12  C   UNL     1      47.090   3.431  17.415  0.00  0.00    +0.000 A 
ATOM     13  N   UNL     1      46.887   4.103  16.235  0.00  0.00    +0.000 N 
ATOM     14  C   UNL     1      47.807   4.987  15.716  0.00  0.00    +0.000 A 
ATOM     15  O   UNL     1      47.770   5.330  14.538  0.00  0.00    +0.000 OA
ATOM     16  C   UNL     1      48.863   5.341  16.647  0.00  0.00    +0.000 A 
ATOM     17  H   UNL     1      46.141   3.831  15.612  0.00  0.00    +0.000 HD
ENDBRANCH   5   7
ENDBRANCH   4   5
ENDBRANCH   1   4
BRANCH   1  18
ATOM     18  C   UNL     1      47.891   9.533  13.960  0.00  0.00    +0.000 C 
BRANCH  18  19
ATOM     19  C   UNL     1      47.198   8.603  12.979  0.00  0.00    +0.000 A 
ATOM     20  C   UNL     1      47.922   7.766  12.115  0.00  0.00    +0.000 A 
ATOM     21  C   UNL     1      47.270   6.820  11.306  0.00  0.00    +0.000 A 
ATOM     22  C   UNL     1      45.877   6.681  11.353  0.00  0.00    +0.000 A 
ATOM     23  C   UNL     1      45.153   7.578  12.156  0.00  0.00    +0.000 A 
ATOM     24  C   UNL     1      45.804   8.520  12.963  0.00  0.00    +0.000 A 
BRANCH  22  25
ATOM     25  C   UNL     1      45.167   5.532  10.632  0.00  0.00    +0.000 C 
BRANCH  25  26
ATOM     26  O   UNL     1      45.498   5.552   9.239  0.00  0.00    +0.000 OA
ATOM     27  H   UNL     1      45.241   6.416   8.877  0.00  0.00    +0.000 HD
ENDBRANCH  25  26
BRANCH  25  28
ATOM     28  C   UNL     1      43.621   5.682  10.829  0.00  0.00    +0.000 C 
BRANCH  28  29
ATOM     29  N   UNL     1      42.812   4.691  11.553  0.00  0.00    +0.000 NA
ATOM     30  C   UNL     1      43.177   3.306  11.282  0.00  0.00    +0.000 C 
ATOM     31  C   UNL     1      43.939   2.825  12.504  0.00  0.00    +0.000 C 
ATOM     32  O   UNL     1      43.823   3.848  13.500  0.00  0.00    +0.000 OA
ATOM     33  C   UNL     1      42.897   4.801  12.997  0.00  0.00    +0.000 C 
ENDBRANCH  28  29
ENDBRANCH  25  28
ENDBRANCH  22  25
ENDBRANCH  18  19
ENDBRANCH   1  18
TORSDOF 9
ENDMDL
MODEL 6
REMARK VINA RESULT:    -6.788      1.883      2.636
REMARK INTER + INTRA:         -11.090
REMARK INTER:                  -9.915
REMARK INTRA:                  -1.175
REMARK UNBOUND:                -0.929
REMARK  Name = 
REMARK  10 active torsions:
REMARK  status: ('A' for Active; 'I' for Inactive)
REMARK    1  A    between atoms: C_1  and  C_2
REMARK    2  A    between atoms: C_2  and  N_3
REMARK    3  A    between atoms: C_2  and  C_19
REMARK    4  A    between atoms: N_3  and  C_4
REMARK    5  A    between atoms: C_4  and  C_5
REMARK    6  A    between atoms: C_8  and  C_9
REMARK    7  A    between atoms: C_9  and  O_10
REMARK    8  A    between atoms: C_9  and  C_11
REMARK    9  A    between atoms: C_11  and  N_12
REMARK   10  A    between atoms: C_19  and  C_21
REMARK                            x       y       z     vdW  Elec       q    Type
REMARK                         _______ _______ _______ _____ _____    ______ ____
ROOT
ATOM      1  N   UNL     1      47.754   7.588  14.715  0.00  0.00    +0.000 NA
ATOM      2  H   UNL     1      46.989   7.231  15.284  0.00  0.00    +0.000 HD
ENDROOT
BRANCH   1   4
ATOM      3  C   UNL     1      49.954   8.773  14.868  0.00  0.00    +0.000 C 
ATOM      4  C   UNL     1      48.654   8.387  15.580  0.00  0.00    +0.000 C 
BRANCH   4   5
ATOM      5  C   UNL     1      48.927   7.728  16.959  0.00  0.00    +0.000 C 
ATOM      6  O   UNL     1      48.338   8.125  17.967  0.00  0.00    +0.000 OA
BRANCH   5   7
ATOM      7  C   UNL     1      49.908   6.631  17.074  0.00  0.00    +0.000 A 
ATOM      8  C   UNL     1      51.256   6.816  17.316  0.00  0.00    +0.000 A 
ATOM      9  S   UNL     1      52.089   5.358  17.636  0.00  0.00    +0.000 S 
ATOM     10  C   UNL     1      50.679   4.437  17.413  0.00  0.00    +0.000 A 
ATOM     11  N   UNL     1      50.677   3.091  17.603  0.00  0.00    +0.000 NA
ATOM     12  C   UNL     1      49.529   2.533  17.405  0.00  0.00    +0.000 A 
ATOM     13  N   UNL     1      48.395   3.190  16.998  0.00  0.00    +0.000 N 
ATOM     14  C   UNL     1      48.390   4.524  16.658  0.00  0.00    +0.000 A 
ATOM     15  O   UNL     1      47.473   5.015  16.006  0.00  0.00    +0.000 OA
ATOM     16  C   UNL     1      49.610   5.221  17.024  0.00  0.00    +0.000 A 
ATOM     17  H   UNL     1      47.562   2.673  16.753  0.00  0.00    +0.000 HD
ENDBRANCH   5   7
ENDBRANCH   4   5
ENDBRANCH   1   4
BRANCH   1  18
ATOM     18  C   UNL     1      47.181   8.312  13.578  0.00  0.00    +0.000 C 
BRANCH  18  19
ATOM     19  C   UNL     1      46.368   7.390  12.687  0.00  0.00    +0.000 A 
ATOM     20  C   UNL     1      46.800   6.090  12.377  0.00  0.00    +0.000 A 
ATOM     21  C   UNL     1      45.979   5.204  11.659  0.00  0.00    +0.000 A 
ATOM     22  C   UNL     1      44.698   5.594  11.246  0.00  0.00    +0.000 A 
ATOM     23  C   UNL     1      44.306   6.922  11.485  0.00  0.00    +0.000 A 
ATOM     24  C   UNL     1      45.125   7.804  12.203  0.00  0.00    +0.000 A 
BRANCH  22  25
ATOM     25  C   UNL     1      43.717   4.588  10.638  0.00  0.00    +0.000 C 
BRANCH  25  26
ATOM     26  O   UNL     1      42.679   4.291  11.578  0.00  0.00    +0.000 OA
ATOM     27  H   UNL     1      42.610   5.034  12.201  0.00  0.00    +0.000 HD
ENDBRANCH  25  26
BRANCH  25  28
ATOM     28  C   UNL     1      44.494   3.286  10.252  0.00  0.00    +0.000 C 
BRANCH  28  29
ATOM     29  N   UNL     1      44.467   2.717   8.896  0.00  0.00    +0.000 NA
ATOM     30  C   UNL     1      44.878   3.644   7.850  0.00  0.00    +0.000 C 
ATOM     31  C   UNL     1      46.282   3.230   7.446  0.00  0.00    +0.000 C 
ATOM     32  O   UNL     1      46.559   1.989   8.107  0.00  0.00    +0.000 OA
ATOM     33  C   UNL     1      45.345   1.575   8.718  0.00  0.00    +0.000 C 
ENDBRANCH  28  29
ENDBRANCH  25  28
ENDBRANCH  22  25
ENDBRANCH  18  19
ENDBRANCH   1  18
TORSDOF 9
ENDMDL
MODEL 7
REMARK VINA RESULT:    -6.784      2.879      9.155
REMARK INTER + INTRA:         -11.085
REMARK INTER:                 -10.040
REMARK INTRA:                  -1.045
REMARK UNBOUND:                -0.929
REMARK  Name = 
REMARK  10 active torsions:
REMARK  status: ('A' for Active; 'I' for Inactive)
REMARK    1  A    between atoms: C_1  and  C_2
REMARK    2  A    between atoms: C_2  and  N_3
REMARK    3  A    between atoms: C_2  and  C_19
REMARK    4  A    between atoms: N_3  and  C_4
REMARK    5  A    between atoms: C_4  and  C_5
REMARK    6  A    between atoms: C_8  and  C_9
REMARK    7  A    between atoms: C_9  and  O_10
REMARK    8  A    between atoms: C_9  and  C_11
REMARK    9  A    between atoms: C_11  and  N_12
REMARK   10  A    between atoms: C_19  and  C_21
REMARK                            x       y       z     vdW  Elec       q    Type
REMARK                         _______ _______ _______ _____ _____    ______ ____
ROOT
ATOM      1  N   UNL     1      46.004   7.130  13.225  0.00  0.00    +0.000 NA
ATOM      2  H   UNL     1      45.304   6.526  13.651  0.00  0.00    +0.000 HD
ENDROOT
BRANCH   1   4
ATOM      3  C   UNL     1      45.248   9.136  11.932  0.00  0.00    +0.000 C 
ATOM      4  C   UNL     1      45.477   7.621  11.929  0.00  0.00    +0.000 C 
BRANCH   4   5
ATOM      5  C   UNL     1      44.220   6.851  11.444  0.00  0.00    +0.000 C 
ATOM      6  O   UNL     1      43.236   7.466  11.027  0.00  0.00    +0.000 OA
BRANCH   5   7
ATOM      7  C   UNL     1      44.190   5.376  11.494  0.00  0.00    +0.000 A 
ATOM      8  C   UNL     1      43.641   4.645  12.530  0.00  0.00    +0.000 A 
ATOM      9  S   UNL     1      43.538   2.972  12.193  0.00  0.00    +0.000 S 
ATOM     10  C   UNL     1      44.267   3.175  10.672  0.00  0.00    +0.000 A 
ATOM     11  N   UNL     1      44.428   2.129   9.820  0.00  0.00    +0.000 NA
ATOM     12  C   UNL     1      44.988   2.443   8.700  0.00  0.00    +0.000 A 
ATOM     13  N   UNL     1      45.438   3.697   8.369  0.00  0.00    +0.000 N 
ATOM     14  C   UNL     1      45.423   4.750   9.257  0.00  0.00    +0.000 A 
ATOM     15  O   UNL     1      46.102   5.755   9.069  0.00  0.00    +0.000 OA
ATOM     16  C   UNL     1      44.654   4.485  10.459  0.00  0.00    +0.000 A 
ATOM     17  H   UNL     1      45.968   3.846   7.523  0.00  0.00    +0.000 HD
ENDBRANCH   5   7
ENDBRANCH   4   5
ENDBRANCH   1   4
BRANCH   1  18
ATOM     18  C   UNL     1      47.264   6.389  13.143  0.00  0.00    +0.000 C 
BRANCH  18  19
ATOM     19  C   UNL     1      47.536   5.615  14.421  0.00  0.00    +0.000 A 
ATOM     20  C   UNL     1      47.088   4.296  14.597  0.00  0.00    +0.000 A 
ATOM     21  C   UNL     1      47.457   3.549  15.729  0.00  0.00    +0.000 A 
ATOM     22  C   UNL     1      48.295   4.103  16.706  0.00  0.00    +0.000 A 
ATOM     23  C   UNL     1      48.669   5.450  16.566  0.00  0.00    +0.000 A 
ATOM     24  C   UNL     1      48.302   6.192  15.435  0.00  0.00    +0.000 A 
BRANCH  22  25
ATOM     25  C   UNL     1      48.865   3.249  17.842  0.00  0.00    +0.000 C 
BRANCH  25  26
ATOM     26  O   UNL     1      48.009   3.327  18.987  0.00  0.00    +0.000 OA
ATOM     27  H   UNL     1      48.238   2.601  19.589  0.00  0.00    +0.000 HD
ENDBRANCH  25  26
BRANCH  25  28
ATOM     28  C   UNL     1      50.301   3.761  18.196  0.00  0.00    +0.000 C 
BRANCH  28  29
ATOM     29  N   UNL     1      51.498   3.349  17.449  0.00  0.00    +0.000 NA
ATOM     30  C   UNL     1      52.694   4.122  17.760  0.00  0.00    +0.000 C 
ATOM     31  C   UNL     1      53.555   3.230  18.637  0.00  0.00    +0.000 C 
ATOM     32  O   UNL     1      52.947   1.934  18.643  0.00  0.00    +0.000 OA
ATOM     33  C   UNL     1      51.897   1.974  17.686  0.00  0.00    +0.000 C 
ENDBRANCH  28  29
ENDBRANCH  25  28
ENDBRANCH  22  25
ENDBRANCH  18  19
ENDBRANCH   1  18
TORSDOF 9
ENDMDL
MODEL 8
REMARK VINA RESULT:    -6.652      2.638      3.739
REMARK INTER + INTRA:         -10.886
REMARK INTER:                  -9.662
REMARK INTRA:                  -1.224
REMARK UNBOUND:                -0.929
REMARK  Name = 
REMARK  10 active torsions:
REMARK  status: ('A' for Active; 'I' for Inactive)
REMARK    1  A    between atoms: C_1  and  C_2
REMARK    2  A    between atoms: C_2  and  N_3
REMARK    3  A    between atoms: C_2  and  C_19
REMARK    4  A    between atoms: N_3  and  C_4
REMARK    5  A    between atoms: C_4  and  C_5
REMARK    6  A    between atoms: C_8  and  C_9
REMARK    7  A    between atoms: C_9  and  O_10
REMARK    8  A    between atoms: C_9  and  C_11
REMARK    9  A    between atoms: C_11  and  N_12
REMARK   10  A    between atoms: C_19  and  C_21
REMARK                            x       y       z     vdW  Elec       q    Type
REMARK                         _______ _______ _______ _____ _____    ______ ____
ROOT
ATOM      1  N   UNL     1      50.568   6.839  15.962  0.00  0.00    +0.000 NA
ATOM      2  H   UNL     1      49.916   6.069  15.828  0.00  0.00    +0.000 HD
ENDROOT
BRANCH   1   4
ATOM      3  C   UNL     1      51.496   8.136  17.892  0.00  0.00    +0.000 C 
ATOM      4  C   UNL     1      50.257   7.501  17.252  0.00  0.00    +0.000 C 
BRANCH   4   5
ATOM      5  C   UNL     1      49.501   6.583  18.249  0.00  0.00    +0.000 C 
ATOM      6  O   UNL     1      49.267   6.969  19.396  0.00  0.00    +0.000 OA
BRANCH   5   7
ATOM      7  C   UNL     1      49.072   5.233  17.833  0.00  0.00    +0.000 A 
ATOM      8  C   UNL     1      47.815   4.934  17.343  0.00  0.00    +0.000 A 
ATOM      9  S   UNL     1      47.695   3.346  16.723  0.00  0.00    +0.000 S 
ATOM     10  C   UNL     1      49.307   3.001  17.134  0.00  0.00    +0.000 A 
ATOM     11  N   UNL     1      49.878   1.809  16.819  0.00  0.00    +0.000 NA
ATOM     12  C   UNL     1      51.110   1.700  17.188  0.00  0.00    +0.000 A 
ATOM     13  N   UNL     1      51.812   2.658  17.877  0.00  0.00    +0.000 N 
ATOM     14  C   UNL     1      51.230   3.817  18.339  0.00  0.00    +0.000 A 
ATOM     15  O   UNL     1      51.766   4.500  19.207  0.00  0.00    +0.000 OA
ATOM     16  C   UNL     1      49.901   4.053  17.805  0.00  0.00    +0.000 A 
ATOM     17  H   UNL     1      52.736   2.460  18.233  0.00  0.00    +0.000 HD
ENDBRANCH   5   7
ENDBRANCH   4   5
ENDBRANCH   1   4
BRANCH   1  18
ATOM     18  C   UNL     1      50.502   7.709  14.785  0.00  0.00    +0.000 C 
BRANCH  18  19
ATOM     19  C   UNL     1      49.333   7.339  13.889  0.00  0.00    +0.000 A 
ATOM     20  C   UNL     1      48.368   6.396  14.282  0.00  0.00    +0.000 A 
ATOM     21  C   UNL     1      47.225   6.160  13.500  0.00  0.00    +0.000 A 
ATOM     22  C   UNL     1      47.013   6.872  12.313  0.00  0.00    +0.000 A 
ATOM     23  C   UNL     1      48.022   7.751  11.884  0.00  0.00    +0.000 A 
ATOM     24  C   UNL     1      49.161   7.988  12.665  0.00  0.00    +0.000 A 
BRANCH  22  25
ATOM     25  C   UNL     1      45.688   6.773  11.551  0.00  0.00    +0.000 C 
BRANCH  25  26
ATOM     26  O   UNL     1      44.632   7.339  12.335  0.00  0.00    +0.000 OA
ATOM     27  H   UNL     1      44.123   7.943  11.770  0.00  0.00    +0.000 HD
ENDBRANCH  25  26
BRANCH  25  28
ATOM     28  C   UNL     1      45.391   5.269  11.236  0.00  0.00    +0.000 C 
BRANCH  28  29
ATOM     29  N   UNL     1      44.245   4.839  10.422  0.00  0.00    +0.000 NA
ATOM     30  C   UNL     1      44.610   4.143   9.195  0.00  0.00    +0.000 C 
ATOM     31  C   UNL     1      44.333   2.671   9.447  0.00  0.00    +0.000 C 
ATOM     32  O   UNL     1      43.648   2.582  10.702  0.00  0.00    +0.000 OA
ATOM     33  C   UNL     1      43.354   3.915  11.099  0.00  0.00    +0.000 C 
ENDBRANCH  28  29
ENDBRANCH  25  28
ENDBRANCH  22  25
ENDBRANCH  18  19
ENDBRANCH   1  18
TORSDOF 9
ENDMDL
MODEL 9
REMARK VINA RESULT:    -6.463      3.833      8.792
REMARK INTER + INTRA:         -10.604
REMARK INTER:                  -9.276
REMARK INTRA:                  -1.328
REMARK UNBOUND:                -0.929
REMARK  Name = 
REMARK  10 active torsions:
REMARK  status: ('A' for Active; 'I' for Inactive)
REMARK    1  A    between atoms: C_1  and  C_2
REMARK    2  A    between atoms: C_2  and  N_3
REMARK    3  A    between atoms: C_2  and  C_19
REMARK    4  A    between atoms: N_3  and  C_4
REMARK    5  A    between atoms: C_4  and  C_5
REMARK    6  A    between atoms: C_8  and  C_9
REMARK    7  A    between atoms: C_9  and  O_10
REMARK    8  A    between atoms: C_9  and  C_11
REMARK    9  A    between atoms: C_11  and  N_12
REMARK   10  A    between atoms: C_19  and  C_21
REMARK                            x       y       z     vdW  Elec       q    Type
REMARK                         _______ _______ _______ _____ _____    ______ ____
ROOT
ATOM      1  N   UNL     1      48.153   7.654  11.810  0.00  0.00    +0.000 NA
ATOM      2  H   UNL     1      47.859   7.949  10.882  0.00  0.00    +0.000 HD
ENDROOT
BRANCH   1   4
ATOM      3  C   UNL     1      47.326   5.567  12.919  0.00  0.00    +0.000 C 
ATOM      4  C   UNL     1      47.005   7.000  12.483  0.00  0.00    +0.000 C 
BRANCH   4   5
ATOM      5  C   UNL     1      45.689   7.070  11.663  0.00  0.00    +0.000 C 
ATOM      6  O   UNL     1      44.994   8.089  11.687  0.00  0.00    +0.000 OA
BRANCH   5   7
ATOM      7  C   UNL     1      45.252   5.910  10.861  0.00  0.00    +0.000 A 
ATOM      8  C   UNL     1      45.621   5.691   9.548  0.00  0.00    +0.000 A 
ATOM      9  S   UNL     1      45.160   4.150   8.968  0.00  0.00    +0.000 S 
ATOM     10  C   UNL     1      44.416   3.754  10.443  0.00  0.00    +0.000 A 
ATOM     11  N   UNL     1      43.864   2.530  10.650  0.00  0.00    +0.000 NA
ATOM     12  C   UNL     1      43.346   2.376  11.822  0.00  0.00    +0.000 A 
ATOM     13  N   UNL     1      43.294   3.346  12.792  0.00  0.00    +0.000 N 
ATOM     14  C   UNL     1      43.711   4.640  12.573  0.00  0.00    +0.000 A 
ATOM     15  O   UNL     1      43.375   5.556  13.317  0.00  0.00    +0.000 OA
ATOM     16  C   UNL     1      44.449   4.810  11.334  0.00  0.00    +0.000 A 
ATOM     17  H   UNL     1      42.773   3.193  13.643  0.00  0.00    +0.000 HD
ENDBRANCH   5   7
ENDBRANCH   4   5
ENDBRANCH   1   4
BRANCH   1  18
ATOM     18  C   UNL     1      48.703   8.817  12.510  0.00  0.00    +0.000 C 
BRANCH  18  19
ATOM     19  C   UNL     1      49.086   8.473  13.939  0.00  0.00    +0.000 A 
ATOM     20  C   UNL     1      48.324   8.909  15.035  0.00  0.00    +0.000 A 
ATOM     21  C   UNL     1      48.616   8.477  16.339  0.00  0.00    +0.000 A 
ATOM     22  C   UNL     1      49.670   7.585  16.576  0.00  0.00    +0.000 A 
ATOM     23  C   UNL     1      50.480   7.219  15.487  0.00  0.00    +0.000 A 
ATOM     24  C   UNL     1      50.187   7.650  14.187  0.00  0.00    +0.000 A 
BRANCH  22  25
ATOM     25  C   UNL     1      49.883   6.951  17.954  0.00  0.00    +0.000 C 
BRANCH  25  26
ATOM     26  O   UNL     1      51.237   6.505  18.081  0.00  0.00    +0.000 OA
ATOM     27  H   UNL     1      51.650   6.991  18.813  0.00  0.00    +0.000 HD
ENDBRANCH  25  26
BRANCH  25  28
ATOM     28  C   UNL     1      48.892   5.750  18.122  0.00  0.00    +0.000 C 
BRANCH  28  29
ATOM     29  N   UNL     1      48.798   4.655  17.145  0.00  0.00    +0.000 NA
ATOM     30  C   UNL     1      48.917   3.324  17.726  0.00  0.00    +0.000 C 
ATOM     31  C   UNL     1      47.513   2.746  17.747  0.00  0.00    +0.000 C 
ATOM     32  O   UNL     1      46.676   3.650  17.016  0.00  0.00    +0.000 OA
ATOM     33  C   UNL     1      47.539   4.613  16.426  0.00  0.00    +0.000 C 
ENDBRANCH  28  29
ENDBRANCH  25  28
ENDBRANCH  22  25
ENDBRANCH  18  19
ENDBRANCH   1  18
TORSDOF 9
ENDMDL
