MODEL 1
REMARK VINA RESULT:    -6.593      0.000      0.000
REMARK INTER + INTRA:          -9.129
REMARK INTER:                  -8.521
REMARK INTRA:                  -0.608
REMARK UNBOUND:                -0.608
REMARK  Name = 
REMARK  6 active torsions:
REMARK  status: ('A' for Active; 'I' for Inactive)
REMARK    1  A    between atoms: C_1  and  S_2
REMARK    2  A    between atoms: S_2  and  C_3
REMARK    3  A    between atoms: C_5  and  C_6
REMARK    4  A    between atoms: C_11  and  O_12
REMARK    5  A    between atoms: O_12  and  C_13
REMARK    6  A    between atoms: C_13  and  C_14
REMARK                            x       y       z     vdW  Elec       q    Type
REMARK                         _______ _______ _______ _____ _____    ______ ____
ROOT
ATOM      1  C   UNL     1      47.540   6.372  12.827  0.00  0.00    +0.000 A 
ATOM      2  N   UNL     1      47.958   5.872  14.016  0.00  0.00    +0.000 NA
ATOM      3  C   UNL     1      47.170   4.946  14.631  0.00  0.00    +0.000 A 
ATOM      4  C   UNL     1      45.959   4.506  14.134  0.00  0.00    +0.000 A 
ATOM      5  C   UNL     1      45.540   5.028  12.917  0.00  0.00    +0.000 A 
ATOM      6  C   UNL     1      46.337   5.950  12.217  0.00  0.00    +0.000 A 
ENDROOT
BRANCH   3   7
ATOM      7  C   UNL     1      47.711   4.381  15.910  0.00  0.00    +0.000 C 
ATOM      8  N   UNL     1      46.817   3.636  16.629  0.00  0.00    +0.000 N 
ATOM      9  O   UNL     1      48.853   4.580  16.290  0.00  0.00    +0.000 OA
ATOM     10  H   UNL     1      45.859   3.553  16.302  0.00  0.00    +0.000 HD
ATOM     11  H   UNL     1      47.087   3.269  17.532  0.00  0.00    +0.000 HD
ENDBRANCH   3   7
BRANCH   1  13
ATOM     12  C   UNL     1      47.764   9.075  12.169  0.00  0.00    +0.000 C 
ATOM     13  S   UNL     1      48.702   7.538  12.119  0.00  0.00    +0.000 S 
ENDBRANCH   1  13
BRANCH   6  14
ATOM     14  O   UNL     1      45.779   6.297  11.015  0.00  0.00    +0.000 OA
BRANCH  14  15
ATOM     15  C   UNL     1      44.711   5.487  10.531  0.00  0.00    +0.000 C 
BRANCH  15  16
ATOM     16  C   UNL     1      45.165   4.388   9.603  0.00  0.00    +0.000 A 
ATOM     17  C   UNL     1      45.943   4.678   8.471  0.00  0.00    +0.000 A 
ATOM     18  C   UNL     1      46.283   3.669   7.567  0.00  0.00    +0.000 A 
ATOM     19  C   UNL     1      45.846   2.362   7.778  0.00  0.00    +0.000 A 
ATOM     20  C   UNL     1      45.059   2.063   8.889  0.00  0.00    +0.000 A 
ATOM     21  C   UNL     1      44.711   3.070   9.790  0.00  0.00    +0.000 A 
ATOM     22 CL   UNL     1      43.678   2.633  11.107  0.00  0.00    +0.000 Cl
ENDBRANCH  15  16
ENDBRANCH  14  15
ENDBRANCH   6  14
TORSDOF 5
ENDMDL
MODEL 2
REMARK VINA RESULT:    -6.402      2.009      3.158
REMARK INTER + INTRA:          -8.881
REMARK INTER:                  -8.279
REMARK INTRA:                  -0.602
REMARK UNBOUND:                -0.608
REMARK  Name = 
REMARK  6 active torsions:
REMARK  status: ('A' for Active; 'I' for Inactive)
REMARK    1  A    between atoms: C_1  and  S_2
REMARK    2  A    between atoms: S_2  and  C_3
REMARK    3  A    between atoms: C_5  and  C_6
REMARK    4  A    between atoms: C_11  and  O_12
REMARK    5  A    between atoms: O_12  and  C_13
REMARK    6  A    between atoms: C_13  and  C_14
REMARK                            x       y       z     vdW  Elec       q    Type
REMARK                         _______ _______ _______ _____ _____    ______ ____
ROOT
ATOM      1  C   UNL     1      47.002   5.286  13.236  0.00  0.00    +0.000 A 
ATOM      2  N   UNL     1      48.211   5.893  13.322  0.00  0.00    +0.000 NA
ATOM      3  C   UNL     1      48.361   7.104  12.718  0.00  0.00    +0.000 A 
ATOM      4  C   UNL     1      47.368   7.741  11.999  0.00  0.00    +0.000 A 
ATOM      5  C   UNL     1      46.135   7.107  11.915  0.00  0.00    +0.000 A 
ATOM      6  C   UNL     1      45.911   5.880  12.559  0.00  0.00    +0.000 A 
ENDROOT
BRANCH   3   7
ATOM      7  C   UNL     1      49.698   7.758  12.899  0.00  0.00    +0.000 C 
ATOM      8  N   UNL     1      50.647   7.383  11.988  0.00  0.00    +0.000 N 
ATOM      9  O   UNL     1      49.930   8.552  13.797  0.00  0.00    +0.000 OA
ATOM     10  H   UNL     1      50.423   6.671  11.299  0.00  0.00    +0.000 HD
ATOM     11  H   UNL     1      51.590   7.734  12.078  0.00  0.00    +0.000 HD
ENDBRANCH   3   7
BRANCH   1  13
ATOM     12  C   UNL     1      47.329   4.239  15.802  0.00  0.00    +0.000 C 
ATOM     13  S   UNL     1      46.943   3.728  14.119  0.00  0.00    +0.000 S 
ENDBRANCH   1  13
BRANCH   6  14
ATOM     14  O   UNL     1      44.619   5.451  12.407  0.00  0.00    +0.000 OA
BRANCH  14  15
ATOM     15  C   UNL     1      44.061   5.509  11.096  0.00  0.00    +0.000 C 
BRANCH  15  16
ATOM     16  C   UNL     1      44.614   4.463  10.162  0.00  0.00    +0.000 A 
ATOM     17  C   UNL     1      45.378   4.829   9.043  0.00  0.00    +0.000 A 
ATOM     18  C   UNL     1      45.810   3.862   8.131  0.00  0.00    +0.000 A 
ATOM     19  C   UNL     1      45.480   2.522   8.323  0.00  0.00    +0.000 A 
ATOM     20  C   UNL     1      44.708   2.145   9.421  0.00  0.00    +0.000 A 
ATOM     21  C   UNL     1      44.269   3.109  10.328  0.00  0.00    +0.000 A 
ATOM     22 CL   UNL     1      43.260   2.573  11.628  0.00  0.00    +0.000 Cl
ENDBRANCH  15  16
ENDBRANCH  14  15
ENDBRANCH   6  14
TORSDOF 5
ENDMDL
MODEL 3
REMARK VINA RESULT:    -6.302      1.839      2.166
REMARK INTER + INTRA:          -8.752
REMARK INTER:                  -8.642
REMARK INTRA:                  -0.110
REMARK UNBOUND:                -0.608
REMARK  Name = 
REMARK  6 active torsions:
REMARK  status: ('A' for Active; 'I' for Inactive)
REMARK    1  A    between atoms: C_1  and  S_2
REMARK    2  A    between atoms: S_2  and  C_3
REMARK    3  A    between atoms: C_5  and  C_6
REMARK    4  A    between atoms: C_11  and  O_12
REMARK    5  A    between atoms: O_12  and  C_13
REMARK    6  A    between atoms: C_13  and  C_14
REMARK                            x       y       z     vdW  Elec       q    Type
REMARK                         _______ _______ _______ _____ _____    ______ ____
ROOT
ATOM      1  C   UNL     1      45.142   5.670  12.025  0.00  0.00    +0.000 A 
ATOM      2  N   UNL     1      45.918   5.820  13.125  0.00  0.00    +0.000 NA
ATOM      3  C   UNL     1      46.471   4.702  13.673  0.00  0.00    +0.000 A 
ATOM      4  C   UNL     1      46.267   3.422  13.195  0.00  0.00    +0.000 A 
ATOM      5  C   UNL     1      45.467   3.282  12.069  0.00  0.00    +0.000 A 
ATOM      6  C   UNL     1      44.911   4.405  11.436  0.00  0.00    +0.000 A 
ENDROOT
BRANCH   3   7
ATOM      7  C   UNL     1      47.371   4.934  14.849  0.00  0.00    +0.000 C 
ATOM      8  N   UNL     1      47.760   6.233  15.026  0.00  0.00    +0.000 N 
ATOM      9  O   UNL     1      47.743   4.034  15.586  0.00  0.00    +0.000 OA
ATOM     10  H   UNL     1      47.475   6.935  14.349  0.00  0.00    +0.000 HD
ATOM     11  H   UNL     1      48.414   6.463  15.761  0.00  0.00    +0.000 HD
ENDBRANCH   3   7
BRANCH   1  13
ATOM     12  C   UNL     1      45.374   8.420  12.446  0.00  0.00    +0.000 C 
ATOM     13  S   UNL     1      44.528   7.230  11.391  0.00  0.00    +0.000 S 
ENDBRANCH   1  13
BRANCH   6  14
ATOM     14  O   UNL     1      44.206   4.062  10.313  0.00  0.00    +0.000 OA
BRANCH  14  15
ATOM     15  C   UNL     1      44.720   4.503   9.058  0.00  0.00    +0.000 C 
BRANCH  15  16
ATOM     16  C   UNL     1      45.683   3.528   8.429  0.00  0.00    +0.000 A 
ATOM     17  C   UNL     1      46.747   3.979   7.634  0.00  0.00    +0.000 A 
ATOM     18  C   UNL     1      47.580   3.069   6.979  0.00  0.00    +0.000 A 
ATOM     19  C   UNL     1      47.357   1.699   7.106  0.00  0.00    +0.000 A 
ATOM     20  C   UNL     1      46.294   1.235   7.878  0.00  0.00    +0.000 A 
ATOM     21  C   UNL     1      45.455   2.142   8.527  0.00  0.00    +0.000 A 
ATOM     22 CL   UNL     1      44.118   1.493   9.413  0.00  0.00    +0.000 Cl
ENDBRANCH  15  16
ENDBRANCH  14  15
ENDBRANCH   6  14
TORSDOF 5
ENDMDL
MODEL 4
REMARK VINA RESULT:    -6.295      2.848      3.783
REMARK INTER + INTRA:          -8.743
REMARK INTER:                  -8.748
REMARK INTRA:                   0.005
REMARK UNBOUND:                -0.608
REMARK  Name = 
REMARK  6 active torsions:
REMARK  status: ('A' for Active; 'I' for Inactive)
REMARK    1  A    between atoms: C_1  and  S_2
REMARK    2  A    between atoms: S_2  and  C_3
REMARK    3  A    between atoms: C_5  and  C_6
REMARK    4  A    between atoms: C_11  and  O_12
REMARK    5  A    between atoms: O_12  and  C_13
REMARK    6  A    between atoms: C_13  and  C_14
REMARK                            x       y       z     vdW  Elec       q    Type
REMARK                         _______ _______ _______ _____ _____    ______ ____
ROOT
ATOM      1  C   UNL     1      44.532   5.432  12.165  0.00  0.00    +0.000 A 
ATOM      2  N   UNL     1      45.085   6.414  12.919  0.00  0.00    +0.000 NA
ATOM      3  C   UNL     1      46.097   7.144  12.373  0.00  0.00    +0.000 A 
ATOM      4  C   UNL     1      46.614   6.929  11.111  0.00  0.00    +0.000 A 
ATOM      5  C   UNL     1      46.042   5.919  10.349  0.00  0.00    +0.000 A 
ATOM      6  C   UNL     1      44.965   5.167  10.846  0.00  0.00    +0.000 A 
ENDROOT
BRANCH   3   7
ATOM      7  C   UNL     1      46.627   8.257  13.227  0.00  0.00    +0.000 C 
ATOM      8  N   UNL     1      46.152   9.499  12.908  0.00  0.00    +0.000 N 
ATOM      9  O   UNL     1      47.430   8.075  14.128  0.00  0.00    +0.000 OA
ATOM     10  H   UNL     1      45.534   9.607  12.109  0.00  0.00    +0.000 HD
ATOM     11  H   UNL     1      46.506  10.309  13.398  0.00  0.00    +0.000 HD
ENDBRANCH   3   7
BRANCH   1  13
ATOM     12  C   UNL     1      43.545   2.865  12.642  0.00  0.00    +0.000 C 
ATOM     13  S   UNL     1      43.185   4.594  12.997  0.00  0.00    +0.000 S 
ENDBRANCH   1  13
BRANCH   6  14
ATOM     14  O   UNL     1      44.505   4.263   9.924  0.00  0.00    +0.000 OA
BRANCH  14  15
ATOM     15  C   UNL     1      44.896   4.457   8.567  0.00  0.00    +0.000 C 
BRANCH  15  16
ATOM     16  C   UNL     1      45.859   3.410   8.064  0.00  0.00    +0.000 A 
ATOM     17  C   UNL     1      46.917   3.756   7.210  0.00  0.00    +0.000 A 
ATOM     18  C   UNL     1      47.749   2.770   6.675  0.00  0.00    +0.000 A 
ATOM     19  C   UNL     1      47.531   1.427   6.982  0.00  0.00    +0.000 A 
ATOM     20  C   UNL     1      46.474   1.067   7.816  0.00  0.00    +0.000 A 
ATOM     21  C   UNL     1      45.636   2.050   8.345  0.00  0.00    +0.000 A 
ATOM     22 CL   UNL     1      44.307   1.519   9.318  0.00  0.00    +0.000 Cl
ENDBRANCH  15  16
ENDBRANCH  14  15
ENDBRANCH   6  14
TORSDOF 5
ENDMDL
MODEL 5
REMARK VINA RESULT:    -5.925      2.246      2.548
REMARK INTER + INTRA:          -8.265
REMARK INTER:                  -7.717
REMARK INTRA:                  -0.548
REMARK UNBOUND:                -0.608
REMARK  Name = 
REMARK  6 active torsions:
REMARK  status: ('A' for Active; 'I' for Inactive)
REMARK    1  A    between atoms: C_1  and  S_2
REMARK    2  A    between atoms: S_2  and  C_3
REMARK    3  A    between atoms: C_5  and  C_6
REMARK    4  A    between atoms: C_11  and  O_12
REMARK    5  A    between atoms: O_12  and  C_13
REMARK    6  A    between atoms: C_13  and  C_14
REMARK                            x       y       z     vdW  Elec       q    Type
REMARK                         _______ _______ _______ _____ _____    ______ ____
ROOT
ATOM      1  C   UNL     1      45.671   7.410  12.396  0.00  0.00    +0.000 A 
ATOM      2  N   UNL     1      46.935   7.798  12.697  0.00  0.00    +0.000 NA
ATOM      3  C   UNL     1      47.806   6.848  13.136  0.00  0.00    +0.000 A 
ATOM      4  C   UNL     1      47.477   5.519  13.321  0.00  0.00    +0.000 A 
ATOM      5  C   UNL     1      46.178   5.135  13.012  0.00  0.00    +0.000 A 
ATOM      6  C   UNL     1      45.253   6.064  12.511  0.00  0.00    +0.000 A 
ENDROOT
BRANCH   3   7
ATOM      7  C   UNL     1      49.206   7.321  13.392  0.00  0.00    +0.000 C 
ATOM      8  N   UNL     1      50.058   7.190  12.330  0.00  0.00    +0.000 N 
ATOM      9  O   UNL     1      49.565   7.774  14.467  0.00  0.00    +0.000 OA
ATOM     10  H   UNL     1      49.728   6.748  11.477  0.00  0.00    +0.000 HD
ATOM     11  H   UNL     1      51.033   7.432  12.441  0.00  0.00    +0.000 HD
ENDBRANCH   3   7
BRANCH   1  13
ATOM     12  C   UNL     1      45.784  10.157  11.914  0.00  0.00    +0.000 C 
ATOM     13  S   UNL     1      44.659   8.757  11.787  0.00  0.00    +0.000 S 
ENDBRANCH   1  13
BRANCH   6  14
ATOM     14  O   UNL     1      44.051   5.478  12.213  0.00  0.00    +0.000 OA
BRANCH  14  15
ATOM     15  C   UNL     1      43.653   5.459  10.845  0.00  0.00    +0.000 C 
BRANCH  15  16
ATOM     16  C   UNL     1      44.367   4.411  10.028  0.00  0.00    +0.000 A 
ATOM     17  C   UNL     1      45.140   4.771   8.913  0.00  0.00    +0.000 A 
ATOM     18  C   UNL     1      45.723   3.790   8.107  0.00  0.00    +0.000 A 
ATOM     19  C   UNL     1      45.538   2.440   8.401  0.00  0.00    +0.000 A 
ATOM     20  C   UNL     1      44.759   2.067   9.496  0.00  0.00    +0.000 A 
ATOM     21  C   UNL     1      44.169   3.044  10.298  0.00  0.00    +0.000 A 
ATOM     22 CL   UNL     1      43.163   2.502  11.598  0.00  0.00    +0.000 Cl
ENDBRANCH  15  16
ENDBRANCH  14  15
ENDBRANCH   6  14
TORSDOF 5
ENDMDL
MODEL 6
REMARK VINA RESULT:    -5.918      1.269      1.377
REMARK INTER + INTRA:          -8.256
REMARK INTER:                  -7.660
REMARK INTRA:                  -0.596
REMARK UNBOUND:                -0.608
REMARK  Name = 
REMARK  6 active torsions:
REMARK  status: ('A' for Active; 'I' for Inactive)
REMARK    1  A    between atoms: C_1  and  S_2
REMARK    2  A    between atoms: S_2  and  C_3
REMARK    3  A    between atoms: C_5  and  C_6
REMARK    4  A    between atoms: C_11  and  O_12
REMARK    5  A    between atoms: O_12  and  C_13
REMARK    6  A    between atoms: C_13  and  C_14
REMARK                            x       y       z     vdW  Elec       q    Type
REMARK                         _______ _______ _______ _____ _____    ______ ____
ROOT
ATOM      1  C   UNL     1      48.068   6.521  13.832  0.00  0.00    +0.000 A 
ATOM      2  N   UNL     1      48.490   6.114  15.055  0.00  0.00    +0.000 NA
ATOM      3  C   UNL     1      47.859   5.050  15.626  0.00  0.00    +0.000 A 
ATOM      4  C   UNL     1      46.800   4.376  15.050  0.00  0.00    +0.000 A 
ATOM      5  C   UNL     1      46.375   4.804  13.799  0.00  0.00    +0.000 A 
ATOM      6  C   UNL     1      47.021   5.866  13.144  0.00  0.00    +0.000 A 
ENDROOT
BRANCH   3   7
ATOM      7  C   UNL     1      48.407   4.605  16.948  0.00  0.00    +0.000 C 
ATOM      8  N   UNL     1      49.655   5.085  17.242  0.00  0.00    +0.000 N 
ATOM      9  O   UNL     1      47.799   3.862  17.701  0.00  0.00    +0.000 OA
ATOM     10  H   UNL     1      50.146   5.649  16.555  0.00  0.00    +0.000 HD
ATOM     11  H   UNL     1      50.118   4.784  18.088  0.00  0.00    +0.000 HD
ENDBRANCH   3   7
BRANCH   1  13
ATOM     12  C   UNL     1      47.777   9.192  13.077  0.00  0.00    +0.000 C 
ATOM     13  S   UNL     1      49.022   7.895  13.191  0.00  0.00    +0.000 S 
ENDBRANCH   1  13
BRANCH   6  14
ATOM     14  O   UNL     1      46.494   6.095  11.900  0.00  0.00    +0.000 OA
BRANCH  14  15
ATOM     15  C   UNL     1      45.174   5.619  11.652  0.00  0.00    +0.000 C 
BRANCH  15  16
ATOM     16  C   UNL     1      45.099   4.614  10.530  0.00  0.00    +0.000 A 
ATOM     17  C   UNL     1      45.572   4.931   9.247  0.00  0.00    +0.000 A 
ATOM     18  C   UNL     1      45.417   4.030   8.191  0.00  0.00    +0.000 A 
ATOM     19  C   UNL     1      44.784   2.806   8.402  0.00  0.00    +0.000 A 
ATOM     20  C   UNL     1      44.294   2.484   9.666  0.00  0.00    +0.000 A 
ATOM     21  C   UNL     1      44.440   3.386  10.721  0.00  0.00    +0.000 A 
ATOM     22 CL   UNL     1      43.747   2.943  12.244  0.00  0.00    +0.000 Cl
ENDBRANCH  15  16
ENDBRANCH  14  15
ENDBRANCH   6  14
TORSDOF 5
ENDMDL
MODEL 7
REMARK VINA RESULT:    -5.828      3.822      6.654
REMARK INTER + INTRA:          -8.139
REMARK INTER:                  -7.608
REMARK INTRA:                  -0.531
REMARK UNBOUND:                -0.608
REMARK  Name = 
REMARK  6 active torsions:
REMARK  status: ('A' for Active; 'I' for Inactive)
REMARK    1  A    between atoms: C_1  and  S_2
REMARK    2  A    between atoms: S_2  and  C_3
REMARK    3  A    between atoms: C_5  and  C_6
REMARK    4  A    between atoms: C_11  and  O_12
REMARK    5  A    between atoms: O_12  and  C_13
REMARK    6  A    between atoms: C_13  and  C_14
REMARK                            x       y       z     vdW  Elec       q    Type
REMARK                         _______ _______ _______ _____ _____    ______ ____
ROOT
ATOM      1  C   UNL     1      46.140   6.765  12.883  0.00  0.00    +0.000 A 
ATOM      2  N   UNL     1      44.925   6.566  12.314  0.00  0.00    +0.000 NA
ATOM      3  C   UNL     1      44.465   5.288  12.225  0.00  0.00    +0.000 A 
ATOM      4  C   UNL     1      45.169   4.178  12.650  0.00  0.00    +0.000 A 
ATOM      5  C   UNL     1      46.413   4.395  13.228  0.00  0.00    +0.000 A 
ATOM      6  C   UNL     1      46.915   5.696  13.388  0.00  0.00    +0.000 A 
ENDROOT
BRANCH   3   7
ATOM      7  C   UNL     1      43.090   5.133  11.646  0.00  0.00    +0.000 C 
ATOM      8  N   UNL     1      42.308   6.253  11.721  0.00  0.00    +0.000 N 
ATOM      9  O   UNL     1      42.691   4.087  11.160  0.00  0.00    +0.000 OA
ATOM     10  H   UNL     1      42.664   7.079  12.192  0.00  0.00    +0.000 HD
ATOM     11  H   UNL     1      41.349   6.213  11.406  0.00  0.00    +0.000 HD
ENDBRANCH   3   7
BRANCH   1  13
ATOM     12  C   UNL     1      45.151   9.293  12.234  0.00  0.00    +0.000 C 
ATOM     13  S   UNL     1      46.587   8.498  12.975  0.00  0.00    +0.000 S 
ENDBRANCH   1  13
BRANCH   6  14
ATOM     14  O   UNL     1      48.125   5.701  14.030  0.00  0.00    +0.000 OA
BRANCH  14  15
ATOM     15  C   UNL     1      48.144   6.137  15.387  0.00  0.00    +0.000 C 
BRANCH  15  16
ATOM     16  C   UNL     1      48.292   5.009  16.377  0.00  0.00    +0.000 A 
ATOM     17  C   UNL     1      47.227   4.130  16.631  0.00  0.00    +0.000 A 
ATOM     18  C   UNL     1      47.340   3.145  17.614  0.00  0.00    +0.000 A 
ATOM     19  C   UNL     1      48.512   3.029  18.360  0.00  0.00    +0.000 A 
ATOM     20  C   UNL     1      49.571   3.905  18.131  0.00  0.00    +0.000 A 
ATOM     21  C   UNL     1      49.459   4.895  17.154  0.00  0.00    +0.000 A 
ATOM     22 CL   UNL     1      50.791   5.986  16.974  0.00  0.00    +0.000 Cl
ENDBRANCH  15  16
ENDBRANCH  14  15
ENDBRANCH   6  14
TORSDOF 5
ENDMDL
MODEL 8
REMARK VINA RESULT:    -5.767      3.847      6.411
REMARK INTER + INTRA:          -8.061
REMARK INTER:                  -7.897
REMARK INTRA:                  -0.165
REMARK UNBOUND:                -0.608
REMARK  Name = 
REMARK  6 active torsions:
REMARK  status: ('A' for Active; 'I' for Inactive)
REMARK    1  A    between atoms: C_1  and  S_2
REMARK    2  A    between atoms: S_2  and  C_3
REMARK    3  A    between atoms: C_5  and  C_6
REMARK    4  A    between atoms: C_11  and  O_12
REMARK    5  A    between atoms: O_12  and  C_13
REMARK    6  A    between atoms: C_13  and  C_14
REMARK                            x       y       z     vdW  Elec       q    Type
REMARK                         _______ _______ _______ _____ _____    ______ ____
ROOT
ATOM      1  C   UNL     1      44.563   3.146   9.923  0.00  0.00    +0.000 A 
ATOM      2  N   UNL     1      45.203   2.105   9.337  0.00  0.00    +0.000 NA
ATOM      3  C   UNL     1      46.067   2.378   8.320  0.00  0.00    +0.000 A 
ATOM      4  C   UNL     1      46.311   3.646   7.829  0.00  0.00    +0.000 A 
ATOM      5  C   UNL     1      45.646   4.704   8.435  0.00  0.00    +0.000 A 
ATOM      6  C   UNL     1      44.780   4.484   9.518  0.00  0.00    +0.000 A 
ENDROOT
BRANCH   3   7
ATOM      7  C   UNL     1      46.795   1.197   7.753  0.00  0.00    +0.000 C 
ATOM      8  N   UNL     1      47.878   1.510   6.978  0.00  0.00    +0.000 N 
ATOM      9  O   UNL     1      46.443   0.045   7.951  0.00  0.00    +0.000 OA
ATOM     10  H   UNL     1      48.093   2.485   6.791  0.00  0.00    +0.000 HD
ATOM     11  H   UNL     1      48.387   0.772   6.511  0.00  0.00    +0.000 HD
ENDBRANCH   3   7
BRANCH   1  13
ATOM     12  C   UNL     1      44.521   3.007  12.710  0.00  0.00    +0.000 C 
ATOM     13  S   UNL     1      43.500   2.637  11.273  0.00  0.00    +0.000 S 
ENDBRANCH   1  13
BRANCH   6  14
ATOM     14  O   UNL     1      44.271   5.656  10.012  0.00  0.00    +0.000 OA
BRANCH  14  15
ATOM     15  C   UNL     1      44.407   5.891  11.411  0.00  0.00    +0.000 C 
BRANCH  15  16
ATOM     16  C   UNL     1      45.661   6.647  11.774  0.00  0.00    +0.000 A 
ATOM     17  C   UNL     1      46.794   5.973  12.255  0.00  0.00    +0.000 A 
ATOM     18  C   UNL     1      47.919   6.686  12.676  0.00  0.00    +0.000 A 
ATOM     19  C   UNL     1      47.924   8.079  12.625  0.00  0.00    +0.000 A 
ATOM     20  C   UNL     1      46.801   8.763  12.165  0.00  0.00    +0.000 A 
ATOM     21  C   UNL     1      45.672   8.054  11.752  0.00  0.00    +0.000 A 
ATOM     22 CL   UNL     1      44.294   8.974  11.256  0.00  0.00    +0.000 Cl
ENDBRANCH  15  16
ENDBRANCH  14  15
ENDBRANCH   6  14
TORSDOF 5
ENDMDL
MODEL 9
REMARK VINA RESULT:    -5.696      3.186      6.938
REMARK INTER + INTRA:          -7.969
REMARK INTER:                  -7.462
REMARK INTRA:                  -0.507
REMARK UNBOUND:                -0.608
REMARK  Name = 
REMARK  6 active torsions:
REMARK  status: ('A' for Active; 'I' for Inactive)
REMARK    1  A    between atoms: C_1  and  S_2
REMARK    2  A    between atoms: S_2  and  C_3
REMARK    3  A    between atoms: C_5  and  C_6
REMARK    4  A    between atoms: C_11  and  O_12
REMARK    5  A    between atoms: O_12  and  C_13
REMARK    6  A    between atoms: C_13  and  C_14
REMARK                            x       y       z     vdW  Elec       q    Type
REMARK                         _______ _______ _______ _____ _____    ______ ____
ROOT
ATOM      1  C   UNL     1      46.432   5.974  12.628  0.00  0.00    +0.000 A 
ATOM      2  N   UNL     1      45.533   5.606  11.682  0.00  0.00    +0.000 NA
ATOM      3  C   UNL     1      45.122   4.308  11.664  0.00  0.00    +0.000 A 
ATOM      4  C   UNL     1      45.584   3.336  12.530  0.00  0.00    +0.000 A 
ATOM      5  C   UNL     1      46.507   3.725  13.492  0.00  0.00    +0.000 A 
ATOM      6  C   UNL     1      46.929   5.061  13.586  0.00  0.00    +0.000 A 
ENDROOT
BRANCH   3   7
ATOM      7  C   UNL     1      44.081   3.972  10.639  0.00  0.00    +0.000 C 
ATOM      8  N   UNL     1      44.070   4.792   9.544  0.00  0.00    +0.000 N 
ATOM      9  O   UNL     1      43.294   3.049  10.773  0.00  0.00    +0.000 OA
ATOM     10  H   UNL     1      44.704   5.585   9.509  0.00  0.00    +0.000 HD
ATOM     11  H   UNL     1      43.360   4.668   8.835  0.00  0.00    +0.000 HD
ENDBRANCH   3   7
BRANCH   1  13
ATOM     12  C   UNL     1      48.478   7.689  11.811  0.00  0.00    +0.000 C 
ATOM     13  S   UNL     1      46.838   7.718  12.557  0.00  0.00    +0.000 S 
ENDBRANCH   1  13
BRANCH   6  14
ATOM     14  O   UNL     1      47.792   5.252  14.633  0.00  0.00    +0.000 OA
BRANCH  14  15
ATOM     15  C   UNL     1      47.465   4.628  15.872  0.00  0.00    +0.000 C 
BRANCH  15  16
ATOM     16  C   UNL     1      48.524   4.803  16.930  0.00  0.00    +0.000 A 
ATOM     17  C   UNL     1      48.801   6.070  17.468  0.00  0.00    +0.000 A 
ATOM     18  C   UNL     1      49.845   6.240  18.380  0.00  0.00    +0.000 A 
ATOM     19  C   UNL     1      50.628   5.151  18.761  0.00  0.00    +0.000 A 
ATOM     20  C   UNL     1      50.376   3.891  18.223  0.00  0.00    +0.000 A 
ATOM     21  C   UNL     1      49.338   3.719  17.306  0.00  0.00    +0.000 A 
ATOM     22 CL   UNL     1      49.130   2.138  16.632  0.00  0.00    +0.000 Cl
ENDBRANCH  15  16
ENDBRANCH  14  15
ENDBRANCH   6  14
TORSDOF 5
ENDMDL
