MODEL 1
REMARK VINA RESULT:    -8.972      0.000      0.000
REMARK INTER + INTRA:         -11.541
REMARK INTER:                 -11.595
REMARK INTRA:                   0.053
REMARK UNBOUND:                 0.053
REMARK  Name = 
REMARK  5 active torsions:
REMARK  status: ('A' for Active; 'I' for Inactive)
REMARK    1  A    between atoms: C_2  and  C_3
REMARK    2  A    between atoms: C_6  and  C_7
REMARK    3  A    between atoms: C_11  and  C_12
REMARK    4  A    between atoms: C_12  and  N_13
REMARK    5  A    between atoms: C_17  and  C_18
REMARK                            x       y       z     vdW  Elec       q    Type
REMARK                         _______ _______ _______ _____ _____    ______ ____
ROOT
ATOM      1  C   UNL     1      43.965   5.224  11.186  0.00  0.00    +0.000 C 
ATOM      2  C   UNL     1      42.669   5.877  11.628  0.00  0.00    +0.000 C 
ATOM      3  C   UNL     1      42.715   4.392  11.489  0.00  0.00    +0.000 C 
ENDROOT
BRANCH   1   4
ATOM      4  N   UNL     1      44.383   5.224   9.778  0.00  0.00    +0.000 N 
ATOM      5  C   UNL     1      45.083   4.216   9.124  0.00  0.00    +0.000 A 
ATOM      6  C   UNL     1      45.107   2.886   9.523  0.00  0.00    +0.000 A 
ATOM      7  C   UNL     1      45.824   1.950   8.764  0.00  0.00    +0.000 A 
ATOM      8  C   UNL     1      46.500   2.371   7.620  0.00  0.00    +0.000 A 
ATOM      9  C   UNL     1      46.428   3.715   7.295  0.00  0.00    +0.000 A 
ATOM     10  N   UNL     1      45.731   4.632   8.014  0.00  0.00    +0.000 NA
ATOM     11  H   UNL     1      44.621   6.101   9.323  0.00  0.00    +0.000 HD
BRANCH   8  12
ATOM     12  C   UNL     1      47.311   1.480   6.762  0.00  0.00    +0.000 C 
ATOM     13  N   UNL     1      48.275   2.056   5.983  0.00  0.00    +0.000 N 
ATOM     14  O   UNL     1      47.150   0.266   6.770  0.00  0.00    +0.000 OA
ATOM     15  H   UNL     1      48.600   3.002   6.118  0.00  0.00    +0.000 HD
ATOM     16  H   UNL     1      48.879   1.421   5.476  0.00  0.00    +0.000 HD
ENDBRANCH   8  12
ENDBRANCH   1   4
BRANCH   1  21
ATOM     17  C   UNL     1      47.103   5.917  13.120  0.00  0.00    +0.000 A 
ATOM     18  C   UNL     1      47.013   4.934  14.105  0.00  0.00    +0.000 A 
ATOM     19  N   UNL     1      46.025   4.016  14.157  0.00  0.00    +0.000 NA
ATOM     20  C   UNL     1      45.100   4.131  13.177  0.00  0.00    +0.000 A 
ATOM     21  C   UNL     1      45.109   5.131  12.202  0.00  0.00    +0.000 A 
ATOM     22  N   UNL     1      46.130   6.038  12.176  0.00  0.00    +0.000 NA
BRANCH  17  26
ATOM     23  C   UNL     1      50.458   8.612  12.813  0.00  0.00    +0.000 A 
ATOM     24  C   UNL     1      49.571   8.467  11.745  0.00  0.00    +0.000 A 
ATOM     25  C   UNL     1      48.482   7.596  11.854  0.00  0.00    +0.000 A 
ATOM     26  C   UNL     1      48.251   6.842  13.022  0.00  0.00    +0.000 A 
ATOM     27  C   UNL     1      49.151   7.016  14.091  0.00  0.00    +0.000 A 
ATOM     28  C   UNL     1      50.243   7.889  13.989  0.00  0.00    +0.000 A 
BRANCH  23  30
ATOM     29  N   UNL     1      52.483  10.220  12.615  0.00  0.00    +0.000 NA
ATOM     30  C   UNL     1      51.575   9.501  12.702  0.00  0.00    +0.000 C 
ENDBRANCH  23  30
ENDBRANCH  17  26
ENDBRANCH   1  21
TORSDOF 5
ENDMDL
MODEL 2
REMARK VINA RESULT:    -7.830      2.256      3.428
REMARK INTER + INTRA:         -10.065
REMARK INTER:                  -9.432
REMARK INTRA:                  -0.634
REMARK UNBOUND:                 0.053
REMARK  Name = 
REMARK  5 active torsions:
REMARK  status: ('A' for Active; 'I' for Inactive)
REMARK    1  A    between atoms: C_2  and  C_3
REMARK    2  A    between atoms: C_6  and  C_7
REMARK    3  A    between atoms: C_11  and  C_12
REMARK    4  A    between atoms: C_12  and  N_13
REMARK    5  A    between atoms: C_17  and  C_18
REMARK                            x       y       z     vdW  Elec       q    Type
REMARK                         _______ _______ _______ _____ _____    ______ ____
ROOT
ATOM      1  C   UNL     1      44.017   5.051  11.704  0.00  0.00    +0.000 C 
ATOM      2  C   UNL     1      42.744   5.672  11.162  0.00  0.00    +0.000 C 
ATOM      3  C   UNL     1      42.701   4.983  12.486  0.00  0.00    +0.000 C 
ENDROOT
BRANCH   1   4
ATOM      4  N   UNL     1      44.512   3.759  11.210  0.00  0.00    +0.000 N 
ATOM      5  C   UNL     1      45.098   3.517   9.972  0.00  0.00    +0.000 A 
ATOM      6  C   UNL     1      45.727   4.483   9.196  0.00  0.00    +0.000 A 
ATOM      7  C   UNL     1      46.312   4.115   7.977  0.00  0.00    +0.000 A 
ATOM      8  C   UNL     1      46.255   2.784   7.565  0.00  0.00    +0.000 A 
ATOM      9  C   UNL     1      45.606   1.887   8.395  0.00  0.00    +0.000 A 
ATOM     10  N   UNL     1      45.042   2.225   9.583  0.00  0.00    +0.000 NA
ATOM     11  H   UNL     1      44.054   2.900  11.499  0.00  0.00    +0.000 HD
BRANCH   8  12
ATOM     12  C   UNL     1      46.809   2.288   6.286  0.00  0.00    +0.000 C 
ATOM     13  N   UNL     1      47.032   3.202   5.295  0.00  0.00    +0.000 N 
ATOM     14  O   UNL     1      47.090   1.107   6.128  0.00  0.00    +0.000 OA
ATOM     15  H   UNL     1      47.042   4.199   5.456  0.00  0.00    +0.000 HD
ATOM     16  H   UNL     1      47.497   2.857   4.464  0.00  0.00    +0.000 HD
ENDBRANCH   8  12
ENDBRANCH   1   4
BRANCH   1  21
ATOM     17  C   UNL     1      46.886   6.428  13.692  0.00  0.00    +0.000 A 
ATOM     18  C   UNL     1      47.024   7.682  13.096  0.00  0.00    +0.000 A 
ATOM     19  N   UNL     1      46.210   8.141  12.122  0.00  0.00    +0.000 NA
ATOM     20  C   UNL     1      45.243   7.275  11.744  0.00  0.00    +0.000 A 
ATOM     21  C   UNL     1      45.095   5.986  12.264  0.00  0.00    +0.000 A 
ATOM     22  N   UNL     1      45.933   5.559  13.255  0.00  0.00    +0.000 NA
BRANCH  17  26
ATOM     23  C   UNL     1      49.337   5.160  17.007  0.00  0.00    +0.000 A 
ATOM     24  C   UNL     1      49.615   6.355  16.342  0.00  0.00    +0.000 A 
ATOM     25  C   UNL     1      48.812   6.764  15.272  0.00  0.00    +0.000 A 
ATOM     26  C   UNL     1      47.720   5.992  14.830  0.00  0.00    +0.000 A 
ATOM     27  C   UNL     1      47.449   4.798  15.526  0.00  0.00    +0.000 A 
ATOM     28  C   UNL     1      48.249   4.384  16.601  0.00  0.00    +0.000 A 
BRANCH  23  30
ATOM     29  N   UNL     1      50.825   4.402  18.991  0.00  0.00    +0.000 NA
ATOM     30  C   UNL     1      50.159   4.740  18.102  0.00  0.00    +0.000 C 
ENDBRANCH  23  30
ENDBRANCH  17  26
ENDBRANCH   1  21
TORSDOF 5
ENDMDL
MODEL 3
REMARK VINA RESULT:    -7.257      4.427      6.823
REMARK INTER + INTRA:          -9.325
REMARK INTER:                  -8.728
REMARK INTRA:                  -0.597
REMARK UNBOUND:                 0.053
REMARK  Name = 
REMARK  5 active torsions:
REMARK  status: ('A' for Active; 'I' for Inactive)
REMARK    1  A    between atoms: C_2  and  C_3
REMARK    2  A    between atoms: C_6  and  C_7
REMARK    3  A    between atoms: C_11  and  C_12
REMARK    4  A    between atoms: C_12  and  N_13
REMARK    5  A    between atoms: C_17  and  C_18
REMARK                            x       y       z     vdW  Elec       q    Type
REMARK                         _______ _______ _______ _____ _____    ______ ____
ROOT
ATOM      1  C   UNL     1      48.636   7.587  14.239  0.00  0.00    +0.000 C 
ATOM      2  C   UNL     1      49.669   7.394  13.144  0.00  0.00    +0.000 C 
ATOM      3  C   UNL     1      49.411   8.773  13.654  0.00  0.00    +0.000 C 
ENDROOT
BRANCH   1   4
ATOM      4  N   UNL     1      47.197   7.582  13.946  0.00  0.00    +0.000 N 
ATOM      5  C   UNL     1      46.452   6.503  13.482  0.00  0.00    +0.000 A 
ATOM      6  C   UNL     1      46.807   5.170  13.648  0.00  0.00    +0.000 A 
ATOM      7  C   UNL     1      45.959   4.164  13.165  0.00  0.00    +0.000 A 
ATOM      8  C   UNL     1      44.772   4.519  12.526  0.00  0.00    +0.000 A 
ATOM      9  C   UNL     1      44.495   5.870  12.399  0.00  0.00    +0.000 A 
ATOM     10  N   UNL     1      45.302   6.856  12.869  0.00  0.00    +0.000 NA
ATOM     11  H   UNL     1      46.749   8.427  13.604  0.00  0.00    +0.000 HD
BRANCH   8  12
ATOM     12  C   UNL     1      43.818   3.547  11.951  0.00  0.00    +0.000 C 
ATOM     13  N   UNL     1      43.801   2.286  12.479  0.00  0.00    +0.000 N 
ATOM     14  O   UNL     1      43.045   3.864  11.054  0.00  0.00    +0.000 OA
ATOM     15  H   UNL     1      44.239   2.051  13.358  0.00  0.00    +0.000 HD
ATOM     16  H   UNL     1      43.078   1.666  12.134  0.00  0.00    +0.000 HD
ENDBRANCH   8  12
ENDBRANCH   1   4
BRANCH   1  21
ATOM     17  C   UNL     1      50.077   5.733  17.164  0.00  0.00    +0.000 A 
ATOM     18  C   UNL     1      49.698   6.577  18.207  0.00  0.00    +0.000 A 
ATOM     19  N   UNL     1      48.954   7.690  18.036  0.00  0.00    +0.000 NA
ATOM     20  C   UNL     1      48.609   7.943  16.753  0.00  0.00    +0.000 A 
ATOM     21  C   UNL     1      49.010   7.165  15.664  0.00  0.00    +0.000 A 
ATOM     22  N   UNL     1      49.757   6.041  15.878  0.00  0.00    +0.000 NA
BRANCH  17  26
ATOM     23  C   UNL     1      52.201   2.035  17.816  0.00  0.00    +0.000 A 
ATOM     24  C   UNL     1      52.845   3.259  17.999  0.00  0.00    +0.000 A 
ATOM     25  C   UNL     1      52.149   4.455  17.792  0.00  0.00    +0.000 A 
ATOM     26  C   UNL     1      50.799   4.464  17.390  0.00  0.00    +0.000 A 
ATOM     27  C   UNL     1      50.165   3.217  17.227  0.00  0.00    +0.000 A 
ATOM     28  C   UNL     1      50.857   2.015  17.435  0.00  0.00    +0.000 A 
BRANCH  23  30
ATOM     29  N   UNL     1      53.491  -0.181  18.199  0.00  0.00    +0.000 NA
ATOM     30  C   UNL     1      52.913   0.810  18.025  0.00  0.00    +0.000 C 
ENDBRANCH  23  30
ENDBRANCH  17  26
ENDBRANCH   1  21
TORSDOF 5
ENDMDL
MODEL 4
REMARK VINA RESULT:    -6.998      5.550      9.062
REMARK INTER + INTRA:          -8.991
REMARK INTER:                  -8.509
REMARK INTRA:                  -0.481
REMARK UNBOUND:                 0.053
REMARK  Name = 
REMARK  5 active torsions:
REMARK  status: ('A' for Active; 'I' for Inactive)
REMARK    1  A    between atoms: C_2  and  C_3
REMARK    2  A    between atoms: C_6  and  C_7
REMARK    3  A    between atoms: C_11  and  C_12
REMARK    4  A    between atoms: C_12  and  N_13
REMARK    5  A    between atoms: C_17  and  C_18
REMARK                            x       y       z     vdW  Elec       q    Type
REMARK                         _______ _______ _______ _____ _____    ______ ____
ROOT
ATOM      1  C   UNL     1      49.494   5.316  17.941  0.00  0.00    +0.000 C 
ATOM      2  C   UNL     1      48.404   4.545  18.663  0.00  0.00    +0.000 C 
ATOM      3  C   UNL     1      48.812   5.880  19.192  0.00  0.00    +0.000 C 
ENDROOT
BRANCH   1   4
ATOM      4  N   UNL     1      50.913   4.978  18.109  0.00  0.00    +0.000 N 
ATOM      5  C   UNL     1      51.475   3.708  18.029  0.00  0.00    +0.000 A 
ATOM      6  C   UNL     1      50.911   2.638  17.344  0.00  0.00    +0.000 A 
ATOM      7  C   UNL     1      51.586   1.411  17.305  0.00  0.00    +0.000 A 
ATOM      8  C   UNL     1      52.814   1.284  17.953  0.00  0.00    +0.000 A 
ATOM      9  C   UNL     1      53.303   2.397  18.615  0.00  0.00    +0.000 A 
ATOM     10  N   UNL     1      52.666   3.596  18.655  0.00  0.00    +0.000 NA
ATOM     11  H   UNL     1      51.490   5.523  18.743  0.00  0.00    +0.000 HD
BRANCH   8  12
ATOM     12  C   UNL     1      53.599   0.032  18.005  0.00  0.00    +0.000 C 
ATOM     13  N   UNL     1      53.986  -0.522  16.817  0.00  0.00    +0.000 N 
ATOM     14  O   UNL     1      53.920  -0.477  19.071  0.00  0.00    +0.000 OA
ATOM     15  H   UNL     1      53.953  -0.024  15.939  0.00  0.00    +0.000 HD
ATOM     16  H   UNL     1      54.600  -1.326  16.877  0.00  0.00    +0.000 HD
ENDBRANCH   8  12
ENDBRANCH   1   4
BRANCH   1  21
ATOM     17  C   UNL     1      47.958   6.063  14.601  0.00  0.00    +0.000 A 
ATOM     18  C   UNL     1      48.512   7.317  14.346  0.00  0.00    +0.000 A 
ATOM     19  N   UNL     1      49.401   7.923  15.162  0.00  0.00    +0.000 NA
ATOM     20  C   UNL     1      49.708   7.221  16.276  0.00  0.00    +0.000 A 
ATOM     21  C   UNL     1      49.141   5.990  16.611  0.00  0.00    +0.000 A 
ATOM     22  N   UNL     1      48.250   5.404  15.755  0.00  0.00    +0.000 NA
BRANCH  17  26
ATOM     23  C   UNL     1      45.383   4.034  11.798  0.00  0.00    +0.000 A 
ATOM     24  C   UNL     1      45.980   3.329  12.843  0.00  0.00    +0.000 A 
ATOM     25  C   UNL     1      46.809   3.994  13.753  0.00  0.00    +0.000 A 
ATOM     26  C   UNL     1      47.073   5.374  13.641  0.00  0.00    +0.000 A 
ATOM     27  C   UNL     1      46.447   6.067  12.587  0.00  0.00    +0.000 A 
ATOM     28  C   UNL     1      45.613   5.406  11.674  0.00  0.00    +0.000 A 
BRANCH  23  30
ATOM     29  N   UNL     1      43.846   2.802  10.112  0.00  0.00    +0.000 NA
ATOM     30  C   UNL     1      44.535   3.354  10.865  0.00  0.00    +0.000 C 
ENDBRANCH  23  30
ENDBRANCH  17  26
ENDBRANCH   1  21
TORSDOF 5
ENDMDL
MODEL 5
REMARK VINA RESULT:    -6.422      4.333      8.954
REMARK INTER + INTRA:          -8.246
REMARK INTER:                  -7.841
REMARK INTRA:                  -0.405
REMARK UNBOUND:                 0.053
REMARK  Name = 
REMARK  5 active torsions:
REMARK  status: ('A' for Active; 'I' for Inactive)
REMARK    1  A    between atoms: C_2  and  C_3
REMARK    2  A    between atoms: C_6  and  C_7
REMARK    3  A    between atoms: C_11  and  C_12
REMARK    4  A    between atoms: C_12  and  N_13
REMARK    5  A    between atoms: C_17  and  C_18
REMARK                            x       y       z     vdW  Elec       q    Type
REMARK                         _______ _______ _______ _____ _____    ______ ____
ROOT
ATOM      1  C   UNL     1      50.250   8.396  14.364  0.00  0.00    +0.000 C 
ATOM      2  C   UNL     1      50.866   9.642  14.972  0.00  0.00    +0.000 C 
ATOM      3  C   UNL     1      51.500   9.044  13.760  0.00  0.00    +0.000 C 
ENDROOT
BRANCH   1   4
ATOM      4  N   UNL     1      50.464   7.068  14.953  0.00  0.00    +0.000 N 
ATOM      5  C   UNL     1      50.024   6.637  16.200  0.00  0.00    +0.000 A 
ATOM      6  C   UNL     1      48.952   7.187  16.892  0.00  0.00    +0.000 A 
ATOM      7  C   UNL     1      48.580   6.647  18.130  0.00  0.00    +0.000 A 
ATOM      8  C   UNL     1      49.291   5.565  18.647  0.00  0.00    +0.000 A 
ATOM      9  C   UNL     1      50.348   5.079  17.896  0.00  0.00    +0.000 A 
ATOM     10  N   UNL     1      50.716   5.585  16.691  0.00  0.00    +0.000 NA
ATOM     11  H   UNL     1      51.311   6.551  14.737  0.00  0.00    +0.000 HD
BRANCH   8  12
ATOM     12  C   UNL     1      49.007   4.935  19.954  0.00  0.00    +0.000 C 
ATOM     13  N   UNL     1      48.489   3.670  19.950  0.00  0.00    +0.000 N 
ATOM     14  O   UNL     1      49.256   5.509  21.007  0.00  0.00    +0.000 OA
ATOM     15  H   UNL     1      48.491   3.076  19.133  0.00  0.00    +0.000 HD
ATOM     16  H   UNL     1      48.390   3.224  20.853  0.00  0.00    +0.000 HD
ENDBRANCH   8  12
ENDBRANCH   1   4
BRANCH   1  21
ATOM     17  C   UNL     1      46.964   7.687  12.699  0.00  0.00    +0.000 A 
ATOM     18  C   UNL     1      46.635   8.963  12.240  0.00  0.00    +0.000 A 
ATOM     19  N   UNL     1      47.437  10.039  12.385  0.00  0.00    +0.000 NA
ATOM     20  C   UNL     1      48.596   9.792  13.035  0.00  0.00    +0.000 A 
ATOM     21  C   UNL     1      48.949   8.550  13.567  0.00  0.00    +0.000 A 
ATOM     22  N   UNL     1      48.115   7.481  13.394  0.00  0.00    +0.000 NA
BRANCH  17  26
ATOM     23  C   UNL     1      44.489   4.243  11.911  0.00  0.00    +0.000 A 
ATOM     24  C   UNL     1      44.754   5.166  10.898  0.00  0.00    +0.000 A 
ATOM     25  C   UNL     1      45.563   6.278  11.159  0.00  0.00    +0.000 A 
ATOM     26  C   UNL     1      46.120   6.504  12.433  0.00  0.00    +0.000 A 
ATOM     27  C   UNL     1      45.852   5.551  13.434  0.00  0.00    +0.000 A 
ATOM     28  C   UNL     1      45.044   4.433  13.178  0.00  0.00    +0.000 A 
BRANCH  23  30
ATOM     29  N   UNL     1      42.991   2.181  11.431  0.00  0.00    +0.000 NA
ATOM     30  C   UNL     1      43.660   3.106  11.645  0.00  0.00    +0.000 C 
ENDBRANCH  23  30
ENDBRANCH  17  26
ENDBRANCH   1  21
TORSDOF 5
ENDMDL
MODEL 6
REMARK VINA RESULT:    -6.184      5.767      7.856
REMARK INTER + INTRA:          -7.939
REMARK INTER:                  -7.392
REMARK INTRA:                  -0.546
REMARK UNBOUND:                 0.053
REMARK  Name = 
REMARK  5 active torsions:
REMARK  status: ('A' for Active; 'I' for Inactive)
REMARK    1  A    between atoms: C_2  and  C_3
REMARK    2  A    between atoms: C_6  and  C_7
REMARK    3  A    between atoms: C_11  and  C_12
REMARK    4  A    between atoms: C_12  and  N_13
REMARK    5  A    between atoms: C_17  and  C_18
REMARK                            x       y       z     vdW  Elec       q    Type
REMARK                         _______ _______ _______ _____ _____    ______ ____
ROOT
ATOM      1  C   UNL     1      47.935   4.248  16.959  0.00  0.00    +0.000 C 
ATOM      2  C   UNL     1      46.977   5.146  17.719  0.00  0.00    +0.000 C 
ATOM      3  C   UNL     1      47.188   3.748  18.199  0.00  0.00    +0.000 C 
ENDROOT
BRANCH   1   4
ATOM      4  N   UNL     1      47.546   3.604  15.698  0.00  0.00    +0.000 N 
ATOM      5  C   UNL     1      47.046   4.238  14.566  0.00  0.00    +0.000 A 
ATOM      6  C   UNL     1      47.251   5.576  14.256  0.00  0.00    +0.000 A 
ATOM      7  C   UNL     1      46.724   6.099  13.067  0.00  0.00    +0.000 A 
ATOM      8  C   UNL     1      46.002   5.265  12.214  0.00  0.00    +0.000 A 
ATOM      9  C   UNL     1      45.840   3.945  12.600  0.00  0.00    +0.000 A 
ATOM     10  N   UNL     1      46.352   3.422  13.743  0.00  0.00    +0.000 NA
ATOM     11  H   UNL     1      47.164   2.663  15.710  0.00  0.00    +0.000 HD
BRANCH   8  12
ATOM     12  C   UNL     1      45.375   5.713  10.952  0.00  0.00    +0.000 C 
ATOM     13  N   UNL     1      44.027   5.937  10.959  0.00  0.00    +0.000 N 
ATOM     14  O   UNL     1      46.041   5.910   9.943  0.00  0.00    +0.000 OA
ATOM     15  H   UNL     1      43.486   6.018  11.807  0.00  0.00    +0.000 HD
ATOM     16  H   UNL     1      43.634   6.331  10.112  0.00  0.00    +0.000 HD
ENDBRANCH   8  12
ENDBRANCH   1   4
BRANCH   1  21
ATOM     17  C   UNL     1      51.618   3.732  17.455  0.00  0.00    +0.000 A 
ATOM     18  C   UNL     1      52.079   5.037  17.289  0.00  0.00    +0.000 A 
ATOM     19  N   UNL     1      51.267   6.096  17.079  0.00  0.00    +0.000 NA
ATOM     20  C   UNL     1      49.952   5.792  17.022  0.00  0.00    +0.000 A 
ATOM     21  C   UNL     1      49.439   4.496  17.123  0.00  0.00    +0.000 A 
ATOM     22  N   UNL     1      50.291   3.450  17.343  0.00  0.00    +0.000 NA
BRANCH  17  26
ATOM     23  C   UNL     1      54.224   0.440  18.444  0.00  0.00    +0.000 A 
ATOM     24  C   UNL     1      52.961   0.200  17.900  0.00  0.00    +0.000 A 
ATOM     25  C   UNL     1      52.124   1.272  17.575  0.00  0.00    +0.000 A 
ATOM     26  C   UNL     1      52.515   2.608  17.792  0.00  0.00    +0.000 A 
ATOM     27  C   UNL     1      53.799   2.826  18.328  0.00  0.00    +0.000 A 
ATOM     28  C   UNL     1      54.644   1.755  18.653  0.00  0.00    +0.000 A 
BRANCH  23  30
ATOM     29  N   UNL     1      55.775  -1.547  19.053  0.00  0.00    +0.000 NA
ATOM     30  C   UNL     1      55.081  -0.658  18.779  0.00  0.00    +0.000 C 
ENDBRANCH  23  30
ENDBRANCH  17  26
ENDBRANCH   1  21
TORSDOF 5
ENDMDL
MODEL 7
REMARK VINA RESULT:    -6.035      5.154      9.336
REMARK INTER + INTRA:          -7.745
REMARK INTER:                  -7.115
REMARK INTRA:                  -0.631
REMARK UNBOUND:                 0.053
REMARK  Name = 
REMARK  5 active torsions:
REMARK  status: ('A' for Active; 'I' for Inactive)
REMARK    1  A    between atoms: C_2  and  C_3
REMARK    2  A    between atoms: C_6  and  C_7
REMARK    3  A    between atoms: C_11  and  C_12
REMARK    4  A    between atoms: C_12  and  N_13
REMARK    5  A    between atoms: C_17  and  C_18
REMARK                            x       y       z     vdW  Elec       q    Type
REMARK                         _______ _______ _______ _____ _____    ______ ____
ROOT
ATOM      1  C   UNL     1      49.550   7.222  17.163  0.00  0.00    +0.000 C 
ATOM      2  C   UNL     1      48.381   6.922  18.084  0.00  0.00    +0.000 C 
ATOM      3  C   UNL     1      48.784   8.343  17.874  0.00  0.00    +0.000 C 
ENDROOT
BRANCH   1   4
ATOM      4  N   UNL     1      50.939   7.045  17.604  0.00  0.00    +0.000 N 
ATOM      5  C   UNL     1      51.567   5.837  17.890  0.00  0.00    +0.000 A 
ATOM      6  C   UNL     1      51.171   4.604  17.388  0.00  0.00    +0.000 A 
ATOM      7  C   UNL     1      51.903   3.456  17.721  0.00  0.00    +0.000 A 
ATOM      8  C   UNL     1      53.018   3.572  18.550  0.00  0.00    +0.000 A 
ATOM      9  C   UNL     1      53.341   4.836  19.011  0.00  0.00    +0.000 A 
ATOM     10  N   UNL     1      52.649   5.959  18.690  0.00  0.00    +0.000 NA
ATOM     11  H   UNL     1      51.381   7.758  18.176  0.00  0.00    +0.000 HD
BRANCH   8  12
ATOM     12  C   UNL     1      53.844   2.427  18.992  0.00  0.00    +0.000 C 
ATOM     13  N   UNL     1      55.030   2.704  19.611  0.00  0.00    +0.000 N 
ATOM     14  O   UNL     1      53.469   1.272  18.839  0.00  0.00    +0.000 OA
ATOM     15  H   UNL     1      55.266   3.619  19.967  0.00  0.00    +0.000 HD
ATOM     16  H   UNL     1      55.535   1.910  19.987  0.00  0.00    +0.000 HD
ENDBRANCH   8  12
ENDBRANCH   1   4
BRANCH   1  21
ATOM     17  C   UNL     1      48.111   6.330  13.815  0.00  0.00    +0.000 A 
ATOM     18  C   UNL     1      48.974   7.034  12.976  0.00  0.00    +0.000 A 
ATOM     19  N   UNL     1      50.035   7.742  13.419  0.00  0.00    +0.000 NA
ATOM     20  C   UNL     1      50.194   7.735  14.761  0.00  0.00    +0.000 A 
ATOM     21  C   UNL     1      49.328   7.097  15.652  0.00  0.00    +0.000 A 
ATOM     22  N   UNL     1      48.268   6.383  15.166  0.00  0.00    +0.000 NA
BRANCH  17  26
ATOM     23  C   UNL     1      44.918   3.847  12.316  0.00  0.00    +0.000 A 
ATOM     24  C   UNL     1      44.917   5.221  12.070  0.00  0.00    +0.000 A 
ATOM     25  C   UNL     1      45.958   6.019  12.554  0.00  0.00    +0.000 A 
ATOM     26  C   UNL     1      47.022   5.475  13.301  0.00  0.00    +0.000 A 
ATOM     27  C   UNL     1      47.010   4.085  13.523  0.00  0.00    +0.000 A 
ATOM     28  C   UNL     1      45.969   3.279  13.038  0.00  0.00    +0.000 A 
BRANCH  23  30
ATOM     29  N   UNL     1      42.985   2.364  11.427  0.00  0.00    +0.000 NA
ATOM     30  C   UNL     1      43.851   3.028  11.823  0.00  0.00    +0.000 C 
ENDBRANCH  23  30
ENDBRANCH  17  26
ENDBRANCH   1  21
TORSDOF 5
ENDMDL
