MODEL 1
REMARK VINA RESULT:    -7.435      0.000      0.000
REMARK INTER + INTRA:         -10.535
REMARK INTER:                 -10.042
REMARK INTRA:                  -0.492
REMARK UNBOUND:                -0.492
REMARK  Name = 
REMARK  7 active torsions:
REMARK  status: ('A' for Active; 'I' for Inactive)
REMARK    1  A    between atoms: N_1  and  C_2
REMARK    2  A    between atoms: C_2  and  C_3
REMARK    3  A    between atoms: C_3  and  C_4
REMARK    4  A    between atoms: C_7  and  O_8
REMARK    5  A    between atoms: O_8  and  C_9
REMARK    6  A    between atoms: C_9  and  C_10
REMARK    7  A    between atoms: C_10  and  O_11
REMARK                            x       y       z     vdW  Elec       q    Type
REMARK                         _______ _______ _______ _____ _____    ______ ____
ROOT
ATOM      1  C   UNL     1      46.285   2.160   7.872  0.00  0.00    +0.000 A 
ATOM      2  C   UNL     1      45.352   1.708   8.811  0.00  0.00    +0.000 A 
ATOM      3  C   UNL     1      44.433   2.601   9.364  0.00  0.00    +0.000 A 
ATOM      4  C   UNL     1      44.476   3.922   8.951  0.00  0.00    +0.000 A 
ATOM      5  N   UNL     1      45.355   4.385   8.037  0.00  0.00    +0.000 NA
ATOM      6  C   UNL     1      46.234   3.504   7.521  0.00  0.00    +0.000 A 
ENDROOT
BRANCH   1   7
ATOM      7  C   UNL     1      47.295   1.242   7.245  0.00  0.00    +0.000 C 
BRANCH   7   8
ATOM      8  C   UNL     1      48.458   2.009   6.608  0.00  0.00    +0.000 C 
BRANCH   8   9
ATOM      9  N   UNL     1      48.356   1.989   5.150  0.00  0.00    +0.000 NA
ATOM     10  H   UNL     1      48.981   2.693   4.758  0.00  0.00    +0.000 HD
ATOM     11  H   UNL     1      47.415   2.260   4.866  0.00  0.00    +0.000 HD
ENDBRANCH   8   9
ENDBRANCH   7   8
ENDBRANCH   1   7
BRANCH   4  12
ATOM     12  O   UNL     1      43.559   4.795   9.513  0.00  0.00    +0.000 OA
BRANCH  12  13
ATOM     13  C   UNL     1      43.314   4.471  10.892  0.00  0.00    +0.000 C 
BRANCH  13  14
ATOM     14  C   UNL     1      43.443   5.721  11.792  0.00  0.00    +0.000 C 
ATOM     15  C   UNL     1      44.493   6.726  11.292  0.00  0.00    +0.000 C 
ATOM     16  C   UNL     1      45.917   6.191  11.398  0.00  0.00    +0.000 C 
ATOM     17  C   UNL     1      46.244   5.711  12.811  0.00  0.00    +0.000 C 
ATOM     18  C   UNL     1      45.200   4.746  13.368  0.00  0.00    +0.000 C 
ATOM     19  C   UNL     1      43.781   5.300  13.233  0.00  0.00    +0.000 C 
BRANCH  14  20
ATOM     20  O   UNL     1      42.176   6.394  11.823  0.00  0.00    +0.000 OA
ATOM     21  H   UNL     1      42.345   7.283  12.187  0.00  0.00    +0.000 HD
ENDBRANCH  14  20
ENDBRANCH  13  14
ENDBRANCH  12  13
ENDBRANCH   4  12
TORSDOF 7
ENDMDL
MODEL 2
REMARK VINA RESULT:    -6.237      4.567      6.281
REMARK INTER + INTRA:          -8.917
REMARK INTER:                  -8.500
REMARK INTRA:                  -0.417
REMARK UNBOUND:                -0.492
REMARK  Name = 
REMARK  7 active torsions:
REMARK  status: ('A' for Active; 'I' for Inactive)
REMARK    1  A    between atoms: N_1  and  C_2
REMARK    2  A    between atoms: C_2  and  C_3
REMARK    3  A    between atoms: C_3  and  C_4
REMARK    4  A    between atoms: C_7  and  O_8
REMARK    5  A    between atoms: O_8  and  C_9
REMARK    6  A    between atoms: C_9  and  C_10
REMARK    7  A    between atoms: C_10  and  O_11
REMARK                            x       y       z     vdW  Elec       q    Type
REMARK                         _______ _______ _______ _____ _____    ______ ____
ROOT
ATOM      1  C   UNL     1      45.206   4.724  11.675  0.00  0.00    +0.000 A 
ATOM      2  C   UNL     1      45.991   5.638  12.387  0.00  0.00    +0.000 A 
ATOM      3  C   UNL     1      46.759   5.200  13.466  0.00  0.00    +0.000 A 
ATOM      4  C   UNL     1      46.720   3.854  13.794  0.00  0.00    +0.000 A 
ATOM      5  N   UNL     1      45.982   2.948  13.119  0.00  0.00    +0.000 NA
ATOM      6  C   UNL     1      45.246   3.397  12.083  0.00  0.00    +0.000 A 
ENDROOT
BRANCH   1   7
ATOM      7  C   UNL     1      44.361   5.141  10.505  0.00  0.00    +0.000 C 
BRANCH   7   8
ATOM      8  C   UNL     1      44.586   4.247   9.281  0.00  0.00    +0.000 C 
BRANCH   8   9
ATOM      9  N   UNL     1      45.583   4.833   8.388  0.00  0.00    +0.000 NA
ATOM     10  H   UNL     1      45.622   5.841   8.539  0.00  0.00    +0.000 HD
ATOM     11  H   UNL     1      45.296   4.705   7.418  0.00  0.00    +0.000 HD
ENDBRANCH   8   9
ENDBRANCH   7   8
ENDBRANCH   1   7
BRANCH   4  12
ATOM     12  O   UNL     1      47.486   3.439  14.871  0.00  0.00    +0.000 OA
BRANCH  12  13
ATOM     13  C   UNL     1      47.536   4.450  15.893  0.00  0.00    +0.000 C 
BRANCH  13  14
ATOM     14  C   UNL     1      47.565   3.819  17.303  0.00  0.00    +0.000 C 
ATOM     15  C   UNL     1      47.607   4.857  18.435  0.00  0.00    +0.000 C 
ATOM     16  C   UNL     1      48.923   5.628  18.478  0.00  0.00    +0.000 C 
ATOM     17  C   UNL     1      50.131   4.696  18.541  0.00  0.00    +0.000 C 
ATOM     18  C   UNL     1      50.106   3.616  17.461  0.00  0.00    +0.000 C 
ATOM     19  C   UNL     1      48.771   2.871  17.430  0.00  0.00    +0.000 C 
BRANCH  14  20
ATOM     20  O   UNL     1      46.376   3.034  17.476  0.00  0.00    +0.000 OA
ATOM     21  H   UNL     1      45.669   3.493  16.987  0.00  0.00    +0.000 HD
ENDBRANCH  14  20
ENDBRANCH  13  14
ENDBRANCH  12  13
ENDBRANCH   4  12
TORSDOF 7
ENDMDL
MODEL 3
REMARK VINA RESULT:    -5.738      3.194      6.068
REMARK INTER + INTRA:          -8.243
REMARK INTER:                  -7.739
REMARK INTRA:                  -0.504
REMARK UNBOUND:                -0.492
REMARK  Name = 
REMARK  7 active torsions:
REMARK  status: ('A' for Active; 'I' for Inactive)
REMARK    1  A    between atoms: N_1  and  C_2
REMARK    2  A    between atoms: C_2  and  C_3
REMARK    3  A    between atoms: C_3  and  C_4
REMARK    4  A    between atoms: C_7  and  O_8
REMARK    5  A    between atoms: O_8  and  C_9
REMARK    6  A    between atoms: C_9  and  C_10
REMARK    7  A    between atoms: C_10  and  O_11
REMARK                            x       y       z     vdW  Elec       q    Type
REMARK                         _______ _______ _______ _____ _____    ______ ____
ROOT
ATOM      1  C   UNL     1      47.485   7.139  13.482  0.00  0.00    +0.000 A 
ATOM      2  C   UNL     1      46.272   7.377  12.825  0.00  0.00    +0.000 A 
ATOM      3  C   UNL     1      45.369   6.331  12.635  0.00  0.00    +0.000 A 
ATOM      4  C   UNL     1      45.709   5.077  13.117  0.00  0.00    +0.000 A 
ATOM      5  N   UNL     1      46.864   4.820  13.765  0.00  0.00    +0.000 NA
ATOM      6  C   UNL     1      47.722   5.847  13.932  0.00  0.00    +0.000 A 
ENDROOT
BRANCH   1   7
ATOM      7  C   UNL     1      48.493   8.229  13.714  0.00  0.00    +0.000 C 
BRANCH   7   8
ATOM      8  C   UNL     1      49.726   8.078  12.818  0.00  0.00    +0.000 C 
BRANCH   8   9
ATOM      9  N   UNL     1      50.924   7.842  13.620  0.00  0.00    +0.000 NA
ATOM     10  H   UNL     1      51.515   7.155  13.152  0.00  0.00    +0.000 HD
ATOM     11  H   UNL     1      50.665   7.427  14.515  0.00  0.00    +0.000 HD
ENDBRANCH   8   9
ENDBRANCH   7   8
ENDBRANCH   1   7
BRANCH   4  12
ATOM     12  O   UNL     1      44.801   4.050  12.915  0.00  0.00    +0.000 OA
BRANCH  12  13
ATOM     13  C   UNL     1      45.209   3.204  11.826  0.00  0.00    +0.000 C 
BRANCH  13  14
ATOM     14  C   UNL     1      44.120   3.138  10.731  0.00  0.00    +0.000 C 
ATOM     15  C   UNL     1      44.334   1.996   9.726  0.00  0.00    +0.000 C 
ATOM     16  C   UNL     1      45.563   2.209   8.847  0.00  0.00    +0.000 C 
ATOM     17  C   UNL     1      45.534   3.564   8.142  0.00  0.00    +0.000 C 
ATOM     18  C   UNL     1      45.275   4.726   9.099  0.00  0.00    +0.000 C 
ATOM     19  C   UNL     1      44.049   4.479   9.978  0.00  0.00    +0.000 C 
BRANCH  14  20
ATOM     20  O   UNL     1      42.849   2.929  11.364  0.00  0.00    +0.000 OA
ATOM     21  H   UNL     1      42.642   3.751  11.846  0.00  0.00    +0.000 HD
ENDBRANCH  14  20
ENDBRANCH  13  14
ENDBRANCH  12  13
ENDBRANCH   4  12
TORSDOF 7
ENDMDL
MODEL 4
REMARK VINA RESULT:    -5.450      4.633      7.485
REMARK INTER + INTRA:          -7.854
REMARK INTER:                  -7.423
REMARK INTRA:                  -0.431
REMARK UNBOUND:                -0.492
REMARK  Name = 
REMARK  7 active torsions:
REMARK  status: ('A' for Active; 'I' for Inactive)
REMARK    1  A    between atoms: N_1  and  C_2
REMARK    2  A    between atoms: C_2  and  C_3
REMARK    3  A    between atoms: C_3  and  C_4
REMARK    4  A    between atoms: C_7  and  O_8
REMARK    5  A    between atoms: O_8  and  C_9
REMARK    6  A    between atoms: C_9  and  C_10
REMARK    7  A    between atoms: C_10  and  O_11
REMARK                            x       y       z     vdW  Elec       q    Type
REMARK                         _______ _______ _______ _____ _____    ______ ____
ROOT
ATOM      1  C   UNL     1      48.495   5.278  16.785  0.00  0.00    +0.000 A 
ATOM      2  C   UNL     1      47.557   4.302  16.432  0.00  0.00    +0.000 A 
ATOM      3  C   UNL     1      46.983   4.317  15.161  0.00  0.00    +0.000 A 
ATOM      4  C   UNL     1      47.375   5.310  14.278  0.00  0.00    +0.000 A 
ATOM      5  N   UNL     1      48.286   6.258  14.585  0.00  0.00    +0.000 NA
ATOM      6  C   UNL     1      48.823   6.223  15.821  0.00  0.00    +0.000 A 
ENDROOT
BRANCH   1   7
ATOM      7  C   UNL     1      49.145   5.307  18.140  0.00  0.00    +0.000 C 
BRANCH   7   8
ATOM      8  C   UNL     1      48.158   4.971  19.262  0.00  0.00    +0.000 C 
BRANCH   8   9
ATOM      9  N   UNL     1      48.518   3.711  19.909  0.00  0.00    +0.000 NA
ATOM     10  H   UNL     1      47.876   3.532  20.681  0.00  0.00    +0.000 HD
ATOM     11  H   UNL     1      49.445   3.789  20.325  0.00  0.00    +0.000 HD
ENDBRANCH   8   9
ENDBRANCH   7   8
ENDBRANCH   1   7
BRANCH   4  12
ATOM     12  O   UNL     1      46.791   5.312  13.022  0.00  0.00    +0.000 OA
BRANCH  12  13
ATOM     13  C   UNL     1      45.664   4.421  12.972  0.00  0.00    +0.000 C 
BRANCH  13  14
ATOM     14  C   UNL     1      44.446   5.096  12.303  0.00  0.00    +0.000 C 
ATOM     15  C   UNL     1      43.382   4.097  11.824  0.00  0.00    +0.000 C 
ATOM     16  C   UNL     1      43.863   3.236  10.660  0.00  0.00    +0.000 C 
ATOM     17  C   UNL     1      44.385   4.082   9.500  0.00  0.00    +0.000 C 
ATOM     18  C   UNL     1      45.412   5.124   9.939  0.00  0.00    +0.000 C 
ATOM     19  C   UNL     1      44.910   5.960  11.116  0.00  0.00    +0.000 C 
BRANCH  14  20
ATOM     20  O   UNL     1      43.826   5.969  13.258  0.00  0.00    +0.000 OA
ATOM     21  H   UNL     1      44.261   6.836  13.163  0.00  0.00    +0.000 HD
ENDBRANCH  14  20
ENDBRANCH  13  14
ENDBRANCH  12  13
ENDBRANCH   4  12
TORSDOF 7
ENDMDL
MODEL 5
REMARK VINA RESULT:    -5.366      4.783      6.920
REMARK INTER + INTRA:          -7.740
REMARK INTER:                  -7.294
REMARK INTRA:                  -0.445
REMARK UNBOUND:                -0.492
REMARK  Name = 
REMARK  7 active torsions:
REMARK  status: ('A' for Active; 'I' for Inactive)
REMARK    1  A    between atoms: N_1  and  C_2
REMARK    2  A    between atoms: C_2  and  C_3
REMARK    3  A    between atoms: C_3  and  C_4
REMARK    4  A    between atoms: C_7  and  O_8
REMARK    5  A    between atoms: O_8  and  C_9
REMARK    6  A    between atoms: C_9  and  C_10
REMARK    7  A    between atoms: C_10  and  O_11
REMARK                            x       y       z     vdW  Elec       q    Type
REMARK                         _______ _______ _______ _____ _____    ______ ____
ROOT
ATOM      1  C   UNL     1      45.362   5.011  11.866  0.00  0.00    +0.000 A 
ATOM      2  C   UNL     1      46.311   5.909  12.368  0.00  0.00    +0.000 A 
ATOM      3  C   UNL     1      47.151   5.520  13.411  0.00  0.00    +0.000 A 
ATOM      4  C   UNL     1      47.017   4.236  13.916  0.00  0.00    +0.000 A 
ATOM      5  N   UNL     1      46.120   3.344  13.444  0.00  0.00    +0.000 NA
ATOM      6  C   UNL     1      45.318   3.746  12.438  0.00  0.00    +0.000 A 
ENDROOT
BRANCH   1   7
ATOM      7  C   UNL     1      44.434   5.377  10.742  0.00  0.00    +0.000 C 
BRANCH   7   8
ATOM      8  C   UNL     1      43.020   5.693  11.240  0.00  0.00    +0.000 C 
BRANCH   8   9
ATOM      9  N   UNL     1      42.730   7.119  11.110  0.00  0.00    +0.000 NA
ATOM     10  H   UNL     1      42.918   7.585  11.998  0.00  0.00    +0.000 HD
ATOM     11  H   UNL     1      41.737   7.255  10.926  0.00  0.00    +0.000 HD
ENDBRANCH   8   9
ENDBRANCH   7   8
ENDBRANCH   1   7
BRANCH   4  12
ATOM     12  O   UNL     1      47.857   3.870  14.954  0.00  0.00    +0.000 OA
BRANCH  12  13
ATOM     13  C   UNL     1      47.359   4.346  16.216  0.00  0.00    +0.000 C 
BRANCH  13  14
ATOM     14  C   UNL     1      48.494   4.453  17.260  0.00  0.00    +0.000 C 
ATOM     15  C   UNL     1      47.991   4.430  18.712  0.00  0.00    +0.000 C 
ATOM     16  C   UNL     1      47.194   5.677  19.079  0.00  0.00    +0.000 C 
ATOM     17  C   UNL     1      47.970   6.960  18.787  0.00  0.00    +0.000 C 
ATOM     18  C   UNL     1      48.531   7.005  17.366  0.00  0.00    +0.000 C 
ATOM     19  C   UNL     1      49.310   5.736  17.020  0.00  0.00    +0.000 C 
BRANCH  14  20
ATOM     20  O   UNL     1      49.380   3.337  17.088  0.00  0.00    +0.000 OA
ATOM     21  H   UNL     1      48.831   2.535  17.170  0.00  0.00    +0.000 HD
ENDBRANCH  14  20
ENDBRANCH  13  14
ENDBRANCH  12  13
ENDBRANCH   4  12
TORSDOF 7
ENDMDL
MODEL 6
REMARK VINA RESULT:    -5.016      3.828      5.902
REMARK INTER + INTRA:          -7.268
REMARK INTER:                  -6.654
REMARK INTRA:                  -0.614
REMARK UNBOUND:                -0.492
REMARK  Name = 
REMARK  7 active torsions:
REMARK  status: ('A' for Active; 'I' for Inactive)
REMARK    1  A    between atoms: N_1  and  C_2
REMARK    2  A    between atoms: C_2  and  C_3
REMARK    3  A    between atoms: C_3  and  C_4
REMARK    4  A    between atoms: C_7  and  O_8
REMARK    5  A    between atoms: O_8  and  C_9
REMARK    6  A    between atoms: C_9  and  C_10
REMARK    7  A    between atoms: C_10  and  O_11
REMARK                            x       y       z     vdW  Elec       q    Type
REMARK                         _______ _______ _______ _____ _____    ______ ____
ROOT
ATOM      1  C   UNL     1      48.848   8.889  11.943  0.00  0.00    +0.000 A 
ATOM      2  C   UNL     1      48.507   7.544  11.763  0.00  0.00    +0.000 A 
ATOM      3  C   UNL     1      47.183   7.135  11.927  0.00  0.00    +0.000 A 
ATOM      4  C   UNL     1      46.239   8.093  12.260  0.00  0.00    +0.000 A 
ATOM      5  N   UNL     1      46.536   9.399  12.428  0.00  0.00    +0.000 NA
ATOM      6  C   UNL     1      47.822   9.767  12.268  0.00  0.00    +0.000 A 
ENDROOT
BRANCH   1   7
ATOM      7  C   UNL     1      50.257   9.383  11.778  0.00  0.00    +0.000 C 
BRANCH   7   8
ATOM      8  C   UNL     1      51.212   8.271  11.332  0.00  0.00    +0.000 C 
BRANCH   8   9
ATOM      9  N   UNL     1      52.218   8.008  12.360  0.00  0.00    +0.000 NA
ATOM     10  H   UNL     1      52.879   7.312  12.015  0.00  0.00    +0.000 HD
ATOM     11  H   UNL     1      51.774   7.593  13.179  0.00  0.00    +0.000 HD
ENDBRANCH   8   9
ENDBRANCH   7   8
ENDBRANCH   1   7
BRANCH   4  12
ATOM     12  O   UNL     1      44.931   7.668  12.423  0.00  0.00    +0.000 OA
BRANCH  12  13
ATOM     13  C   UNL     1      44.474   6.943  11.268  0.00  0.00    +0.000 C 
BRANCH  13  14
ATOM     14  C   UNL     1      43.465   5.841  11.663  0.00  0.00    +0.000 C 
ATOM     15  C   UNL     1      43.709   5.265  13.066  0.00  0.00    +0.000 C 
ATOM     16  C   UNL     1      45.003   4.464  13.157  0.00  0.00    +0.000 C 
ATOM     17  C   UNL     1      45.075   3.369  12.094  0.00  0.00    +0.000 C 
ATOM     18  C   UNL     1      44.791   3.889  10.686  0.00  0.00    +0.000 C 
ATOM     19  C   UNL     1      43.498   4.702  10.628  0.00  0.00    +0.000 C 
BRANCH  14  20
ATOM     20  O   UNL     1      42.145   6.404  11.646  0.00  0.00    +0.000 OA
ATOM     21  H   UNL     1      41.946   6.668  12.564  0.00  0.00    +0.000 HD
ENDBRANCH  14  20
ENDBRANCH  13  14
ENDBRANCH  12  13
ENDBRANCH   4  12
TORSDOF 7
ENDMDL
MODEL 7
REMARK VINA RESULT:    -4.773      4.604      6.823
REMARK INTER + INTRA:          -6.939
REMARK INTER:                  -6.520
REMARK INTRA:                  -0.419
REMARK UNBOUND:                -0.492
REMARK  Name = 
REMARK  7 active torsions:
REMARK  status: ('A' for Active; 'I' for Inactive)
REMARK    1  A    between atoms: N_1  and  C_2
REMARK    2  A    between atoms: C_2  and  C_3
REMARK    3  A    between atoms: C_3  and  C_4
REMARK    4  A    between atoms: C_7  and  O_8
REMARK    5  A    between atoms: O_8  and  C_9
REMARK    6  A    between atoms: C_9  and  C_10
REMARK    7  A    between atoms: C_10  and  O_11
REMARK                            x       y       z     vdW  Elec       q    Type
REMARK                         _______ _______ _______ _____ _____    ______ ____
ROOT
ATOM      1  C   UNL     1      45.080   5.127  11.916  0.00  0.00    +0.000 A 
ATOM      2  C   UNL     1      46.115   6.054  11.755  0.00  0.00    +0.000 A 
ATOM      3  C   UNL     1      47.097   6.175  12.739  0.00  0.00    +0.000 A 
ATOM      4  C   UNL     1      47.012   5.355  13.852  0.00  0.00    +0.000 A 
ATOM      5  N   UNL     1      46.033   4.443  14.029  0.00  0.00    +0.000 NA
ATOM      6  C   UNL     1      45.095   4.348  13.066  0.00  0.00    +0.000 A 
ENDROOT
BRANCH   1   7
ATOM      7  C   UNL     1      43.997   4.954  10.887  0.00  0.00    +0.000 C 
BRANCH   7   8
ATOM      8  C   UNL     1      42.665   5.557  11.343  0.00  0.00    +0.000 C 
BRANCH   8   9
ATOM      9  N   UNL     1      42.672   7.010  11.182  0.00  0.00    +0.000 NA
ATOM     10  H   UNL     1      43.514   7.290  10.679  0.00  0.00    +0.000 HD
ATOM     11  H   UNL     1      42.727   7.459  12.095  0.00  0.00    +0.000 HD
ENDBRANCH   8   9
ENDBRANCH   7   8
ENDBRANCH   1   7
BRANCH   4  12
ATOM     12  O   UNL     1      47.994   5.493  14.820  0.00  0.00    +0.000 OA
BRANCH  12  13
ATOM     13  C   UNL     1      48.823   6.638  14.558  0.00  0.00    +0.000 C 
BRANCH  13  14
ATOM     14  C   UNL     1      49.119   7.423  15.856  0.00  0.00    +0.000 C 
ATOM     15  C   UNL     1      50.357   8.327  15.753  0.00  0.00    +0.000 C 
ATOM     16  C   UNL     1      51.656   7.535  15.638  0.00  0.00    +0.000 C 
ATOM     17  C   UNL     1      51.809   6.519  16.767  0.00  0.00    +0.000 C 
ATOM     18  C   UNL     1      50.579   5.629  16.937  0.00  0.00    +0.000 C 
ATOM     19  C   UNL     1      49.292   6.447  17.033  0.00  0.00    +0.000 C 
BRANCH  14  20
ATOM     20  O   UNL     1      47.991   8.261  16.150  0.00  0.00    +0.000 OA
ATOM     21  H   UNL     1      48.348   9.070  16.562  0.00  0.00    +0.000 HD
ENDBRANCH  14  20
ENDBRANCH  13  14
ENDBRANCH  12  13
ENDBRANCH   4  12
TORSDOF 7
ENDMDL
MODEL 8
REMARK VINA RESULT:    -4.619      5.667      7.975
REMARK INTER + INTRA:          -6.732
REMARK INTER:                  -6.095
REMARK INTRA:                  -0.637
REMARK UNBOUND:                -0.492
REMARK  Name = 
REMARK  7 active torsions:
REMARK  status: ('A' for Active; 'I' for Inactive)
REMARK    1  A    between atoms: N_1  and  C_2
REMARK    2  A    between atoms: C_2  and  C_3
REMARK    3  A    between atoms: C_3  and  C_4
REMARK    4  A    between atoms: C_7  and  O_8
REMARK    5  A    between atoms: O_8  and  C_9
REMARK    6  A    between atoms: C_9  and  C_10
REMARK    7  A    between atoms: C_10  and  O_11
REMARK                            x       y       z     vdW  Elec       q    Type
REMARK                         _______ _______ _______ _____ _____    ______ ____
ROOT
ATOM      1  C   UNL     1      46.804   5.833  13.039  0.00  0.00    +0.000 A 
ATOM      2  C   UNL     1      47.782   6.279  13.935  0.00  0.00    +0.000 A 
ATOM      3  C   UNL     1      48.032   5.561  15.104  0.00  0.00    +0.000 A 
ATOM      4  C   UNL     1      47.296   4.410  15.335  0.00  0.00    +0.000 A 
ATOM      5  N   UNL     1      46.356   3.948  14.484  0.00  0.00    +0.000 NA
ATOM      6  C   UNL     1      46.131   4.662  13.363  0.00  0.00    +0.000 A 
ENDROOT
BRANCH   1   7
ATOM      7  C   UNL     1      46.496   6.567  11.764  0.00  0.00    +0.000 C 
BRANCH   7   8
ATOM      8  C   UNL     1      46.077   8.018  12.020  0.00  0.00    +0.000 C 
BRANCH   8   9
ATOM      9  N   UNL     1      44.816   8.073  12.755  0.00  0.00    +0.000 NA
ATOM     10  H   UNL     1      44.222   7.295  12.466  0.00  0.00    +0.000 HD
ATOM     11  H   UNL     1      44.307   8.921  12.508  0.00  0.00    +0.000 HD
ENDBRANCH   8   9
ENDBRANCH   7   8
ENDBRANCH   1   7
BRANCH   4  12
ATOM     12  O   UNL     1      47.555   3.712  16.504  0.00  0.00    +0.000 OA
BRANCH  12  13
ATOM     13  C   UNL     1      47.573   4.593  17.640  0.00  0.00    +0.000 C 
BRANCH  13  14
ATOM     14  C   UNL     1      48.624   4.142  18.680  0.00  0.00    +0.000 C 
ATOM     15  C   UNL     1      48.887   5.188  19.774  0.00  0.00    +0.000 C 
ATOM     16  C   UNL     1      49.581   6.437  19.240  0.00  0.00    +0.000 C 
ATOM     17  C   UNL     1      50.864   6.099  18.483  0.00  0.00    +0.000 C 
ATOM     18  C   UNL     1      50.659   5.026  17.416  0.00  0.00    +0.000 C 
ATOM     19  C   UNL     1      49.947   3.794  17.974  0.00  0.00    +0.000 C 
BRANCH  14  20
ATOM     20  O   UNL     1      48.149   2.950  19.322  0.00  0.00    +0.000 OA
ATOM     21  H   UNL     1      48.479   2.980  20.239  0.00  0.00    +0.000 HD
ENDBRANCH  14  20
ENDBRANCH  13  14
ENDBRANCH  12  13
ENDBRANCH   4  12
TORSDOF 7
ENDMDL
MODEL 9
REMARK VINA RESULT:    -4.611      8.735     10.363
REMARK INTER + INTRA:          -6.721
REMARK INTER:                  -6.163
REMARK INTRA:                  -0.558
REMARK UNBOUND:                -0.492
REMARK  Name = 
REMARK  7 active torsions:
REMARK  status: ('A' for Active; 'I' for Inactive)
REMARK    1  A    between atoms: N_1  and  C_2
REMARK    2  A    between atoms: C_2  and  C_3
REMARK    3  A    between atoms: C_3  and  C_4
REMARK    4  A    between atoms: C_7  and  O_8
REMARK    5  A    between atoms: O_8  and  C_9
REMARK    6  A    between atoms: C_9  and  C_10
REMARK    7  A    between atoms: C_10  and  O_11
REMARK                            x       y       z     vdW  Elec       q    Type
REMARK                         _______ _______ _______ _____ _____    ______ ____
ROOT
ATOM      1  C   UNL     1      53.314   1.781  18.110  0.00  0.00    +0.000 A 
ATOM      2  C   UNL     1      52.854   3.102  18.132  0.00  0.00    +0.000 A 
ATOM      3  C   UNL     1      51.540   3.386  17.757  0.00  0.00    +0.000 A 
ATOM      4  C   UNL     1      50.726   2.331  17.377  0.00  0.00    +0.000 A 
ATOM      5  N   UNL     1      51.138   1.046  17.359  0.00  0.00    +0.000 NA
ATOM      6  C   UNL     1      52.412   0.799  17.721  0.00  0.00    +0.000 A 
ENDROOT
BRANCH   1   7
ATOM      7  C   UNL     1      54.718   1.419  18.505  0.00  0.00    +0.000 C 
BRANCH   7   8
ATOM      8  C   UNL     1      54.889  -0.088  18.718  0.00  0.00    +0.000 C 
BRANCH   8   9
ATOM      9  N   UNL     1      54.958  -0.406  20.143  0.00  0.00    +0.000 NA
ATOM     10  H   UNL     1      54.856  -1.413  20.270  0.00  0.00    +0.000 HD
ATOM     11  H   UNL     1      54.172   0.020  20.631  0.00  0.00    +0.000 HD
ENDBRANCH   8   9
ENDBRANCH   7   8
ENDBRANCH   1   7
BRANCH   4  12
ATOM     12  O   UNL     1      49.426   2.633  17.005  0.00  0.00    +0.000 OA
BRANCH  12  13
ATOM     13  C   UNL     1      48.705   3.244  18.088  0.00  0.00    +0.000 C 
BRANCH  13  14
ATOM     14  C   UNL     1      47.537   4.111  17.564  0.00  0.00    +0.000 C 
ATOM     15  C   UNL     1      47.834   4.782  16.214  0.00  0.00    +0.000 C 
ATOM     16  C   UNL     1      48.916   5.853  16.315  0.00  0.00    +0.000 C 
ATOM     17  C   UNL     1      48.595   6.892  17.387  0.00  0.00    +0.000 C 
ATOM     18  C   UNL     1      48.246   6.266  18.736  0.00  0.00    +0.000 C 
ATOM     19  C   UNL     1      47.172   5.186  18.603  0.00  0.00    +0.000 C 
BRANCH  14  20
ATOM     20  O   UNL     1      46.387   3.269  17.388  0.00  0.00    +0.000 OA
ATOM     21  H   UNL     1      46.631   2.393  17.740  0.00  0.00    +0.000 HD
ENDBRANCH  14  20
ENDBRANCH  13  14
ENDBRANCH  12  13
ENDBRANCH   4  12
TORSDOF 7
ENDMDL
