MODEL 1
REMARK VINA RESULT:    -8.150      0.000      0.000
REMARK INTER + INTRA:         -12.019
REMARK INTER:                 -11.009
REMARK INTRA:                  -1.010
REMARK UNBOUND:                -1.010
REMARK  Name = 
REMARK  8 active torsions:
REMARK  status: ('A' for Active; 'I' for Inactive)
REMARK    1  A    between atoms: C_1  and  C_2
REMARK    2  A    between atoms: C_2  and  C_3
REMARK    3  A    between atoms: C_2  and  C_14
REMARK    4  A    between atoms: C_3  and  N_4
REMARK    5  A    between atoms: N_4  and  C_5
REMARK    6  A    between atoms: C_8  and  C_9
REMARK    7  A    between atoms: C_18  and  C_19
REMARK    8  A    between atoms: C_19  and  C_20
REMARK                            x       y       z     vdW  Elec       q    Type
REMARK                         _______ _______ _______ _____ _____    ______ ____
ROOT
ATOM      1  C   UNL     1      45.716   4.473  12.990  0.00  0.00    +0.000 C 
ATOM      2  C   UNL     1      45.364   5.188  11.680  0.00  0.00    +0.000 C 
ENDROOT
BRANCH   2   3
ATOM      3  C   UNL     1      45.763   6.655  11.800  0.00  0.00    +0.000 A 
ATOM      4  C   UNL     1      44.810   7.682  11.792  0.00  0.00    +0.000 A 
ATOM      5  C   UNL     1      45.195   8.999  12.025  0.00  0.00    +0.000 A 
ATOM      6  C   UNL     1      46.535   9.303  12.267  0.00  0.00    +0.000 A 
ATOM      7  C   UNL     1      47.525   8.303  12.265  0.00  0.00    +0.000 A 
ATOM      8  C   UNL     1      47.113   6.984  12.014  0.00  0.00    +0.000 A 
BRANCH   7   9
ATOM      9  C   UNL     1      48.985   8.670  12.582  0.00  0.00    +0.000 C 
ATOM     10  C   UNL     1      49.555   9.557  11.465  0.00  0.00    +0.000 C 
ATOM     11  C   UNL     1      49.069   9.333  13.960  0.00  0.00    +0.000 C 
ATOM     12  C   UNL     1      49.200   8.158  14.918  0.00  0.00    +0.000 C 
ATOM     13  O   UNL     1      49.697   7.040  14.170  0.00  0.00    +0.000 OA
ATOM     14  C   UNL     1      49.937   7.487  12.828  0.00  0.00    +0.000 C 
ENDBRANCH   7   9
ENDBRANCH   2   3
BRANCH   2  15
ATOM     15  C   UNL     1      43.884   5.035  11.280  0.00  0.00    +0.000 C 
BRANCH  15  16
ATOM     16  N   UNL     1      43.717   4.852   9.829  0.00  0.00    +0.000 N 
ATOM     17  H   UNL     1      43.748   5.734   9.318  0.00  0.00    +0.000 HD
BRANCH  16  18
ATOM     18  C   UNL     1      44.562   3.909   9.221  0.00  0.00    +0.000 A 
ATOM     19  C   UNL     1      45.459   4.320   8.230  0.00  0.00    +0.000 A 
ATOM     20  C   UNL     1      46.294   3.394   7.602  0.00  0.00    +0.000 A 
ATOM     21  C   UNL     1      46.181   2.060   7.964  0.00  0.00    +0.000 A 
ATOM     22  N   UNL     1      45.281   1.598   8.872  0.00  0.00    +0.000 NA
ATOM     23  C   UNL     1      44.489   2.530   9.451  0.00  0.00    +0.000 A 
BRANCH  21  24
ATOM     24  C   UNL     1      47.085   1.030   7.363  0.00  0.00    +0.000 C 
ATOM     25  N   UNL     1      46.768  -0.265   7.677  0.00  0.00    +0.000 N 
ATOM     26  O   UNL     1      48.040   1.314   6.653  0.00  0.00    +0.000 OA
ATOM     27  H   UNL     1      45.965  -0.443   8.271  0.00  0.00    +0.000 HD
ATOM     28  H   UNL     1      47.329  -1.025   7.324  0.00  0.00    +0.000 HD
ENDBRANCH  21  24
ENDBRANCH  16  18
ENDBRANCH  15  16
ENDBRANCH   2  15
TORSDOF 6
ENDMDL
MODEL 2
REMARK VINA RESULT:    -7.961      1.284      2.100
REMARK INTER + INTRA:         -11.763
REMARK INTER:                 -10.715
REMARK INTRA:                  -1.048
REMARK UNBOUND:                -1.010
REMARK  Name = 
REMARK  8 active torsions:
REMARK  status: ('A' for Active; 'I' for Inactive)
REMARK    1  A    between atoms: C_1  and  C_2
REMARK    2  A    between atoms: C_2  and  C_3
REMARK    3  A    between atoms: C_2  and  C_14
REMARK    4  A    between atoms: C_3  and  N_4
REMARK    5  A    between atoms: N_4  and  C_5
REMARK    6  A    between atoms: C_8  and  C_9
REMARK    7  A    between atoms: C_18  and  C_19
REMARK    8  A    between atoms: C_19  and  C_20
REMARK                            x       y       z     vdW  Elec       q    Type
REMARK                         _______ _______ _______ _____ _____    ______ ____
ROOT
ATOM      1  C   UNL     1      43.564   7.141  11.419  0.00  0.00    +0.000 C 
ATOM      2  C   UNL     1      43.596   5.795  12.150  0.00  0.00    +0.000 C 
ENDROOT
BRANCH   2   3
ATOM      3  C   UNL     1      44.955   5.635  12.823  0.00  0.00    +0.000 A 
ATOM      4  C   UNL     1      45.340   4.434  13.434  0.00  0.00    +0.000 A 
ATOM      5  C   UNL     1      46.630   4.280  13.931  0.00  0.00    +0.000 A 
ATOM      6  C   UNL     1      47.548   5.325  13.825  0.00  0.00    +0.000 A 
ATOM      7  C   UNL     1      47.195   6.554  13.235  0.00  0.00    +0.000 A 
ATOM      8  C   UNL     1      45.883   6.688  12.753  0.00  0.00    +0.000 A 
BRANCH   7   9
ATOM      9  C   UNL     1      48.249   7.666  13.094  0.00  0.00    +0.000 C 
ATOM     10  C   UNL     1      48.536   7.927  11.607  0.00  0.00    +0.000 C 
ATOM     11  C   UNL     1      47.783   8.924  13.832  0.00  0.00    +0.000 C 
ATOM     12  C   UNL     1      48.266   8.705  15.258  0.00  0.00    +0.000 C 
ATOM     13  O   UNL     1      49.338   7.753  15.213  0.00  0.00    +0.000 OA
ATOM     14  C   UNL     1      49.577   7.432  13.835  0.00  0.00    +0.000 C 
ENDBRANCH   7   9
ENDBRANCH   2   3
BRANCH   2  15
ATOM     15  C   UNL     1      43.271   4.596  11.237  0.00  0.00    +0.000 C 
BRANCH  15  16
ATOM     16  N   UNL     1      43.651   4.847   9.837  0.00  0.00    +0.000 N 
ATOM     17  H   UNL     1      43.997   5.795   9.690  0.00  0.00    +0.000 HD
BRANCH  16  18
ATOM     18  C   UNL     1      44.526   3.915   9.255  0.00  0.00    +0.000 A 
ATOM     19  C   UNL     1      45.471   4.345   8.318  0.00  0.00    +0.000 A 
ATOM     20  C   UNL     1      46.337   3.431   7.716  0.00  0.00    +0.000 A 
ATOM     21  C   UNL     1      46.208   2.090   8.047  0.00  0.00    +0.000 A 
ATOM     22  N   UNL     1      45.264   1.611   8.899  0.00  0.00    +0.000 NA
ATOM     23  C   UNL     1      44.443   2.532   9.455  0.00  0.00    +0.000 A 
BRANCH  21  24
ATOM     24  C   UNL     1      47.142   1.072   7.473  0.00  0.00    +0.000 C 
ATOM     25  N   UNL     1      48.136   1.586   6.684  0.00  0.00    +0.000 N 
ATOM     26  O   UNL     1      47.029  -0.129   7.679  0.00  0.00    +0.000 OA
ATOM     27  H   UNL     1      48.183   2.590   6.545  0.00  0.00    +0.000 HD
ATOM     28  H   UNL     1      48.806   0.972   6.246  0.00  0.00    +0.000 HD
ENDBRANCH  21  24
ENDBRANCH  16  18
ENDBRANCH  15  16
ENDBRANCH   2  15
TORSDOF 6
ENDMDL
MODEL 3
REMARK VINA RESULT:    -7.858      2.654      3.768
REMARK INTER + INTRA:         -11.624
REMARK INTER:                 -10.763
REMARK INTRA:                  -0.861
REMARK UNBOUND:                -1.010
REMARK  Name = 
REMARK  8 active torsions:
REMARK  status: ('A' for Active; 'I' for Inactive)
REMARK    1  A    between atoms: C_1  and  C_2
REMARK    2  A    between atoms: C_2  and  C_3
REMARK    3  A    between atoms: C_2  and  C_14
REMARK    4  A    between atoms: C_3  and  N_4
REMARK    5  A    between atoms: N_4  and  C_5
REMARK    6  A    between atoms: C_8  and  C_9
REMARK    7  A    between atoms: C_18  and  C_19
REMARK    8  A    between atoms: C_19  and  C_20
REMARK                            x       y       z     vdW  Elec       q    Type
REMARK                         _______ _______ _______ _____ _____    ______ ____
ROOT
ATOM      1  C   UNL     1      44.468   4.222  13.266  0.00  0.00    +0.000 C 
ATOM      2  C   UNL     1      45.663   4.691  12.427  0.00  0.00    +0.000 C 
ENDROOT
BRANCH   2   3
ATOM      3  C   UNL     1      46.738   5.230  13.365  0.00  0.00    +0.000 A 
ATOM      4  C   UNL     1      47.477   6.380  13.057  0.00  0.00    +0.000 A 
ATOM      5  C   UNL     1      48.365   6.914  13.985  0.00  0.00    +0.000 A 
ATOM      6  C   UNL     1      48.523   6.305  15.230  0.00  0.00    +0.000 A 
ATOM      7  C   UNL     1      47.814   5.138  15.571  0.00  0.00    +0.000 A 
ATOM      8  C   UNL     1      46.935   4.611  14.611  0.00  0.00    +0.000 A 
BRANCH   7   9
ATOM      9  C   UNL     1      47.980   4.522  16.971  0.00  0.00    +0.000 C 
ATOM     10  C   UNL     1      47.177   5.335  17.998  0.00  0.00    +0.000 C 
ATOM     11  C   UNL     1      47.576   3.045  16.944  0.00  0.00    +0.000 C 
ATOM     12  C   UNL     1      48.851   2.330  16.523  0.00  0.00    +0.000 C 
ATOM     13  O   UNL     1      49.955   3.194  16.827  0.00  0.00    +0.000 OA
ATOM     14  C   UNL     1      49.427   4.364  17.468  0.00  0.00    +0.000 C 
ENDBRANCH   7   9
ENDBRANCH   2   3
BRANCH   2  15
ATOM     15  C   UNL     1      45.283   5.723  11.348  0.00  0.00    +0.000 C 
BRANCH  15  16
ATOM     16  N   UNL     1      44.507   5.120  10.252  0.00  0.00    +0.000 N 
ATOM     17  H   UNL     1      44.012   5.816   9.694  0.00  0.00    +0.000 HD
BRANCH  16  18
ATOM     18  C   UNL     1      45.202   4.232   9.415  0.00  0.00    +0.000 A 
ATOM     19  C   UNL     1      45.983   4.734   8.370  0.00  0.00    +0.000 A 
ATOM     20  C   UNL     1      46.668   3.867   7.516  0.00  0.00    +0.000 A 
ATOM     21  C   UNL     1      46.520   2.502   7.715  0.00  0.00    +0.000 A 
ATOM     22  N   UNL     1      45.721   1.961   8.671  0.00  0.00    +0.000 NA
ATOM     23  C   UNL     1      45.073   2.839   9.472  0.00  0.00    +0.000 A 
BRANCH  21  24
ATOM     24  C   UNL     1      47.269   1.525   6.864  0.00  0.00    +0.000 C 
ATOM     25  N   UNL     1      48.283   2.070   6.123  0.00  0.00    +0.000 N 
ATOM     26  O   UNL     1      46.998   0.332   6.821  0.00  0.00    +0.000 OA
ATOM     27  H   UNL     1      48.465   3.065   6.196  0.00  0.00    +0.000 HD
ATOM     28  H   UNL     1      48.836   1.487   5.513  0.00  0.00    +0.000 HD
ENDBRANCH  21  24
ENDBRANCH  16  18
ENDBRANCH  15  16
ENDBRANCH   2  15
TORSDOF 6
ENDMDL
MODEL 4
REMARK VINA RESULT:    -6.993      4.091      7.117
REMARK INTER + INTRA:         -10.456
REMARK INTER:                  -9.070
REMARK INTRA:                  -1.386
REMARK UNBOUND:                -1.010
REMARK  Name = 
REMARK  8 active torsions:
REMARK  status: ('A' for Active; 'I' for Inactive)
REMARK    1  A    between atoms: C_1  and  C_2
REMARK    2  A    between atoms: C_2  and  C_3
REMARK    3  A    between atoms: C_2  and  C_14
REMARK    4  A    between atoms: C_3  and  N_4
REMARK    5  A    between atoms: N_4  and  C_5
REMARK    6  A    between atoms: C_8  and  C_9
REMARK    7  A    between atoms: C_18  and  C_19
REMARK    8  A    between atoms: C_19  and  C_20
REMARK                            x       y       z     vdW  Elec       q    Type
REMARK                         _______ _______ _______ _____ _____    ______ ____
ROOT
ATOM      1  C   UNL     1      49.162   9.605  11.763  0.00  0.00    +0.000 C 
ATOM      2  C   UNL     1      48.839   8.106  11.754  0.00  0.00    +0.000 C 
ENDROOT
BRANCH   2   3
ATOM      3  C   UNL     1      47.324   7.931  11.777  0.00  0.00    +0.000 A 
ATOM      4  C   UNL     1      46.461   9.007  12.021  0.00  0.00    +0.000 A 
ATOM      5  C   UNL     1      45.083   8.841  11.917  0.00  0.00    +0.000 A 
ATOM      6  C   UNL     1      44.555   7.598  11.569  0.00  0.00    +0.000 A 
ATOM      7  C   UNL     1      45.387   6.487  11.334  0.00  0.00    +0.000 A 
ATOM      8  C   UNL     1      46.773   6.678  11.459  0.00  0.00    +0.000 A 
BRANCH   7   9
ATOM      9  C   UNL     1      44.770   5.144  10.906  0.00  0.00    +0.000 C 
ATOM     10  C   UNL     1      45.303   4.742   9.523  0.00  0.00    +0.000 C 
ATOM     11  C   UNL     1      45.042   4.080  11.974  0.00  0.00    +0.000 C 
ATOM     12  C   UNL     1      43.890   4.250  12.954  0.00  0.00    +0.000 C 
ATOM     13  O   UNL     1      42.821   4.906  12.258  0.00  0.00    +0.000 OA
ATOM     14  C   UNL     1      43.233   5.084  10.895  0.00  0.00    +0.000 C 
ENDBRANCH   7   9
ENDBRANCH   2   3
BRANCH   2  15
ATOM     15  C   UNL     1      49.516   7.328  12.899  0.00  0.00    +0.000 C 
BRANCH  15  16
ATOM     16  N   UNL     1      48.983   7.706  14.218  0.00  0.00    +0.000 N 
ATOM     17  H   UNL     1      48.236   8.398  14.154  0.00  0.00    +0.000 HD
BRANCH  16  18
ATOM     18  C   UNL     1      48.593   6.648  15.056  0.00  0.00    +0.000 A 
ATOM     19  C   UNL     1      47.709   5.676  14.577  0.00  0.00    +0.000 A 
ATOM     20  C   UNL     1      47.297   4.626  15.401  0.00  0.00    +0.000 A 
ATOM     21  C   UNL     1      47.759   4.600  16.708  0.00  0.00    +0.000 A 
ATOM     22  N   UNL     1      48.564   5.555  17.243  0.00  0.00    +0.000 NA
ATOM     23  C   UNL     1      48.935   6.556  16.410  0.00  0.00    +0.000 A 
BRANCH  21  24
ATOM     24  C   UNL     1      47.393   3.473  17.622  0.00  0.00    +0.000 C 
ATOM     25  N   UNL     1      48.253   3.282  18.669  0.00  0.00    +0.000 N 
ATOM     26  O   UNL     1      46.408   2.768  17.449  0.00  0.00    +0.000 OA
ATOM     27  H   UNL     1      49.055   3.896  18.765  0.00  0.00    +0.000 HD
ATOM     28  H   UNL     1      48.090   2.537  19.331  0.00  0.00    +0.000 HD
ENDBRANCH  21  24
ENDBRANCH  16  18
ENDBRANCH  15  16
ENDBRANCH   2  15
TORSDOF 6
ENDMDL
MODEL 5
REMARK VINA RESULT:    -6.694      4.756      7.597
REMARK INTER + INTRA:         -10.053
REMARK INTER:                  -8.948
REMARK INTRA:                  -1.105
REMARK UNBOUND:                -1.010
REMARK  Name = 
REMARK  8 active torsions:
REMARK  status: ('A' for Active; 'I' for Inactive)
REMARK    1  A    between atoms: C_1  and  C_2
REMARK    2  A    between atoms: C_2  and  C_3
REMARK    3  A    between atoms: C_2  and  C_14
REMARK    4  A    between atoms: C_3  and  N_4
REMARK    5  A    between atoms: N_4  and  C_5
REMARK    6  A    between atoms: C_8  and  C_9
REMARK    7  A    between atoms: C_18  and  C_19
REMARK    8  A    between atoms: C_19  and  C_20
REMARK                            x       y       z     vdW  Elec       q    Type
REMARK                         _______ _______ _______ _____ _____    ______ ____
ROOT
ATOM      1  C   UNL     1      49.808   7.604  13.152  0.00  0.00    +0.000 C 
ATOM      2  C   UNL     1      48.729   7.010  14.065  0.00  0.00    +0.000 C 
ENDROOT
BRANCH   2   3
ATOM      3  C   UNL     1      47.364   7.238  13.424  0.00  0.00    +0.000 A 
ATOM      4  C   UNL     1      46.749   8.497  13.425  0.00  0.00    +0.000 A 
ATOM      5  C   UNL     1      45.563   8.700  12.727  0.00  0.00    +0.000 A 
ATOM      6  C   UNL     1      44.978   7.647  12.023  0.00  0.00    +0.000 A 
ATOM      7  C   UNL     1      45.554   6.363  12.013  0.00  0.00    +0.000 A 
ATOM      8  C   UNL     1      46.745   6.181  12.735  0.00  0.00    +0.000 A 
BRANCH   7   9
ATOM      9  C   UNL     1      44.905   5.239  11.186  0.00  0.00    +0.000 C 
ATOM     10  C   UNL     1      45.564   5.164   9.800  0.00  0.00    +0.000 C 
ATOM     11  C   UNL     1      44.989   3.914  11.949  0.00  0.00    +0.000 C 
ATOM     12  C   UNL     1      43.749   3.926  12.830  0.00  0.00    +0.000 C 
ATOM     13  O   UNL     1      42.807   4.833  12.242  0.00  0.00    +0.000 OA
ATOM     14  C   UNL     1      43.379   5.323  11.020  0.00  0.00    +0.000 C 
ENDBRANCH   7   9
ENDBRANCH   2   3
BRANCH   2  15
ATOM     15  C   UNL     1      48.777   7.560  15.504  0.00  0.00    +0.000 C 
BRANCH  15  16
ATOM     16  N   UNL     1      48.206   6.616  16.478  0.00  0.00    +0.000 N 
ATOM     17  H   UNL     1      47.260   6.324  16.231  0.00  0.00    +0.000 HD
BRANCH  16  18
ATOM     18  C   UNL     1      48.993   5.496  16.792  0.00  0.00    +0.000 A 
ATOM     19  C   UNL     1      50.333   5.670  17.152  0.00  0.00    +0.000 A 
ATOM     20  C   UNL     1      51.136   4.568  17.450  0.00  0.00    +0.000 A 
ATOM     21  C   UNL     1      50.576   3.303  17.345  0.00  0.00    +0.000 A 
ATOM     22  N   UNL     1      49.301   3.074  16.935  0.00  0.00    +0.000 NA
ATOM     23  C   UNL     1      48.561   4.172  16.652  0.00  0.00    +0.000 A 
BRANCH  21  24
ATOM     24  C   UNL     1      51.372   2.087  17.702  0.00  0.00    +0.000 C 
ATOM     25  N   UNL     1      52.426   2.320  18.544  0.00  0.00    +0.000 N 
ATOM     26  O   UNL     1      51.114   0.971  17.272  0.00  0.00    +0.000 OA
ATOM     27  H   UNL     1      52.595   3.266  18.870  0.00  0.00    +0.000 HD
ATOM     28  H   UNL     1      53.025   1.560  18.830  0.00  0.00    +0.000 HD
ENDBRANCH  21  24
ENDBRANCH  16  18
ENDBRANCH  15  16
ENDBRANCH   2  15
TORSDOF 6
ENDMDL
MODEL 6
REMARK VINA RESULT:    -6.582      3.280      5.792
REMARK INTER + INTRA:          -9.901
REMARK INTER:                  -8.516
REMARK INTRA:                  -1.385
REMARK UNBOUND:                -1.010
REMARK  Name = 
REMARK  8 active torsions:
REMARK  status: ('A' for Active; 'I' for Inactive)
REMARK    1  A    between atoms: C_1  and  C_2
REMARK    2  A    between atoms: C_2  and  C_3
REMARK    3  A    between atoms: C_2  and  C_14
REMARK    4  A    between atoms: C_3  and  N_4
REMARK    5  A    between atoms: N_4  and  C_5
REMARK    6  A    between atoms: C_8  and  C_9
REMARK    7  A    between atoms: C_18  and  C_19
REMARK    8  A    between atoms: C_19  and  C_20
REMARK                            x       y       z     vdW  Elec       q    Type
REMARK                         _______ _______ _______ _____ _____    ______ ____
ROOT
ATOM      1  C   UNL     1      49.539   7.694  12.475  0.00  0.00    +0.000 C 
ATOM      2  C   UNL     1      48.938   8.136  13.814  0.00  0.00    +0.000 C 
ENDROOT
BRANCH   2   3
ATOM      3  C   UNL     1      49.542   7.285  14.926  0.00  0.00    +0.000 A 
ATOM      4  C   UNL     1      50.896   7.379  15.275  0.00  0.00    +0.000 A 
ATOM      5  C   UNL     1      51.389   6.679  16.371  0.00  0.00    +0.000 A 
ATOM      6  C   UNL     1      50.535   5.878  17.130  0.00  0.00    +0.000 A 
ATOM      7  C   UNL     1      49.173   5.742  16.802  0.00  0.00    +0.000 A 
ATOM      8  C   UNL     1      48.703   6.449  15.682  0.00  0.00    +0.000 A 
BRANCH   7   9
ATOM      9  C   UNL     1      48.252   4.887  17.690  0.00  0.00    +0.000 C 
ATOM     10  C   UNL     1      47.516   5.786  18.696  0.00  0.00    +0.000 C 
ATOM     11  C   UNL     1      47.293   4.073  16.817  0.00  0.00    +0.000 C 
ATOM     12  C   UNL     1      48.082   2.813  16.492  0.00  0.00    +0.000 C 
ATOM     13  O   UNL     1      49.099   2.667  17.494  0.00  0.00    +0.000 OA
ATOM     14  C   UNL     1      48.930   3.730  18.443  0.00  0.00    +0.000 C 
ENDBRANCH   7   9
ENDBRANCH   2   3
BRANCH   2  15
ATOM     15  C   UNL     1      47.398   8.090  13.838  0.00  0.00    +0.000 C 
BRANCH  15  16
ATOM     16  N   UNL     1      46.827   7.941  12.489  0.00  0.00    +0.000 N 
ATOM     17  H   UNL     1      47.514   8.108  11.753  0.00  0.00    +0.000 HD
BRANCH  16  18
ATOM     18  C   UNL     1      46.129   6.748  12.239  0.00  0.00    +0.000 A 
ATOM     19  C   UNL     1      46.292   5.657  13.098  0.00  0.00    +0.000 A 
ATOM     20  C   UNL     1      45.619   4.458  12.856  0.00  0.00    +0.000 A 
ATOM     21  C   UNL     1      44.820   4.372  11.726  0.00  0.00    +0.000 A 
ATOM     22  N   UNL     1      44.680   5.378  10.823  0.00  0.00    +0.000 NA
ATOM     23  C   UNL     1      45.354   6.520  11.096  0.00  0.00    +0.000 A 
BRANCH  21  24
ATOM     24  C   UNL     1      44.035   3.130  11.442  0.00  0.00    +0.000 C 
ATOM     25  N   UNL     1      43.708   2.394  12.549  0.00  0.00    +0.000 N 
ATOM     26  O   UNL     1      43.714   2.787  10.312  0.00  0.00    +0.000 OA
ATOM     27  H   UNL     1      44.000   2.724  13.463  0.00  0.00    +0.000 HD
ATOM     28  H   UNL     1      43.188   1.535  12.452  0.00  0.00    +0.000 HD
ENDBRANCH  21  24
ENDBRANCH  16  18
ENDBRANCH  15  16
ENDBRANCH   2  15
TORSDOF 6
ENDMDL
MODEL 7
REMARK VINA RESULT:    -6.567      5.328      7.985
REMARK INTER + INTRA:          -9.880
REMARK INTER:                  -8.955
REMARK INTRA:                  -0.925
REMARK UNBOUND:                -1.010
REMARK  Name = 
REMARK  8 active torsions:
REMARK  status: ('A' for Active; 'I' for Inactive)
REMARK    1  A    between atoms: C_1  and  C_2
REMARK    2  A    between atoms: C_2  and  C_3
REMARK    3  A    between atoms: C_2  and  C_14
REMARK    4  A    between atoms: C_3  and  N_4
REMARK    5  A    between atoms: N_4  and  C_5
REMARK    6  A    between atoms: C_8  and  C_9
REMARK    7  A    between atoms: C_18  and  C_19
REMARK    8  A    between atoms: C_19  and  C_20
REMARK                            x       y       z     vdW  Elec       q    Type
REMARK                         _______ _______ _______ _____ _____    ______ ____
ROOT
ATOM      1  C   UNL     1      48.652   6.876  15.763  0.00  0.00    +0.000 C 
ATOM      2  C   UNL     1      48.277   5.563  15.065  0.00  0.00    +0.000 C 
ENDROOT
BRANCH   2   3
ATOM      3  C   UNL     1      47.478   5.889  13.807  0.00  0.00    +0.000 A 
ATOM      4  C   UNL     1      47.852   6.927  12.943  0.00  0.00    +0.000 A 
ATOM      5  C   UNL     1      47.174   7.121  11.744  0.00  0.00    +0.000 A 
ATOM      6  C   UNL     1      46.116   6.281  11.396  0.00  0.00    +0.000 A 
ATOM      7  C   UNL     1      45.698   5.238  12.245  0.00  0.00    +0.000 A 
ATOM      8  C   UNL     1      46.389   5.072  13.456  0.00  0.00    +0.000 A 
BRANCH   7   9
ATOM      9  C   UNL     1      44.558   4.304  11.805  0.00  0.00    +0.000 C 
ATOM     10  C   UNL     1      45.105   2.887  11.573  0.00  0.00    +0.000 C 
ATOM     11  C   UNL     1      43.428   4.336  12.839  0.00  0.00    +0.000 C 
ATOM     12  C   UNL     1      42.573   5.516  12.402  0.00  0.00    +0.000 C 
ATOM     13  O   UNL     1      42.842   5.757  11.014  0.00  0.00    +0.000 OA
ATOM     14  C   UNL     1      43.761   4.750  10.567  0.00  0.00    +0.000 C 
ENDBRANCH   7   9
ENDBRANCH   2   3
BRANCH   2  15
ATOM     15  C   UNL     1      47.520   4.581  15.979  0.00  0.00    +0.000 C 
BRANCH  15  16
ATOM     16  N   UNL     1      48.143   4.466  17.307  0.00  0.00    +0.000 N 
ATOM     17  H   UNL     1      47.471   4.222  18.035  0.00  0.00    +0.000 HD
BRANCH  16  18
ATOM     18  C   UNL     1      49.274   3.637  17.393  0.00  0.00    +0.000 A 
ATOM     19  C   UNL     1      50.467   4.146  17.913  0.00  0.00    +0.000 A 
ATOM     20  C   UNL     1      51.606   3.342  17.991  0.00  0.00    +0.000 A 
ATOM     21  C   UNL     1      51.526   2.045  17.506  0.00  0.00    +0.000 A 
ATOM     22  N   UNL     1      50.411   1.522  16.930  0.00  0.00    +0.000 NA
ATOM     23  C   UNL     1      49.333   2.339  16.872  0.00  0.00    +0.000 A 
BRANCH  21  24
ATOM     24  C   UNL     1      52.698   1.120  17.609  0.00  0.00    +0.000 C 
ATOM     25  N   UNL     1      52.414  -0.109  18.141  0.00  0.00    +0.000 N 
ATOM     26  O   UNL     1      53.827   1.433  17.256  0.00  0.00    +0.000 OA
ATOM     27  H   UNL     1      51.460  -0.316  18.417  0.00  0.00    +0.000 HD
ATOM     28  H   UNL     1      53.146  -0.793  18.258  0.00  0.00    +0.000 HD
ENDBRANCH  21  24
ENDBRANCH  16  18
ENDBRANCH  15  16
ENDBRANCH   2  15
TORSDOF 6
ENDMDL
MODEL 8
REMARK VINA RESULT:    -6.184      1.386      2.302
REMARK INTER + INTRA:          -9.362
REMARK INTER:                  -8.466
REMARK INTRA:                  -0.896
REMARK UNBOUND:                -1.010
REMARK  Name = 
REMARK  8 active torsions:
REMARK  status: ('A' for Active; 'I' for Inactive)
REMARK    1  A    between atoms: C_1  and  C_2
REMARK    2  A    between atoms: C_2  and  C_3
REMARK    3  A    between atoms: C_2  and  C_14
REMARK    4  A    between atoms: C_3  and  N_4
REMARK    5  A    between atoms: N_4  and  C_5
REMARK    6  A    between atoms: C_8  and  C_9
REMARK    7  A    between atoms: C_18  and  C_19
REMARK    8  A    between atoms: C_19  and  C_20
REMARK                            x       y       z     vdW  Elec       q    Type
REMARK                         _______ _______ _______ _____ _____    ______ ____
ROOT
ATOM      1  C   UNL     1      44.161   7.255  11.623  0.00  0.00    +0.000 C 
ATOM      2  C   UNL     1      44.865   6.242  12.533  0.00  0.00    +0.000 C 
ENDROOT
BRANCH   2   3
ATOM      3  C   UNL     1      46.356   6.558  12.556  0.00  0.00    +0.000 A 
ATOM      4  C   UNL     1      47.089   6.747  11.377  0.00  0.00    +0.000 A 
ATOM      5  C   UNL     1      48.419   7.153  11.434  0.00  0.00    +0.000 A 
ATOM      6  C   UNL     1      49.029   7.372  12.669  0.00  0.00    +0.000 A 
ATOM      7  C   UNL     1      48.334   7.175  13.877  0.00  0.00    +0.000 A 
ATOM      8  C   UNL     1      46.997   6.753  13.792  0.00  0.00    +0.000 A 
BRANCH   7   9
ATOM      9  C   UNL     1      49.027   7.473  15.217  0.00  0.00    +0.000 C 
ATOM     10  C   UNL     1      49.002   6.220  16.107  0.00  0.00    +0.000 C 
ATOM     11  C   UNL     1      50.447   7.989  14.968  0.00  0.00    +0.000 C 
ATOM     12  C   UNL     1      50.259   9.487  14.781  0.00  0.00    +0.000 C 
ATOM     13  O   UNL     1      49.017   9.850  15.400  0.00  0.00    +0.000 OA
ATOM     14  C   UNL     1      48.473   8.670  16.009  0.00  0.00    +0.000 C 
ENDBRANCH   7   9
ENDBRANCH   2   3
BRANCH   2  15
ATOM     15  C   UNL     1      44.602   4.777  12.133  0.00  0.00    +0.000 C 
BRANCH  15  16
ATOM     16  N   UNL     1      44.023   4.666  10.784  0.00  0.00    +0.000 N 
ATOM     17  H   UNL     1      43.758   5.571  10.397  0.00  0.00    +0.000 HD
BRANCH  16  18
ATOM     18  C   UNL     1      44.772   3.937   9.845  0.00  0.00    +0.000 A 
ATOM     19  C   UNL     1      45.422   4.609   8.807  0.00  0.00    +0.000 A 
ATOM     20  C   UNL     1      46.157   3.901   7.854  0.00  0.00    +0.000 A 
ATOM     21  C   UNL     1      46.190   2.517   7.950  0.00  0.00    +0.000 A 
ATOM     22  N   UNL     1      45.521   1.810   8.899  0.00  0.00    +0.000 NA
ATOM     23  C   UNL     1      44.819   2.539   9.798  0.00  0.00    +0.000 A 
BRANCH  21  24
ATOM     24  C   UNL     1      47.002   1.708   6.989  0.00  0.00    +0.000 C 
ATOM     25  N   UNL     1      46.996   0.359   7.227  0.00  0.00    +0.000 N 
ATOM     26  O   UNL     1      47.632   2.204   6.065  0.00  0.00    +0.000 OA
ATOM     27  H   UNL     1      46.457   0.001   8.008  0.00  0.00    +0.000 HD
ATOM     28  H   UNL     1      47.525  -0.263   6.635  0.00  0.00    +0.000 HD
ENDBRANCH  21  24
ENDBRANCH  16  18
ENDBRANCH  15  16
ENDBRANCH   2  15
TORSDOF 6
ENDMDL
MODEL 9
REMARK VINA RESULT:    -5.798      4.011      8.363
REMARK INTER + INTRA:          -8.842
REMARK INTER:                  -7.644
REMARK INTRA:                  -1.199
REMARK UNBOUND:                -1.010
REMARK  Name = 
REMARK  8 active torsions:
REMARK  status: ('A' for Active; 'I' for Inactive)
REMARK    1  A    between atoms: C_1  and  C_2
REMARK    2  A    between atoms: C_2  and  C_3
REMARK    3  A    between atoms: C_2  and  C_14
REMARK    4  A    between atoms: C_3  and  N_4
REMARK    5  A    between atoms: N_4  and  C_5
REMARK    6  A    between atoms: C_8  and  C_9
REMARK    7  A    between atoms: C_18  and  C_19
REMARK    8  A    between atoms: C_19  and  C_20
REMARK                            x       y       z     vdW  Elec       q    Type
REMARK                         _______ _______ _______ _____ _____    ______ ____
ROOT
ATOM      1  C   UNL     1      46.942   8.902  12.526  0.00  0.00    +0.000 C 
ATOM      2  C   UNL     1      47.726   7.710  11.964  0.00  0.00    +0.000 C 
ENDROOT
BRANCH   2   3
ATOM      3  C   UNL     1      47.004   6.424  12.348  0.00  0.00    +0.000 A 
ATOM      4  C   UNL     1      47.415   5.644  13.438  0.00  0.00    +0.000 A 
ATOM      5  C   UNL     1      46.665   4.542  13.837  0.00  0.00    +0.000 A 
ATOM      6  C   UNL     1      45.497   4.208  13.150  0.00  0.00    +0.000 A 
ATOM      7  C   UNL     1      45.060   4.954  12.040  0.00  0.00    +0.000 A 
ATOM      8  C   UNL     1      45.843   6.053  11.649  0.00  0.00    +0.000 A 
BRANCH   7   9
ATOM      9  C   UNL     1      43.742   4.583  11.338  0.00  0.00    +0.000 C 
ATOM     10  C   UNL     1      42.606   5.479  11.853  0.00  0.00    +0.000 C 
ATOM     11  C   UNL     1      43.917   4.669   9.819  0.00  0.00    +0.000 C 
ATOM     12  C   UNL     1      44.457   3.297   9.440  0.00  0.00    +0.000 C 
ATOM     13  O   UNL     1      44.098   2.384  10.486  0.00  0.00    +0.000 OA
ATOM     14  C   UNL     1      43.315   3.109  11.446  0.00  0.00    +0.000 C 
ENDBRANCH   7   9
ENDBRANCH   2   3
BRANCH   2  15
ATOM     15  C   UNL     1      49.202   7.686  12.407  0.00  0.00    +0.000 C 
BRANCH  15  16
ATOM     16  N   UNL     1      49.464   8.626  13.510  0.00  0.00    +0.000 N 
ATOM     17  H   UNL     1      48.779   9.380  13.552  0.00  0.00    +0.000 HD
BRANCH  16  18
ATOM     18  C   UNL     1      49.639   8.058  14.782  0.00  0.00    +0.000 A 
ATOM     19  C   UNL     1      48.670   8.259  15.770  0.00  0.00    +0.000 A 
ATOM     20  C   UNL     1      48.834   7.717  17.045  0.00  0.00    +0.000 A 
ATOM     21  C   UNL     1      49.997   7.008  17.310  0.00  0.00    +0.000 A 
ATOM     22  N   UNL     1      51.000   6.840  16.409  0.00  0.00    +0.000 NA
ATOM     23  C   UNL     1      50.799   7.387  15.187  0.00  0.00    +0.000 A 
BRANCH  21  24
ATOM     24  C   UNL     1      50.206   6.360  18.643  0.00  0.00    +0.000 C 
ATOM     25  N   UNL     1      50.823   5.138  18.595  0.00  0.00    +0.000 N 
ATOM     26  O   UNL     1      49.848   6.870  19.696  0.00  0.00    +0.000 OA
ATOM     27  H   UNL     1      51.099   4.762  17.695  0.00  0.00    +0.000 HD
ATOM     28  H   UNL     1      50.996   4.624  19.446  0.00  0.00    +0.000 HD
ENDBRANCH  21  24
ENDBRANCH  16  18
ENDBRANCH  15  16
ENDBRANCH   2  15
TORSDOF 6
ENDMDL
