MODEL 1
REMARK VINA RESULT:    -6.846      0.000      0.000
REMARK INTER + INTRA:          -8.888
REMARK INTER:                  -8.446
REMARK INTRA:                  -0.441
REMARK UNBOUND:                -0.441
REMARK  Name = 
REMARK  4 active torsions:
REMARK  status: ('A' for Active; 'I' for Inactive)
REMARK    1  A    between atoms: C_2  and  O_3
REMARK    2  A    between atoms: C_2  and  C_11
REMARK    3  A    between atoms: O_3  and  C_4
REMARK    4  A    between atoms: C_4  and  C_5
REMARK                            x       y       z     vdW  Elec       q    Type
REMARK                         _______ _______ _______ _____ _____    ______ ____
ROOT
ATOM      1  O   UNL     1      43.350   3.480  13.588  0.00  0.00    +0.000 OA
ATOM      2  C   UNL     1      44.012   3.713  12.600  0.00  0.00    +0.000 C 
ENDROOT
BRANCH   2   3
ATOM      3  C   UNL     1      44.605   5.047  12.367  0.00  0.00    +0.000 A 
ATOM      4  C   UNL     1      43.988   6.031  11.602  0.00  0.00    +0.000 A 
ATOM      5  S   UNL     1      44.870   7.502  11.535  0.00  0.00    +0.000 S 
ATOM      6  C   UNL     1      46.026   6.913  12.634  0.00  0.00    +0.000 A 
ATOM      7  N   UNL     1      47.041   7.700  13.083  0.00  0.00    +0.000 NA
ATOM      8  C   UNL     1      47.797   7.133  13.965  0.00  0.00    +0.000 A 
ATOM      9  N   UNL     1      47.645   5.849  14.421  0.00  0.00    +0.000 N 
ATOM     10  C   UNL     1      46.705   4.984  13.913  0.00  0.00    +0.000 A 
ATOM     11  O   UNL     1      46.702   3.801  14.231  0.00  0.00    +0.000 OA
ATOM     12  C   UNL     1      45.786   5.596  12.981  0.00  0.00    +0.000 A 
ATOM     13  H   UNL     1      48.301   5.450  15.076  0.00  0.00    +0.000 HD
ENDBRANCH   2   3
BRANCH   2  14
ATOM     14  O   UNL     1      44.289   2.781  11.628  0.00  0.00    +0.000 OA
BRANCH  14  15
ATOM     15  C   UNL     1      45.144   3.155  10.513  0.00  0.00    +0.000 C 
BRANCH  15  16
ATOM     16  C   UNL     1      44.477   2.903   9.149  0.00  0.00    +0.000 C 
ATOM     17  C   UNL     1      44.845   1.504   8.620  0.00  0.00    +0.000 C 
ATOM     18  C   UNL     1      46.309   1.426   8.170  0.00  0.00    +0.000 C 
ATOM     19  N   UNL     1      46.632   2.448   7.175  0.00  0.00    +0.000 NA
ATOM     20  C   UNL     1      46.337   3.801   7.659  0.00  0.00    +0.000 C 
ATOM     21  C   UNL     1      44.878   3.948   8.095  0.00  0.00    +0.000 C 
ATOM     22  H   UNL     1      46.083   2.276   6.334  0.00  0.00    +0.000 HD
ENDBRANCH  15  16
ENDBRANCH  14  15
ENDBRANCH   2  14
TORSDOF 4
ENDMDL
MODEL 2
REMARK VINA RESULT:    -6.756      1.582      2.495
REMARK INTER + INTRA:          -8.777
REMARK INTER:                  -8.200
REMARK INTRA:                  -0.577
REMARK UNBOUND:                -0.441
REMARK  Name = 
REMARK  4 active torsions:
REMARK  status: ('A' for Active; 'I' for Inactive)
REMARK    1  A    between atoms: C_2  and  O_3
REMARK    2  A    between atoms: C_2  and  C_11
REMARK    3  A    between atoms: O_3  and  C_4
REMARK    4  A    between atoms: C_4  and  C_5
REMARK                            x       y       z     vdW  Elec       q    Type
REMARK                         _______ _______ _______ _____ _____    ______ ____
ROOT
ATOM      1  O   UNL     1      43.412   3.360  13.469  0.00  0.00    +0.000 OA
ATOM      2  C   UNL     1      44.382   3.613  12.789  0.00  0.00    +0.000 C 
ENDROOT
BRANCH   2   3
ATOM      3  C   UNL     1      45.099   4.900  12.920  0.00  0.00    +0.000 A 
ATOM      4  C   UNL     1      46.353   5.015  13.511  0.00  0.00    +0.000 A 
ATOM      5  S   UNL     1      46.977   6.614  13.487  0.00  0.00    +0.000 S 
ATOM      6  C   UNL     1      45.656   7.166  12.569  0.00  0.00    +0.000 A 
ATOM      7  N   UNL     1      45.591   8.450  12.124  0.00  0.00    +0.000 NA
ATOM      8  C   UNL     1      44.562   8.700  11.383  0.00  0.00    +0.000 A 
ATOM      9  N   UNL     1      43.585   7.793  11.065  0.00  0.00    +0.000 N 
ATOM     10  C   UNL     1      43.552   6.520  11.583  0.00  0.00    +0.000 A 
ATOM     11  O   UNL     1      42.584   5.792  11.403  0.00  0.00    +0.000 OA
ATOM     12  C   UNL     1      44.723   6.169  12.354  0.00  0.00    +0.000 A 
ATOM     13  H   UNL     1      42.780   8.066  10.520  0.00  0.00    +0.000 HD
ENDBRANCH   2   3
BRANCH   2  14
ATOM     14  O   UNL     1      44.914   2.747  11.863  0.00  0.00    +0.000 OA
BRANCH  14  15
ATOM     15  C   UNL     1      45.450   3.282  10.622  0.00  0.00    +0.000 C 
BRANCH  15  16
ATOM     16  C   UNL     1      44.562   2.955   9.408  0.00  0.00    +0.000 C 
ATOM     17  C   UNL     1      44.898   1.557   8.857  0.00  0.00    +0.000 C 
ATOM     18  C   UNL     1      46.259   1.528   8.152  0.00  0.00    +0.000 C 
ATOM     19  N   UNL     1      46.348   2.529   7.089  0.00  0.00    +0.000 NA
ATOM     20  C   UNL     1      46.078   3.883   7.583  0.00  0.00    +0.000 C 
ATOM     21  C   UNL     1      44.715   3.980   8.272  0.00  0.00    +0.000 C 
ATOM     22  H   UNL     1      45.665   2.304   6.365  0.00  0.00    +0.000 HD
ENDBRANCH  15  16
ENDBRANCH  14  15
ENDBRANCH   2  14
TORSDOF 4
ENDMDL
MODEL 3
REMARK VINA RESULT:    -6.660      3.051      4.381
REMARK INTER + INTRA:          -8.659
REMARK INTER:                  -8.188
REMARK INTRA:                  -0.471
REMARK UNBOUND:                -0.441
REMARK  Name = 
REMARK  4 active torsions:
REMARK  status: ('A' for Active; 'I' for Inactive)
REMARK    1  A    between atoms: C_2  and  O_3
REMARK    2  A    between atoms: C_2  and  C_11
REMARK    3  A    between atoms: O_3  and  C_4
REMARK    4  A    between atoms: C_4  and  C_5
REMARK                            x       y       z     vdW  Elec       q    Type
REMARK                         _______ _______ _______ _____ _____    ______ ____
ROOT
ATOM      1  O   UNL     1      47.000   3.258  13.917  0.00  0.00    +0.000 OA
ATOM      2  C   UNL     1      46.781   4.425  14.158  0.00  0.00    +0.000 C 
ENDROOT
BRANCH   2   3
ATOM      3  C   UNL     1      47.681   5.214  15.026  0.00  0.00    +0.000 A 
ATOM      4  C   UNL     1      48.407   6.310  14.573  0.00  0.00    +0.000 A 
ATOM      5  S   UNL     1      49.334   7.073  15.800  0.00  0.00    +0.000 S 
ATOM      6  C   UNL     1      48.685   6.049  16.992  0.00  0.00    +0.000 A 
ATOM      7  N   UNL     1      48.997   6.208  18.307  0.00  0.00    +0.000 NA
ATOM      8  C   UNL     1      48.373   5.398  19.098  0.00  0.00    +0.000 A 
ATOM      9  N   UNL     1      47.485   4.435  18.695  0.00  0.00    +0.000 N 
ATOM     10  C   UNL     1      47.227   4.166  17.372  0.00  0.00    +0.000 A 
ATOM     11  O   UNL     1      46.552   3.197  17.047  0.00  0.00    +0.000 OA
ATOM     12  C   UNL     1      47.841   5.096  16.452  0.00  0.00    +0.000 A 
ATOM     13  H   UNL     1      47.068   3.802  19.361  0.00  0.00    +0.000 HD
ENDBRANCH   2   3
BRANCH   2  14
ATOM     14  O   UNL     1      45.711   5.122  13.649  0.00  0.00    +0.000 OA
BRANCH  14  15
ATOM     15  C   UNL     1      45.565   5.238  12.207  0.00  0.00    +0.000 C 
BRANCH  15  16
ATOM     16  C   UNL     1      44.093   5.204  11.759  0.00  0.00    +0.000 C 
ATOM     17  C   UNL     1      43.270   4.291  12.686  0.00  0.00    +0.000 C 
ATOM     18  C   UNL     1      43.601   2.809  12.475  0.00  0.00    +0.000 C 
ATOM     19  N   UNL     1      43.434   2.402  11.079  0.00  0.00    +0.000 NA
ATOM     20  C   UNL     1      44.238   3.222  10.167  0.00  0.00    +0.000 C 
ATOM     21  C   UNL     1      43.928   4.713  10.312  0.00  0.00    +0.000 C 
ATOM     22  H   UNL     1      42.451   2.498  10.823  0.00  0.00    +0.000 HD
ENDBRANCH  15  16
ENDBRANCH  14  15
ENDBRANCH   2  14
TORSDOF 4
ENDMDL
MODEL 4
REMARK VINA RESULT:    -6.570      3.410      6.822
REMARK INTER + INTRA:          -8.547
REMARK INTER:                  -8.068
REMARK INTRA:                  -0.479
REMARK UNBOUND:                -0.441
REMARK  Name = 
REMARK  4 active torsions:
REMARK  status: ('A' for Active; 'I' for Inactive)
REMARK    1  A    between atoms: C_2  and  O_3
REMARK    2  A    between atoms: C_2  and  C_11
REMARK    3  A    between atoms: O_3  and  C_4
REMARK    4  A    between atoms: C_4  and  C_5
REMARK                            x       y       z     vdW  Elec       q    Type
REMARK                         _______ _______ _______ _____ _____    ______ ____
ROOT
ATOM      1  O   UNL     1      47.223   3.057  13.777  0.00  0.00    +0.000 OA
ATOM      2  C   UNL     1      46.807   4.036  14.356  0.00  0.00    +0.000 C 
ENDROOT
BRANCH   2   3
ATOM      3  C   UNL     1      46.337   5.227  13.616  0.00  0.00    +0.000 A 
ATOM      4  C   UNL     1      47.133   6.344  13.386  0.00  0.00    +0.000 A 
ATOM      5  S   UNL     1      46.355   7.562  12.460  0.00  0.00    +0.000 S 
ATOM      6  C   UNL     1      44.989   6.576  12.225  0.00  0.00    +0.000 A 
ATOM      7  N   UNL     1      43.952   6.980  11.443  0.00  0.00    +0.000 NA
ATOM      8  C   UNL     1      43.019   6.095  11.306  0.00  0.00    +0.000 A 
ATOM      9  N   UNL     1      43.019   4.857  11.896  0.00  0.00    +0.000 N 
ATOM     10  C   UNL     1      43.990   4.453  12.781  0.00  0.00    +0.000 A 
ATOM     11  O   UNL     1      43.873   3.407  13.407  0.00  0.00    +0.000 OA
ATOM     12  C   UNL     1      45.094   5.377  12.905  0.00  0.00    +0.000 A 
ATOM     13  H   UNL     1      42.236   4.231  11.787  0.00  0.00    +0.000 HD
ENDBRANCH   2   3
BRANCH   2  14
ATOM     14  O   UNL     1      46.716   4.134  15.725  0.00  0.00    +0.000 OA
BRANCH  14  15
ATOM     15  C   UNL     1      47.925   4.366  16.498  0.00  0.00    +0.000 C 
BRANCH  15  16
ATOM     16  C   UNL     1      48.193   3.248  17.521  0.00  0.00    +0.000 C 
ATOM     17  C   UNL     1      48.360   3.839  18.933  0.00  0.00    +0.000 C 
ATOM     18  C   UNL     1      49.681   4.601  19.085  0.00  0.00    +0.000 C 
ATOM     19  N   UNL     1      50.836   3.773  18.740  0.00  0.00    +0.000 NA
ATOM     20  C   UNL     1      50.736   3.226  17.383  0.00  0.00    +0.000 C 
ATOM     21  C   UNL     1      49.448   2.427  17.181  0.00  0.00    +0.000 C 
ATOM     22  H   UNL     1      50.896   2.997  19.400  0.00  0.00    +0.000 HD
ENDBRANCH  15  16
ENDBRANCH  14  15
ENDBRANCH   2  14
TORSDOF 4
ENDMDL
MODEL 5
REMARK VINA RESULT:    -6.513      4.524      6.438
REMARK INTER + INTRA:          -8.477
REMARK INTER:                  -8.015
REMARK INTRA:                  -0.462
REMARK UNBOUND:                -0.441
REMARK  Name = 
REMARK  4 active torsions:
REMARK  status: ('A' for Active; 'I' for Inactive)
REMARK    1  A    between atoms: C_2  and  O_3
REMARK    2  A    between atoms: C_2  and  C_11
REMARK    3  A    between atoms: O_3  and  C_4
REMARK    4  A    between atoms: C_4  and  C_5
REMARK                            x       y       z     vdW  Elec       q    Type
REMARK                         _______ _______ _______ _____ _____    ______ ____
ROOT
ATOM      1  O   UNL     1      46.554   2.970  17.352  0.00  0.00    +0.000 OA
ATOM      2  C   UNL     1      47.431   3.507  16.711  0.00  0.00    +0.000 C 
ENDROOT
BRANCH   2   3
ATOM      3  C   UNL     1      48.620   4.089  17.368  0.00  0.00    +0.000 A 
ATOM      4  C   UNL     1      48.583   5.272  18.098  0.00  0.00    +0.000 A 
ATOM      5  S   UNL     1      50.093   5.695  18.796  0.00  0.00    +0.000 S 
ATOM      6  C   UNL     1      50.800   4.244  18.259  0.00  0.00    +0.000 A 
ATOM      7  N   UNL     1      52.082   3.920  18.581  0.00  0.00    +0.000 NA
ATOM      8  C   UNL     1      52.454   2.757  18.158  0.00  0.00    +0.000 A 
ATOM      9  N   UNL     1      51.672   1.901  17.426  0.00  0.00    +0.000 N 
ATOM     10  C   UNL     1      50.414   2.234  16.983  0.00  0.00    +0.000 A 
ATOM     11  O   UNL     1      49.810   1.510  16.202  0.00  0.00    +0.000 OA
ATOM     12  C   UNL     1      49.924   3.493  17.497  0.00  0.00    +0.000 A 
ATOM     13  H   UNL     1      52.039   1.025  17.084  0.00  0.00    +0.000 HD
ENDBRANCH   2   3
BRANCH   2  14
ATOM     14  O   UNL     1      47.420   3.612  15.339  0.00  0.00    +0.000 OA
BRANCH  14  15
ATOM     15  C   UNL     1      46.787   4.767  14.725  0.00  0.00    +0.000 C 
BRANCH  15  16
ATOM     16  C   UNL     1      46.641   4.617  13.199  0.00  0.00    +0.000 C 
ATOM     17  C   UNL     1      46.635   5.999  12.521  0.00  0.00    +0.000 C 
ATOM     18  C   UNL     1      45.337   6.768  12.794  0.00  0.00    +0.000 C 
ATOM     19  N   UNL     1      44.153   6.003  12.403  0.00  0.00    +0.000 NA
ATOM     20  C   UNL     1      44.099   4.695  13.063  0.00  0.00    +0.000 C 
ATOM     21  C   UNL     1      45.359   3.868  12.801  0.00  0.00    +0.000 C 
ATOM     22  H   UNL     1      44.172   5.858  11.393  0.00  0.00    +0.000 HD
ENDBRANCH  15  16
ENDBRANCH  14  15
ENDBRANCH   2  14
TORSDOF 4
ENDMDL
MODEL 6
REMARK VINA RESULT:    -6.282      3.241      6.831
REMARK INTER + INTRA:          -8.192
REMARK INTER:                  -7.590
REMARK INTRA:                  -0.602
REMARK UNBOUND:                -0.441
REMARK  Name = 
REMARK  4 active torsions:
REMARK  status: ('A' for Active; 'I' for Inactive)
REMARK    1  A    between atoms: C_2  and  O_3
REMARK    2  A    between atoms: C_2  and  C_11
REMARK    3  A    between atoms: O_3  and  C_4
REMARK    4  A    between atoms: C_4  and  C_5
REMARK                            x       y       z     vdW  Elec       q    Type
REMARK                         _______ _______ _______ _____ _____    ______ ____
ROOT
ATOM      1  O   UNL     1      49.021   6.229  13.310  0.00  0.00    +0.000 OA
ATOM      2  C   UNL     1      47.978   6.336  13.916  0.00  0.00    +0.000 C 
ENDROOT
BRANCH   2   3
ATOM      3  C   UNL     1      46.674   6.290  13.220  0.00  0.00    +0.000 A 
ATOM      4  C   UNL     1      46.063   7.414  12.675  0.00  0.00    +0.000 A 
ATOM      5  S   UNL     1      44.580   7.071  11.882  0.00  0.00    +0.000 S 
ATOM      6  C   UNL     1      44.782   5.400  12.126  0.00  0.00    +0.000 A 
ATOM      7  N   UNL     1      43.897   4.499  11.620  0.00  0.00    +0.000 NA
ATOM      8  C   UNL     1      44.222   3.266  11.829  0.00  0.00    +0.000 A 
ATOM      9  N   UNL     1      45.337   2.853  12.514  0.00  0.00    +0.000 N 
ATOM     10  C   UNL     1      46.196   3.727  13.136  0.00  0.00    +0.000 A 
ATOM     11  O   UNL     1      47.088   3.318  13.868  0.00  0.00    +0.000 OA
ATOM     12  C   UNL     1      45.917   5.119  12.865  0.00  0.00    +0.000 A 
ATOM     13  H   UNL     1      45.508   1.873  12.684  0.00  0.00    +0.000 HD
ENDBRANCH   2   3
BRANCH   2  14
ATOM     14  O   UNL     1      47.900   6.490  15.281  0.00  0.00    +0.000 OA
BRANCH  14  15
ATOM     15  C   UNL     1      48.473   5.467  16.140  0.00  0.00    +0.000 C 
BRANCH  15  16
ATOM     16  C   UNL     1      47.415   4.778  17.022  0.00  0.00    +0.000 C 
ATOM     17  C   UNL     1      47.436   5.364  18.445  0.00  0.00    +0.000 C 
ATOM     18  C   UNL     1      48.687   4.939  19.224  0.00  0.00    +0.000 C 
ATOM     19  N   UNL     1      48.836   3.484  19.270  0.00  0.00    +0.000 NA
ATOM     20  C   UNL     1      48.865   2.891  17.929  0.00  0.00    +0.000 C 
ATOM     21  C   UNL     1      47.624   3.258  17.113  0.00  0.00    +0.000 C 
ATOM     22  H   UNL     1      48.051   3.088  19.785  0.00  0.00    +0.000 HD
ENDBRANCH  15  16
ENDBRANCH  14  15
ENDBRANCH   2  14
TORSDOF 4
ENDMDL
MODEL 7
REMARK VINA RESULT:    -6.218      3.459      4.982
REMARK INTER + INTRA:          -8.113
REMARK INTER:                  -7.388
REMARK INTRA:                  -0.725
REMARK UNBOUND:                -0.441
REMARK  Name = 
REMARK  4 active torsions:
REMARK  status: ('A' for Active; 'I' for Inactive)
REMARK    1  A    between atoms: C_2  and  O_3
REMARK    2  A    between atoms: C_2  and  C_11
REMARK    3  A    between atoms: O_3  and  C_4
REMARK    4  A    between atoms: C_4  and  C_5
REMARK                            x       y       z     vdW  Elec       q    Type
REMARK                         _______ _______ _______ _____ _____    ______ ____
ROOT
ATOM      1  O   UNL     1      48.742   6.165  12.780  0.00  0.00    +0.000 OA
ATOM      2  C   UNL     1      47.881   6.221  13.632  0.00  0.00    +0.000 C 
ENDROOT
BRANCH   2   3
ATOM      3  C   UNL     1      48.218   6.181  15.071  0.00  0.00    +0.000 A 
ATOM      4  C   UNL     1      48.598   7.306  15.794  0.00  0.00    +0.000 A 
ATOM      5  S   UNL     1      48.884   6.988  17.457  0.00  0.00    +0.000 S 
ATOM      6  C   UNL     1      48.377   5.374  17.283  0.00  0.00    +0.000 A 
ATOM      7  N   UNL     1      48.298   4.538  18.353  0.00  0.00    +0.000 NA
ATOM      8  C   UNL     1      47.832   3.365  18.074  0.00  0.00    +0.000 A 
ATOM      9  N   UNL     1      47.459   2.947  16.822  0.00  0.00    +0.000 N 
ATOM     10  C   UNL     1      47.627   3.719  15.697  0.00  0.00    +0.000 A 
ATOM     11  O   UNL     1      47.431   3.254  14.581  0.00  0.00    +0.000 OA
ATOM     12  C   UNL     1      48.072   5.066  15.970  0.00  0.00    +0.000 A 
ATOM     13  H   UNL     1      47.147   2.001  16.663  0.00  0.00    +0.000 HD
ENDBRANCH   2   3
BRANCH   2  14
ATOM     14  O   UNL     1      46.540   6.342  13.355  0.00  0.00    +0.000 OA
BRANCH  14  15
ATOM     15  C   UNL     1      46.041   5.892  12.066  0.00  0.00    +0.000 C 
BRANCH  15  16
ATOM     16  C   UNL     1      45.430   4.480  12.131  0.00  0.00    +0.000 C 
ATOM     17  C   UNL     1      44.798   4.105  10.778  0.00  0.00    +0.000 C 
ATOM     18  C   UNL     1      43.510   4.892  10.507  0.00  0.00    +0.000 C 
ATOM     19  N   UNL     1      42.535   4.737  11.587  0.00  0.00    +0.000 NA
ATOM     20  C   UNL     1      43.087   5.127  12.888  0.00  0.00    +0.000 C 
ATOM     21  C   UNL     1      44.360   4.350  13.227  0.00  0.00    +0.000 C 
ATOM     22  H   UNL     1      42.248   3.760  11.634  0.00  0.00    +0.000 HD
ENDBRANCH  15  16
ENDBRANCH  14  15
ENDBRANCH   2  14
TORSDOF 4
ENDMDL
MODEL 8
REMARK VINA RESULT:    -5.947      3.422      6.905
REMARK INTER + INTRA:          -7.778
REMARK INTER:                  -7.419
REMARK INTRA:                  -0.359
REMARK UNBOUND:                -0.441
REMARK  Name = 
REMARK  4 active torsions:
REMARK  status: ('A' for Active; 'I' for Inactive)
REMARK    1  A    between atoms: C_2  and  O_3
REMARK    2  A    between atoms: C_2  and  C_11
REMARK    3  A    between atoms: O_3  and  C_4
REMARK    4  A    between atoms: C_4  and  C_5
REMARK                            x       y       z     vdW  Elec       q    Type
REMARK                         _______ _______ _______ _____ _____    ______ ____
ROOT
ATOM      1  O   UNL     1      48.013   5.142  13.348  0.00  0.00    +0.000 OA
ATOM      2  C   UNL     1      46.961   4.669  13.718  0.00  0.00    +0.000 C 
ENDROOT
BRANCH   2   3
ATOM      3  C   UNL     1      45.840   4.453  12.778  0.00  0.00    +0.000 A 
ATOM      4  C   UNL     1      45.380   3.190  12.420  0.00  0.00    +0.000 A 
ATOM      5  S   UNL     1      44.037   3.228  11.351  0.00  0.00    +0.000 S 
ATOM      6  C   UNL     1      43.949   4.923  11.446  0.00  0.00    +0.000 A 
ATOM      7  N   UNL     1      42.959   5.616  10.821  0.00  0.00    +0.000 NA
ATOM      8  C   UNL     1      42.986   6.889  11.043  0.00  0.00    +0.000 A 
ATOM      9  N   UNL     1      43.920   7.533  11.812  0.00  0.00    +0.000 N 
ATOM     10  C   UNL     1      44.999   6.888  12.369  0.00  0.00    +0.000 A 
ATOM     11  O   UNL     1      45.896   7.520  12.914  0.00  0.00    +0.000 OA
ATOM     12  C   UNL     1      44.970   5.452  12.214  0.00  0.00    +0.000 A 
ATOM     13  H   UNL     1      43.913   8.538  11.906  0.00  0.00    +0.000 HD
ENDBRANCH   2   3
BRANCH   2  14
ATOM     14  O   UNL     1      46.712   4.278  15.013  0.00  0.00    +0.000 OA
BRANCH  14  15
ATOM     15  C   UNL     1      47.610   4.717  16.068  0.00  0.00    +0.000 C 
BRANCH  15  16
ATOM     16  C   UNL     1      47.179   4.211  17.457  0.00  0.00    +0.000 C 
ATOM     17  C   UNL     1      47.540   5.243  18.541  0.00  0.00    +0.000 C 
ATOM     18  C   UNL     1      49.052   5.311  18.789  0.00  0.00    +0.000 C 
ATOM     19  N   UNL     1      49.613   4.002  19.123  0.00  0.00    +0.000 NA
ATOM     20  C   UNL     1      49.327   3.000  18.091  0.00  0.00    +0.000 C 
ATOM     21  C   UNL     1      47.827   2.866  17.822  0.00  0.00    +0.000 C 
ATOM     22  H   UNL     1      49.210   3.686  20.005  0.00  0.00    +0.000 HD
ENDBRANCH  15  16
ENDBRANCH  14  15
ENDBRANCH   2  14
TORSDOF 4
ENDMDL
MODEL 9
REMARK VINA RESULT:    -5.884      3.219      6.137
REMARK INTER + INTRA:          -7.702
REMARK INTER:                  -7.189
REMARK INTRA:                  -0.512
REMARK UNBOUND:                -0.441
REMARK  Name = 
REMARK  4 active torsions:
REMARK  status: ('A' for Active; 'I' for Inactive)
REMARK    1  A    between atoms: C_2  and  O_3
REMARK    2  A    between atoms: C_2  and  C_11
REMARK    3  A    between atoms: O_3  and  C_4
REMARK    4  A    between atoms: C_4  and  C_5
REMARK                            x       y       z     vdW  Elec       q    Type
REMARK                         _______ _______ _______ _____ _____    ______ ____
ROOT
ATOM      1  O   UNL     1      48.054   5.925  14.892  0.00  0.00    +0.000 OA
ATOM      2  C   UNL     1      47.961   6.072  13.693  0.00  0.00    +0.000 C 
ENDROOT
BRANCH   2   3
ATOM      3  C   UNL     1      46.646   6.083  13.017  0.00  0.00    +0.000 A 
ATOM      4  C   UNL     1      46.090   7.226  12.452  0.00  0.00    +0.000 A 
ATOM      5  S   UNL     1      44.577   6.948  11.690  0.00  0.00    +0.000 S 
ATOM      6  C   UNL     1      44.689   5.275  11.974  0.00  0.00    +0.000 A 
ATOM      7  N   UNL     1      43.746   4.414  11.506  0.00  0.00    +0.000 NA
ATOM      8  C   UNL     1      44.003   3.170  11.743  0.00  0.00    +0.000 A 
ATOM      9  N   UNL     1      45.103   2.711  12.421  0.00  0.00    +0.000 N 
ATOM     10  C   UNL     1      46.021   3.550  13.008  0.00  0.00    +0.000 A 
ATOM     11  O   UNL     1      46.900   3.109  13.737  0.00  0.00    +0.000 OA
ATOM     12  C   UNL     1      45.817   4.948  12.704  0.00  0.00    +0.000 A 
ATOM     13  H   UNL     1      45.221   1.728  12.615  0.00  0.00    +0.000 HD
ENDBRANCH   2   3
BRANCH   2  14
ATOM     14  O   UNL     1      49.040   6.256  12.859  0.00  0.00    +0.000 OA
BRANCH  14  15
ATOM     15  C   UNL     1      49.748   7.525  12.892  0.00  0.00    +0.000 C 
BRANCH  15  16
ATOM     16  C   UNL     1      49.830   8.190  11.506  0.00  0.00    +0.000 C 
ATOM     17  C   UNL     1      51.271   8.131  10.965  0.00  0.00    +0.000 C 
ATOM     18  C   UNL     1      52.208   9.080  11.722  0.00  0.00    +0.000 C 
ATOM     19  N   UNL     1      51.717  10.457  11.716  0.00  0.00    +0.000 NA
ATOM     20  C   UNL     1      50.361  10.562  12.266  0.00  0.00    +0.000 C 
ATOM     21  C   UNL     1      49.373   9.657  11.528  0.00  0.00    +0.000 C 
ATOM     22  H   UNL     1      51.706  10.800  10.756  0.00  0.00    +0.000 HD
ENDBRANCH  15  16
ENDBRANCH  14  15
ENDBRANCH   2  14
TORSDOF 4
ENDMDL
