MODEL 1
REMARK VINA RESULT:    -7.517      0.000      0.000
REMARK INTER + INTRA:         -11.156
REMARK INTER:                 -10.154
REMARK INTRA:                  -1.001
REMARK UNBOUND:                -1.001
REMARK  Name = 
REMARK  6 active torsions:
REMARK  status: ('A' for Active; 'I' for Inactive)
REMARK    1  A    between atoms: C_2  and  C_3
REMARK    2  A    between atoms: N_10  and  C_11
REMARK    3  A    between atoms: C_11  and  C_12
REMARK    4  A    between atoms: C_15  and  C_16
REMARK    5  A    between atoms: C_16  and  N_17
REMARK    6  A    between atoms: C_18  and  C_20
REMARK                            x       y       z     vdW  Elec       q    Type
REMARK                         _______ _______ _______ _____ _____    ______ ____
ROOT
ATOM      1  C   UNL     1      49.725   6.545  16.544  0.00  0.00    +0.000 A 
ATOM      2  C   UNL     1      50.315   7.627  15.890  0.00  0.00    +0.000 A 
ATOM      3  C   UNL     1      49.849   8.003  14.629  0.00  0.00    +0.000 A 
ATOM      4  C   UNL     1      48.794   7.305  14.040  0.00  0.00    +0.000 A 
ATOM      5  C   UNL     1      48.278   6.230  14.755  0.00  0.00    +0.000 A 
ATOM      6  N   UNL     1      48.703   5.846  15.987  0.00  0.00    +0.000 NA
ENDROOT
BRANCH   1   7
ATOM      7  C   UNL     1      50.224   6.098  17.907  0.00  0.00    +0.000 C 
BRANCH   7  15
ATOM      8  C   UNL     1      51.614   1.894  17.469  0.00  0.00    +0.000 A 
ATOM      9  C   UNL     1      52.393   0.820  17.863  0.00  0.00    +0.000 A 
ATOM     10  C   UNL     1      53.577   1.327  18.443  0.00  0.00    +0.000 A 
ATOM     11  C   UNL     1      53.505   2.697  18.353  0.00  0.00    +0.000 A 
ATOM     12  N   UNL     1      52.291   3.062  17.790  0.00  0.00    +0.000 N 
ATOM     13  C   UNL     1      51.934   4.396  17.522  0.00  0.00    +0.000 C 
ATOM     14  O   UNL     1      52.767   5.155  17.051  0.00  0.00    +0.000 OA
ATOM     15  N   UNL     1      50.670   4.711  17.957  0.00  0.00    +0.000 N 
ATOM     16  H   UNL     1      50.179   4.103  18.599  0.00  0.00    +0.000 HD
BRANCH   8  18
ATOM     17  N   UNL     1      49.413   1.763  16.124  0.00  0.00    +0.000 NA
ATOM     18  C   UNL     1      50.393   1.827  16.742  0.00  0.00    +0.000 C 
ENDBRANCH   8  18
ENDBRANCH   7  15
ENDBRANCH   1   7
BRANCH   4  19
ATOM     19  C   UNL     1      48.253   7.678  12.689  0.00  0.00    +0.000 C 
BRANCH  19  20
ATOM     20  N   UNL     1      47.472   6.616  12.116  0.00  0.00    +0.000 N 
ATOM     21  C   UNL     1      46.230   6.862  11.572  0.00  0.00    +0.000 C 
ATOM     22  O   UNL     1      45.678   7.952  11.677  0.00  0.00    +0.000 OA
ATOM     23  H   UNL     1      47.966   5.776  11.832  0.00  0.00    +0.000 HD
BRANCH  21  24
ATOM     24  C   UNL     1      45.585   5.744  10.874  0.00  0.00    +0.000 A 
ATOM     25  C   UNL     1      45.823   5.537   9.521  0.00  0.00    +0.000 A 
ATOM     26  S   UNL     1      45.043   4.153   8.897  0.00  0.00    +0.000 S 
ATOM     27  C   UNL     1      44.432   3.739  10.431  0.00  0.00    +0.000 A 
ATOM     28  N   UNL     1      43.760   2.574  10.629  0.00  0.00    +0.000 NA
ATOM     29  C   UNL     1      43.369   2.386  11.846  0.00  0.00    +0.000 A 
ATOM     30  N   UNL     1      43.553   3.276  12.873  0.00  0.00    +0.000 N 
ATOM     31  C   UNL     1      44.198   4.478  12.710  0.00  0.00    +0.000 A 
ATOM     32  O   UNL     1      44.285   5.285  13.631  0.00  0.00    +0.000 OA
ATOM     33  C   UNL     1      44.724   4.703  11.379  0.00  0.00    +0.000 A 
ATOM     34  H   UNL     1      43.177   3.091  13.791  0.00  0.00    +0.000 HD
ENDBRANCH  21  24
ENDBRANCH  19  20
ENDBRANCH   4  19
TORSDOF 6
ENDMDL
MODEL 2
REMARK VINA RESULT:    -7.436      1.482      1.562
REMARK INTER + INTRA:         -11.046
REMARK INTER:                 -10.038
REMARK INTRA:                  -1.008
REMARK UNBOUND:                -1.001
REMARK  Name = 
REMARK  6 active torsions:
REMARK  status: ('A' for Active; 'I' for Inactive)
REMARK    1  A    between atoms: C_2  and  C_3
REMARK    2  A    between atoms: N_10  and  C_11
REMARK    3  A    between atoms: C_11  and  C_12
REMARK    4  A    between atoms: C_15  and  C_16
REMARK    5  A    between atoms: C_16  and  N_17
REMARK    6  A    between atoms: C_18  and  C_20
REMARK                            x       y       z     vdW  Elec       q    Type
REMARK                         _______ _______ _______ _____ _____    ______ ____
ROOT
ATOM      1  C   UNL     1      49.258   6.313  17.658  0.00  0.00    +0.000 A 
ATOM      2  C   UNL     1      49.185   7.706  17.653  0.00  0.00    +0.000 A 
ATOM      3  C   UNL     1      48.786   8.368  16.490  0.00  0.00    +0.000 A 
ATOM      4  C   UNL     1      48.452   7.634  15.352  0.00  0.00    +0.000 A 
ATOM      5  C   UNL     1      48.570   6.252  15.440  0.00  0.00    +0.000 A 
ATOM      6  N   UNL     1      48.946   5.579  16.559  0.00  0.00    +0.000 NA
ENDROOT
BRANCH   1   7
ATOM      7  C   UNL     1      49.710   5.565  18.900  0.00  0.00    +0.000 C 
BRANCH   7  15
ATOM      8  C   UNL     1      51.637   1.804  17.508  0.00  0.00    +0.000 A 
ATOM      9  C   UNL     1      52.554   0.778  17.653  0.00  0.00    +0.000 A 
ATOM     10  C   UNL     1      53.667   1.281  18.363  0.00  0.00    +0.000 A 
ATOM     11  C   UNL     1      53.414   2.612  18.599  0.00  0.00    +0.000 A 
ATOM     12  N   UNL     1      52.157   2.940  18.112  0.00  0.00    +0.000 N 
ATOM     13  C   UNL     1      51.625   4.241  18.159  0.00  0.00    +0.000 C 
ATOM     14  O   UNL     1      52.347   5.191  17.901  0.00  0.00    +0.000 OA
ATOM     15  N   UNL     1      50.335   4.276  18.629  0.00  0.00    +0.000 N 
ATOM     16  H   UNL     1      49.934   3.474  19.097  0.00  0.00    +0.000 HD
BRANCH   8  18
ATOM     17  N   UNL     1      49.459   1.713  16.122  0.00  0.00    +0.000 NA
ATOM     18  C   UNL     1      50.428   1.753  16.759  0.00  0.00    +0.000 C 
ENDBRANCH   8  18
ENDBRANCH   7  15
ENDBRANCH   1   7
BRANCH   4  19
ATOM     19  C   UNL     1      48.008   8.301  14.081  0.00  0.00    +0.000 C 
BRANCH  19  20
ATOM     20  N   UNL     1      46.762   7.765  13.604  0.00  0.00    +0.000 N 
ATOM     21  C   UNL     1      46.714   6.977  12.474  0.00  0.00    +0.000 C 
ATOM     22  O   UNL     1      47.693   6.817  11.752  0.00  0.00    +0.000 OA
ATOM     23  H   UNL     1      45.997   7.704  14.268  0.00  0.00    +0.000 HD
BRANCH  21  24
ATOM     24  C   UNL     1      45.424   6.353  12.162  0.00  0.00    +0.000 A 
ATOM     25  C   UNL     1      44.402   7.106  11.600  0.00  0.00    +0.000 A 
ATOM     26  S   UNL     1      43.001   6.198  11.246  0.00  0.00    +0.000 S 
ATOM     27  C   UNL     1      43.744   4.753  11.754  0.00  0.00    +0.000 A 
ATOM     28  N   UNL     1      43.124   3.553  11.602  0.00  0.00    +0.000 NA
ATOM     29  C   UNL     1      43.813   2.542  12.018  0.00  0.00    +0.000 A 
ATOM     30  N   UNL     1      45.048   2.627  12.608  0.00  0.00    +0.000 N 
ATOM     31  C   UNL     1      45.697   3.821  12.809  0.00  0.00    +0.000 A 
ATOM     32  O   UNL     1      46.769   3.872  13.403  0.00  0.00    +0.000 OA
ATOM     33  C   UNL     1      44.999   4.980  12.290  0.00  0.00    +0.000 A 
ATOM     34  H   UNL     1      45.511   1.802  12.958  0.00  0.00    +0.000 HD
ENDBRANCH  21  24
ENDBRANCH  19  20
ENDBRANCH   4  19
TORSDOF 6
ENDMDL
MODEL 3
REMARK VINA RESULT:    -7.274      3.209      9.548
REMARK INTER + INTRA:         -10.827
REMARK INTER:                  -9.962
REMARK INTRA:                  -0.866
REMARK UNBOUND:                -1.001
REMARK  Name = 
REMARK  6 active torsions:
REMARK  status: ('A' for Active; 'I' for Inactive)
REMARK    1  A    between atoms: C_2  and  C_3
REMARK    2  A    between atoms: N_10  and  C_11
REMARK    3  A    between atoms: C_11  and  C_12
REMARK    4  A    between atoms: C_15  and  C_16
REMARK    5  A    between atoms: C_16  and  N_17
REMARK    6  A    between atoms: C_18  and  C_20
REMARK                            x       y       z     vdW  Elec       q    Type
REMARK                         _______ _______ _______ _____ _____    ______ ____
ROOT
ATOM      1  C   UNL     1      47.128   5.566  14.359  0.00  0.00    +0.000 A 
ATOM      2  C   UNL     1      48.099   6.306  15.034  0.00  0.00    +0.000 A 
ATOM      3  C   UNL     1      48.704   5.767  16.172  0.00  0.00    +0.000 A 
ATOM      4  C   UNL     1      48.343   4.494  16.614  0.00  0.00    +0.000 A 
ATOM      5  C   UNL     1      47.354   3.836  15.892  0.00  0.00    +0.000 A 
ATOM      6  N   UNL     1      46.755   4.330  14.777  0.00  0.00    +0.000 NA
ENDROOT
BRANCH   1   7
ATOM      7  C   UNL     1      46.437   6.134  13.131  0.00  0.00    +0.000 C 
BRANCH   7  15
ATOM      8  C   UNL     1      44.502   3.257  10.341  0.00  0.00    +0.000 A 
ATOM      9  C   UNL     1      44.451   2.570   9.142  0.00  0.00    +0.000 A 
ATOM     10  C   UNL     1      45.074   3.365   8.154  0.00  0.00    +0.000 A 
ATOM     11  C   UNL     1      45.457   4.532   8.771  0.00  0.00    +0.000 A 
ATOM     12  N   UNL     1      45.145   4.467  10.122  0.00  0.00    +0.000 N 
ATOM     13  C   UNL     1      45.370   5.527  11.018  0.00  0.00    +0.000 C 
ATOM     14  O   UNL     1      45.119   6.670  10.668  0.00  0.00    +0.000 OA
ATOM     15  N   UNL     1      45.981   5.127  12.180  0.00  0.00    +0.000 N 
ATOM     16  H   UNL     1      46.417   4.216  12.247  0.00  0.00    +0.000 HD
BRANCH   8  18
ATOM     17  N   UNL     1      43.409   2.565  12.577  0.00  0.00    +0.000 NA
ATOM     18  C   UNL     1      43.892   2.863  11.565  0.00  0.00    +0.000 C 
ENDBRANCH   8  18
ENDBRANCH   7  15
ENDBRANCH   1   7
BRANCH   4  19
ATOM     19  C   UNL     1      48.971   3.869  17.827  0.00  0.00    +0.000 C 
BRANCH  19  20
ATOM     20  N   UNL     1      50.359   3.564  17.612  0.00  0.00    +0.000 N 
ATOM     21  C   UNL     1      51.324   3.979  18.504  0.00  0.00    +0.000 C 
ATOM     22  O   UNL     1      51.067   4.738  19.433  0.00  0.00    +0.000 OA
ATOM     23  H   UNL     1      50.576   2.790  16.993  0.00  0.00    +0.000 HD
BRANCH  21  24
ATOM     24  C   UNL     1      52.686   3.484  18.277  0.00  0.00    +0.000 A 
ATOM     25  C   UNL     1      53.772   4.337  18.423  0.00  0.00    +0.000 A 
ATOM     26  S   UNL     1      55.278   3.571  18.184  0.00  0.00    +0.000 S 
ATOM     27  C   UNL     1      54.533   2.056  17.962  0.00  0.00    +0.000 A 
ATOM     28  N   UNL     1      55.271   0.923  17.829  0.00  0.00    +0.000 NA
ATOM     29  C   UNL     1      54.571  -0.153  17.683  0.00  0.00    +0.000 A 
ATOM     30  N   UNL     1      53.202  -0.193  17.616  0.00  0.00    +0.000 N 
ATOM     31  C   UNL     1      52.419   0.932  17.714  0.00  0.00    +0.000 A 
ATOM     32  O   UNL     1      51.200   0.875  17.581  0.00  0.00    +0.000 OA
ATOM     33  C   UNL     1      53.153   2.157  17.957  0.00  0.00    +0.000 A 
ATOM     34  H   UNL     1      52.717  -1.062  17.449  0.00  0.00    +0.000 HD
ENDBRANCH  21  24
ENDBRANCH  19  20
ENDBRANCH   4  19
TORSDOF 6
ENDMDL
MODEL 4
REMARK VINA RESULT:    -7.171      3.061      9.340
REMARK INTER + INTRA:         -10.687
REMARK INTER:                  -9.872
REMARK INTRA:                  -0.815
REMARK UNBOUND:                -1.001
REMARK  Name = 
REMARK  6 active torsions:
REMARK  status: ('A' for Active; 'I' for Inactive)
REMARK    1  A    between atoms: C_2  and  C_3
REMARK    2  A    between atoms: N_10  and  C_11
REMARK    3  A    between atoms: C_11  and  C_12
REMARK    4  A    between atoms: C_15  and  C_16
REMARK    5  A    between atoms: C_16  and  N_17
REMARK    6  A    between atoms: C_18  and  C_20
REMARK                            x       y       z     vdW  Elec       q    Type
REMARK                         _______ _______ _______ _____ _____    ______ ____
ROOT
ATOM      1  C   UNL     1      47.499   5.421  14.718  0.00  0.00    +0.000 A 
ATOM      2  C   UNL     1      48.374   6.036  15.614  0.00  0.00    +0.000 A 
ATOM      3  C   UNL     1      48.710   5.383  16.801  0.00  0.00    +0.000 A 
ATOM      4  C   UNL     1      48.181   4.122  17.076  0.00  0.00    +0.000 A 
ATOM      5  C   UNL     1      47.303   3.592  16.136  0.00  0.00    +0.000 A 
ATOM      6  N   UNL     1      46.964   4.198  14.969  0.00  0.00    +0.000 NA
ENDROOT
BRANCH   1   7
ATOM      7  C   UNL     1      47.096   6.115  13.428  0.00  0.00    +0.000 C 
BRANCH   7  15
ATOM      8  C   UNL     1      44.652   3.678  10.619  0.00  0.00    +0.000 A 
ATOM      9  C   UNL     1      44.429   3.105   9.379  0.00  0.00    +0.000 A 
ATOM     10  C   UNL     1      45.039   3.923   8.402  0.00  0.00    +0.000 A 
ATOM     11  C   UNL     1      45.587   4.992   9.069  0.00  0.00    +0.000 A 
ATOM     12  N   UNL     1      45.389   4.839  10.434  0.00  0.00    +0.000 N 
ATOM     13  C   UNL     1      45.794   5.793  11.385  0.00  0.00    +0.000 C 
ATOM     14  O   UNL     1      45.628   6.980  11.150  0.00  0.00    +0.000 OA
ATOM     15  N   UNL     1      46.463   5.239  12.449  0.00  0.00    +0.000 N 
ATOM     16  H   UNL     1      46.811   4.291  12.402  0.00  0.00    +0.000 HD
BRANCH   8  18
ATOM     17  N   UNL     1      43.685   2.904  12.885  0.00  0.00    +0.000 NA
ATOM     18  C   UNL     1      44.115   3.236  11.860  0.00  0.00    +0.000 C 
ENDBRANCH   8  18
ENDBRANCH   7  15
ENDBRANCH   1   7
BRANCH   4  19
ATOM     19  C   UNL     1      48.520   3.376  18.335  0.00  0.00    +0.000 C 
BRANCH  19  20
ATOM     20  N   UNL     1      49.927   3.095  18.426  0.00  0.00    +0.000 N 
ATOM     21  C   UNL     1      50.540   2.242  17.533  0.00  0.00    +0.000 C 
ATOM     22  O   UNL     1      49.900   1.582  16.722  0.00  0.00    +0.000 OA
ATOM     23  H   UNL     1      50.503   3.761  18.931  0.00  0.00    +0.000 HD
BRANCH  21  24
ATOM     24  C   UNL     1      52.001   2.146  17.614  0.00  0.00    +0.000 A 
ATOM     25  C   UNL     1      52.621   0.904  17.580  0.00  0.00    +0.000 A 
ATOM     26  S   UNL     1      54.325   0.991  17.618  0.00  0.00    +0.000 S 
ATOM     27  C   UNL     1      54.292   2.693  17.596  0.00  0.00    +0.000 A 
ATOM     28  N   UNL     1      55.438   3.417  17.494  0.00  0.00    +0.000 NA
ATOM     29  C   UNL     1      55.259   4.696  17.473  0.00  0.00    +0.000 A 
ATOM     30  N   UNL     1      54.042   5.317  17.586  0.00  0.00    +0.000 N 
ATOM     31  C   UNL     1      52.862   4.626  17.721  0.00  0.00    +0.000 A 
ATOM     32  O   UNL     1      51.796   5.209  17.891  0.00  0.00    +0.000 OA
ATOM     33  C   UNL     1      53.002   3.184  17.673  0.00  0.00    +0.000 A 
ATOM     34  H   UNL     1      53.975   6.324  17.614  0.00  0.00    +0.000 HD
ENDBRANCH  21  24
ENDBRANCH  19  20
ENDBRANCH   4  19
TORSDOF 6
ENDMDL
MODEL 5
REMARK VINA RESULT:    -6.989      1.104      1.825
REMARK INTER + INTRA:         -10.442
REMARK INTER:                  -9.547
REMARK INTRA:                  -0.895
REMARK UNBOUND:                -1.001
REMARK  Name = 
REMARK  6 active torsions:
REMARK  status: ('A' for Active; 'I' for Inactive)
REMARK    1  A    between atoms: C_2  and  C_3
REMARK    2  A    between atoms: N_10  and  C_11
REMARK    3  A    between atoms: C_11  and  C_12
REMARK    4  A    between atoms: C_15  and  C_16
REMARK    5  A    between atoms: C_16  and  N_17
REMARK    6  A    between atoms: C_18  and  C_20
REMARK                            x       y       z     vdW  Elec       q    Type
REMARK                         _______ _______ _______ _____ _____    ______ ____
ROOT
ATOM      1  C   UNL     1      50.041   7.169  15.754  0.00  0.00    +0.000 A 
ATOM      2  C   UNL     1      50.631   8.147  14.952  0.00  0.00    +0.000 A 
ATOM      3  C   UNL     1      50.125   8.382  13.673  0.00  0.00    +0.000 A 
ATOM      4  C   UNL     1      49.031   7.649  13.212  0.00  0.00    +0.000 A 
ATOM      5  C   UNL     1      48.517   6.683  14.070  0.00  0.00    +0.000 A 
ATOM      6  N   UNL     1      48.981   6.438  15.323  0.00  0.00    +0.000 NA
ENDROOT
BRANCH   1   7
ATOM      7  C   UNL     1      50.582   6.875  17.142  0.00  0.00    +0.000 C 
BRANCH   7  15
ATOM      8  C   UNL     1      52.524   2.989  18.108  0.00  0.00    +0.000 A 
ATOM      9  C   UNL     1      52.731   1.640  17.880  0.00  0.00    +0.000 A 
ATOM     10  C   UNL     1      51.547   1.101  17.330  0.00  0.00    +0.000 A 
ATOM     11  C   UNL     1      50.637   2.130  17.271  0.00  0.00    +0.000 A 
ATOM     12  N   UNL     1      51.232   3.303  17.712  0.00  0.00    +0.000 N 
ATOM     13  C   UNL     1      50.545   4.526  17.816  0.00  0.00    +0.000 C 
ATOM     14  O   UNL     1      49.407   4.537  18.259  0.00  0.00    +0.000 OA
ATOM     15  N   UNL     1      51.237   5.578  17.267  0.00  0.00    +0.000 N 
ATOM     16  H   UNL     1      52.030   5.414  16.661  0.00  0.00    +0.000 HD
BRANCH   8  18
ATOM     17  N   UNL     1      54.166   4.620  19.255  0.00  0.00    +0.000 NA
ATOM     18  C   UNL     1      53.423   3.882  18.755  0.00  0.00    +0.000 C 
ENDBRANCH   8  18
ENDBRANCH   7  15
ENDBRANCH   1   7
BRANCH   4  19
ATOM     19  C   UNL     1      48.445   7.873  11.846  0.00  0.00    +0.000 C 
BRANCH  19  20
ATOM     20  N   UNL     1      47.646   6.757  11.420  0.00  0.00    +0.000 N 
ATOM     21  C   UNL     1      46.275   6.866  11.311  0.00  0.00    +0.000 C 
ATOM     22  O   UNL     1      45.669   7.857  11.704  0.00  0.00    +0.000 OA
ATOM     23  H   UNL     1      48.113   6.018  10.904  0.00  0.00    +0.000 HD
BRANCH  21  24
ATOM     24  C   UNL     1      45.570   5.724  10.720  0.00  0.00    +0.000 A 
ATOM     25  C   UNL     1      45.735   5.424   9.374  0.00  0.00    +0.000 A 
ATOM     26  S   UNL     1      44.892   4.026   8.879  0.00  0.00    +0.000 S 
ATOM     27  C   UNL     1      44.348   3.727  10.464  0.00  0.00    +0.000 A 
ATOM     28  N   UNL     1      43.659   2.596  10.770  0.00  0.00    +0.000 NA
ATOM     29  C   UNL     1      43.324   2.497  12.013  0.00  0.00    +0.000 A 
ATOM     30  N   UNL     1      43.580   3.445  12.970  0.00  0.00    +0.000 N 
ATOM     31  C   UNL     1      44.245   4.616  12.699  0.00  0.00    +0.000 A 
ATOM     32  O   UNL     1      44.398   5.477  13.560  0.00  0.00    +0.000 OA
ATOM     33  C   UNL     1      44.710   4.741  11.333  0.00  0.00    +0.000 A 
ATOM     34  H   UNL     1      43.246   3.329  13.916  0.00  0.00    +0.000 HD
ENDBRANCH  21  24
ENDBRANCH  19  20
ENDBRANCH   4  19
TORSDOF 6
ENDMDL
MODEL 6
REMARK VINA RESULT:    -6.620      3.550      8.877
REMARK INTER + INTRA:          -9.943
REMARK INTER:                  -9.030
REMARK INTRA:                  -0.914
REMARK UNBOUND:                -1.001
REMARK  Name = 
REMARK  6 active torsions:
REMARK  status: ('A' for Active; 'I' for Inactive)
REMARK    1  A    between atoms: C_2  and  C_3
REMARK    2  A    between atoms: N_10  and  C_11
REMARK    3  A    between atoms: C_11  and  C_12
REMARK    4  A    between atoms: C_15  and  C_16
REMARK    5  A    between atoms: C_16  and  N_17
REMARK    6  A    between atoms: C_18  and  C_20
REMARK                            x       y       z     vdW  Elec       q    Type
REMARK                         _______ _______ _______ _____ _____    ______ ____
ROOT
ATOM      1  C   UNL     1      44.987   4.415  11.058  0.00  0.00    +0.000 A 
ATOM      2  C   UNL     1      45.681   5.401  10.356  0.00  0.00    +0.000 A 
ATOM      3  C   UNL     1      45.900   6.643  10.956  0.00  0.00    +0.000 A 
ATOM      4  C   UNL     1      45.438   6.882  12.250  0.00  0.00    +0.000 A 
ATOM      5  C   UNL     1      44.742   5.849  12.868  0.00  0.00    +0.000 A 
ATOM      6  N   UNL     1      44.521   4.628  12.315  0.00  0.00    +0.000 NA
ENDROOT
BRANCH   1   7
ATOM      7  C   UNL     1      44.714   3.061  10.425  0.00  0.00    +0.000 C 
BRANCH   7  15
ATOM      8  C   UNL     1      46.982   1.702   6.846  0.00  0.00    +0.000 A 
ATOM      9  C   UNL     1      47.829   1.938   5.778  0.00  0.00    +0.000 A 
ATOM     10  C   UNL     1      47.645   3.275   5.359  0.00  0.00    +0.000 A 
ATOM     11  C   UNL     1      46.664   3.807   6.162  0.00  0.00    +0.000 A 
ATOM     12  N   UNL     1      46.271   2.866   7.102  0.00  0.00    +0.000 N 
ATOM     13  C   UNL     1      45.248   3.091   8.041  0.00  0.00    +0.000 C 
ATOM     14  O   UNL     1      44.228   3.662   7.687  0.00  0.00    +0.000 OA
ATOM     15  N   UNL     1      45.601   2.728   9.317  0.00  0.00    +0.000 N 
ATOM     16  H   UNL     1      46.568   2.547   9.553  0.00  0.00    +0.000 HD
BRANCH   8  18
ATOM     17  N   UNL     1      46.625  -0.562   8.036  0.00  0.00    +0.000 NA
ATOM     18  C   UNL     1      46.771   0.453   7.493  0.00  0.00    +0.000 C 
ENDBRANCH   8  18
ENDBRANCH   7  15
ENDBRANCH   1   7
BRANCH   4  19
ATOM     19  C   UNL     1      45.658   8.198  12.941  0.00  0.00    +0.000 C 
BRANCH  19  20
ATOM     20  N   UNL     1      46.654   8.100  13.972  0.00  0.00    +0.000 N 
ATOM     21  C   UNL     1      47.971   8.420  13.720  0.00  0.00    +0.000 C 
ATOM     22  O   UNL     1      48.376   8.660  12.587  0.00  0.00    +0.000 OA
ATOM     23  H   UNL     1      46.331   8.109  14.934  0.00  0.00    +0.000 HD
BRANCH  21  24
ATOM     24  C   UNL     1      48.876   8.437  14.874  0.00  0.00    +0.000 A 
ATOM     25  C   UNL     1      49.571   9.595  15.197  0.00  0.00    +0.000 A 
ATOM     26  S   UNL     1      50.522   9.448  16.607  0.00  0.00    +0.000 S 
ATOM     27  C   UNL     1      49.968   7.861  16.880  0.00  0.00    +0.000 A 
ATOM     28  N   UNL     1      50.306   7.183  18.008  0.00  0.00    +0.000 NA
ATOM     29  C   UNL     1      49.802   5.997  18.086  0.00  0.00    +0.000 A 
ATOM     30  N   UNL     1      49.024   5.412  17.121  0.00  0.00    +0.000 N 
ATOM     31  C   UNL     1      48.683   6.049  15.952  0.00  0.00    +0.000 A 
ATOM     32  O   UNL     1      48.044   5.476  15.075  0.00  0.00    +0.000 OA
ATOM     33  C   UNL     1      49.161   7.413  15.850  0.00  0.00    +0.000 A 
ATOM     34  H   UNL     1      48.702   4.461  17.221  0.00  0.00    +0.000 HD
ENDBRANCH  21  24
ENDBRANCH  19  20
ENDBRANCH   4  19
TORSDOF 6
ENDMDL
MODEL 7
REMARK VINA RESULT:    -6.619      3.269      5.118
REMARK INTER + INTRA:          -9.942
REMARK INTER:                  -9.327
REMARK INTRA:                  -0.615
REMARK UNBOUND:                -1.001
REMARK  Name = 
REMARK  6 active torsions:
REMARK  status: ('A' for Active; 'I' for Inactive)
REMARK    1  A    between atoms: C_2  and  C_3
REMARK    2  A    between atoms: N_10  and  C_11
REMARK    3  A    between atoms: C_11  and  C_12
REMARK    4  A    between atoms: C_15  and  C_16
REMARK    5  A    between atoms: C_16  and  N_17
REMARK    6  A    between atoms: C_18  and  C_20
REMARK                            x       y       z     vdW  Elec       q    Type
REMARK                         _______ _______ _______ _____ _____    ______ ____
ROOT
ATOM      1  C   UNL     1      47.074   5.690  13.992  0.00  0.00    +0.000 A 
ATOM      2  C   UNL     1      46.075   6.379  13.304  0.00  0.00    +0.000 A 
ATOM      3  C   UNL     1      45.112   5.660  12.593  0.00  0.00    +0.000 A 
ATOM      4  C   UNL     1      45.148   4.265  12.588  0.00  0.00    +0.000 A 
ATOM      5  C   UNL     1      46.189   3.663  13.285  0.00  0.00    +0.000 A 
ATOM      6  N   UNL     1      47.135   4.334  13.992  0.00  0.00    +0.000 NA
ENDROOT
BRANCH   1   7
ATOM      7  C   UNL     1      48.150   6.444  14.755  0.00  0.00    +0.000 C 
BRANCH   7  15
ATOM      8  C   UNL     1      49.429   4.942  18.744  0.00  0.00    +0.000 A 
ATOM      9  C   UNL     1      49.342   4.925  20.125  0.00  0.00    +0.000 A 
ATOM     10  C   UNL     1      48.930   6.206  20.555  0.00  0.00    +0.000 A 
ATOM     11  C   UNL     1      48.811   6.981  19.425  0.00  0.00    +0.000 A 
ATOM     12  N   UNL     1      49.079   6.210  18.303  0.00  0.00    +0.000 N 
ATOM     13  C   UNL     1      49.085   6.727  16.995  0.00  0.00    +0.000 C 
ATOM     14  O   UNL     1      49.593   7.818  16.785  0.00  0.00    +0.000 OA
ATOM     15  N   UNL     1      48.381   5.951  16.108  0.00  0.00    +0.000 N 
ATOM     16  H   UNL     1      47.750   5.233  16.439  0.00  0.00    +0.000 HD
BRANCH   8  18
ATOM     17  N   UNL     1      50.332   3.054  17.231  0.00  0.00    +0.000 NA
ATOM     18  C   UNL     1      49.915   3.891  17.917  0.00  0.00    +0.000 C 
ENDBRANCH   8  18
ENDBRANCH   7  15
ENDBRANCH   1   7
BRANCH   4  19
ATOM     19  C   UNL     1      44.128   3.448  11.846  0.00  0.00    +0.000 C 
BRANCH  19  20
ATOM     20  N   UNL     1      44.738   2.608  10.853  0.00  0.00    +0.000 N 
ATOM     21  C   UNL     1      44.837   3.016   9.539  0.00  0.00    +0.000 C 
ATOM     22  O   UNL     1      44.291   4.037   9.134  0.00  0.00    +0.000 OA
ATOM     23  H   UNL     1      45.365   1.879  11.179  0.00  0.00    +0.000 HD
BRANCH  21  24
ATOM     24  C   UNL     1      45.615   2.157   8.640  0.00  0.00    +0.000 A 
ATOM     25  C   UNL     1      45.524   0.775   8.746  0.00  0.00    +0.000 A 
ATOM     26  S   UNL     1      46.445  -0.059   7.577  0.00  0.00    +0.000 S 
ATOM     27  C   UNL     1      46.927   1.397   6.838  0.00  0.00    +0.000 A 
ATOM     28  N   UNL     1      47.646   1.396   5.685  0.00  0.00    +0.000 NA
ATOM     29  C   UNL     1      47.927   2.573   5.232  0.00  0.00    +0.000 A 
ATOM     30  N   UNL     1      47.589   3.750   5.850  0.00  0.00    +0.000 N 
ATOM     31  C   UNL     1      46.891   3.797   7.032  0.00  0.00    +0.000 A 
ATOM     32  O   UNL     1      46.664   4.861   7.598  0.00  0.00    +0.000 OA
ATOM     33  C   UNL     1      46.485   2.502   7.542  0.00  0.00    +0.000 A 
ATOM     34  H   UNL     1      47.884   4.637   5.470  0.00  0.00    +0.000 HD
ENDBRANCH  21  24
ENDBRANCH  19  20
ENDBRANCH   4  19
TORSDOF 6
ENDMDL
MODEL 8
REMARK VINA RESULT:    -6.580      3.090      8.741
REMARK INTER + INTRA:          -9.890
REMARK INTER:                  -8.726
REMARK INTRA:                  -1.164
REMARK UNBOUND:                -1.001
REMARK  Name = 
REMARK  6 active torsions:
REMARK  status: ('A' for Active; 'I' for Inactive)
REMARK    1  A    between atoms: C_2  and  C_3
REMARK    2  A    between atoms: N_10  and  C_11
REMARK    3  A    between atoms: C_11  and  C_12
REMARK    4  A    between atoms: C_15  and  C_16
REMARK    5  A    between atoms: C_16  and  N_17
REMARK    6  A    between atoms: C_18  and  C_20
REMARK                            x       y       z     vdW  Elec       q    Type
REMARK                         _______ _______ _______ _____ _____    ______ ____
ROOT
ATOM      1  C   UNL     1      48.789   7.600  13.602  0.00  0.00    +0.000 A 
ATOM      2  C   UNL     1      48.542   6.653  14.597  0.00  0.00    +0.000 A 
ATOM      3  C   UNL     1      49.312   6.666  15.761  0.00  0.00    +0.000 A 
ATOM      4  C   UNL     1      50.309   7.628  15.926  0.00  0.00    +0.000 A 
ATOM      5  C   UNL     1      50.498   8.521  14.877  0.00  0.00    +0.000 A 
ATOM      6  N   UNL     1      49.760   8.540  13.737  0.00  0.00    +0.000 NA
ENDROOT
BRANCH   1   7
ATOM      7  C   UNL     1      47.983   7.599  12.314  0.00  0.00    +0.000 C 
BRANCH   7  15
ATOM      8  C   UNL     1      45.286   4.060  12.374  0.00  0.00    +0.000 A 
ATOM      9  C   UNL     1      44.263   3.298  11.838  0.00  0.00    +0.000 A 
ATOM     10  C   UNL     1      43.383   4.165  11.153  0.00  0.00    +0.000 A 
ATOM     11  C   UNL     1      43.875   5.438  11.320  0.00  0.00    +0.000 A 
ATOM     12  N   UNL     1      45.062   5.387  12.037  0.00  0.00    +0.000 N 
ATOM     13  C   UNL     1      45.787   6.532  12.413  0.00  0.00    +0.000 C 
ATOM     14  O   UNL     1      45.186   7.513  12.823  0.00  0.00    +0.000 OA
ATOM     15  N   UNL     1      47.130   6.429  12.143  0.00  0.00    +0.000 N 
ATOM     16  H   UNL     1      47.479   5.703  11.531  0.00  0.00    +0.000 HD
BRANCH   8  18
ATOM     17  N   UNL     1      47.174   3.246  13.938  0.00  0.00    +0.000 NA
ATOM     18  C   UNL     1      46.322   3.595  13.232  0.00  0.00    +0.000 C 
ENDBRANCH   8  18
ENDBRANCH   7  15
ENDBRANCH   1   7
BRANCH   4  19
ATOM     19  C   UNL     1      51.157   7.688  17.165  0.00  0.00    +0.000 C 
BRANCH  19  20
ATOM     20  N   UNL     1      51.946   6.498  17.329  0.00  0.00    +0.000 N 
ATOM     21  C   UNL     1      52.122   5.927  18.571  0.00  0.00    +0.000 C 
ATOM     22  O   UNL     1      51.739   6.477  19.599  0.00  0.00    +0.000 OA
ATOM     23  H   UNL     1      52.095   5.920  16.507  0.00  0.00    +0.000 HD
BRANCH  21  24
ATOM     24  C   UNL     1      52.810   4.633  18.609  0.00  0.00    +0.000 A 
ATOM     25  C   UNL     1      54.065   4.527  19.193  0.00  0.00    +0.000 A 
ATOM     26  S   UNL     1      54.681   2.935  19.203  0.00  0.00    +0.000 S 
ATOM     27  C   UNL     1      53.254   2.322  18.505  0.00  0.00    +0.000 A 
ATOM     28  N   UNL     1      53.067   0.985  18.347  0.00  0.00    +0.000 NA
ATOM     29  C   UNL     1      51.933   0.665  17.818  0.00  0.00    +0.000 A 
ATOM     30  N   UNL     1      50.986   1.562  17.396  0.00  0.00    +0.000 N 
ATOM     31  C   UNL     1      51.146   2.922  17.508  0.00  0.00    +0.000 A 
ATOM     32  O   UNL     1      50.313   3.703  17.058  0.00  0.00    +0.000 OA
ATOM     33  C   UNL     1      52.371   3.331  18.166  0.00  0.00    +0.000 A 
ATOM     34  H   UNL     1      50.141   1.248  16.944  0.00  0.00    +0.000 HD
ENDBRANCH  21  24
ENDBRANCH  19  20
ENDBRANCH   4  19
TORSDOF 6
ENDMDL
MODEL 9
REMARK VINA RESULT:    -6.295      1.811      2.524
REMARK INTER + INTRA:          -9.504
REMARK INTER:                  -8.603
REMARK INTRA:                  -0.901
REMARK UNBOUND:                -1.001
REMARK  Name = 
REMARK  6 active torsions:
REMARK  status: ('A' for Active; 'I' for Inactive)
REMARK    1  A    between atoms: C_2  and  C_3
REMARK    2  A    between atoms: N_10  and  C_11
REMARK    3  A    between atoms: C_11  and  C_12
REMARK    4  A    between atoms: C_15  and  C_16
REMARK    5  A    between atoms: C_16  and  N_17
REMARK    6  A    between atoms: C_18  and  C_20
REMARK                            x       y       z     vdW  Elec       q    Type
REMARK                         _______ _______ _______ _____ _____    ______ ____
ROOT
ATOM      1  C   UNL     1      49.959   8.318  15.344  0.00  0.00    +0.000 A 
ATOM      2  C   UNL     1      49.660   9.479  14.630  0.00  0.00    +0.000 A 
ATOM      3  C   UNL     1      48.711   9.430  13.608  0.00  0.00    +0.000 A 
ATOM      4  C   UNL     1      48.063   8.229  13.317  0.00  0.00    +0.000 A 
ATOM      5  C   UNL     1      48.436   7.118  14.066  0.00  0.00    +0.000 A 
ATOM      6  N   UNL     1      49.348   7.137  15.072  0.00  0.00    +0.000 NA
ENDROOT
BRANCH   1   7
ATOM      7  C   UNL     1      51.003   8.335  16.448  0.00  0.00    +0.000 C 
BRANCH   7  15
ATOM      8  C   UNL     1      51.696   4.132  17.736  0.00  0.00    +0.000 A 
ATOM      9  C   UNL     1      52.394   3.176  18.452  0.00  0.00    +0.000 A 
ATOM     10  C   UNL     1      53.734   3.608  18.570  0.00  0.00    +0.000 A 
ATOM     11  C   UNL     1      53.824   4.800  17.890  0.00  0.00    +0.000 A 
ATOM     12  N   UNL     1      52.574   5.153  17.402  0.00  0.00    +0.000 N 
ATOM     13  C   UNL     1      52.345   6.300  16.622  0.00  0.00    +0.000 C 
ATOM     14  O   UNL     1      53.145   6.599  15.749  0.00  0.00    +0.000 OA
ATOM     15  N   UNL     1      51.262   7.031  17.046  0.00  0.00    +0.000 N 
ATOM     16  H   UNL     1      50.851   6.863  17.954  0.00  0.00    +0.000 HD
BRANCH   8  18
ATOM     17  N   UNL     1      49.239   3.938  16.963  0.00  0.00    +0.000 NA
ATOM     18  C   UNL     1      50.345   4.037  17.297  0.00  0.00    +0.000 C 
ENDBRANCH   8  18
ENDBRANCH   7  15
ENDBRANCH   1   7
BRANCH   4  19
ATOM     19  C   UNL     1      47.028   8.129  12.232  0.00  0.00    +0.000 C 
BRANCH  19  20
ATOM     20  N   UNL     1      46.457   6.812  12.160  0.00  0.00    +0.000 N 
ATOM     21  C   UNL     1      45.189   6.614  11.655  0.00  0.00    +0.000 C 
ATOM     22  O   UNL     1      44.446   7.550  11.382  0.00  0.00    +0.000 OA
ATOM     23  H   UNL     1      47.097   6.024  12.179  0.00  0.00    +0.000 HD
BRANCH  21  24
ATOM     24  C   UNL     1      44.762   5.222  11.479  0.00  0.00    +0.000 A 
ATOM     25  C   UNL     1      44.063   4.574  12.489  0.00  0.00    +0.000 A 
ATOM     26  S   UNL     1      43.592   2.986  12.081  0.00  0.00    +0.000 S 
ATOM     27  C   UNL     1      44.231   3.141  10.511  0.00  0.00    +0.000 A 
ATOM     28  N   UNL     1      44.058   2.165   9.581  0.00  0.00    +0.000 NA
ATOM     29  C   UNL     1      44.584   2.427   8.431  0.00  0.00    +0.000 A 
ATOM     30  N   UNL     1      45.303   3.557   8.139  0.00  0.00    +0.000 N 
ATOM     31  C   UNL     1      45.529   4.554   9.057  0.00  0.00    +0.000 A 
ATOM     32  O   UNL     1      46.235   5.521   8.788  0.00  0.00    +0.000 OA
ATOM     33  C   UNL     1      44.893   4.344  10.342  0.00  0.00    +0.000 A 
ATOM     34  H   UNL     1      45.732   3.678   7.233  0.00  0.00    +0.000 HD
ENDBRANCH  21  24
ENDBRANCH  19  20
ENDBRANCH   4  19
TORSDOF 6
ENDMDL
