MODEL 1
REMARK VINA RESULT:    -7.803      0.000      0.000
REMARK INTER + INTRA:         -11.613
REMARK INTER:                 -10.540
REMARK INTRA:                  -1.073
REMARK UNBOUND:                -1.073
REMARK  Name = 
REMARK  8 active torsions:
REMARK  status: ('A' for Active; 'I' for Inactive)
REMARK    1  A    between atoms: C_1  and  O_2
REMARK    2  A    between atoms: O_2  and  C_3
REMARK    3  A    between atoms: C_10  and  C_11
REMARK    4  A    between atoms: N_13  and  C_14
REMARK    5  A    between atoms: C_14  and  C_15
REMARK    6  A    between atoms: N_19  and  C_20
REMARK    7  A    between atoms: N_19  and  C_21
REMARK    8  A    between atoms: C_21  and  C_22
REMARK                            x       y       z     vdW  Elec       q    Type
REMARK                         _______ _______ _______ _____ _____    ______ ____
ROOT
ATOM      1  C   UNL     1      48.033   7.810  13.462  0.00  0.00    +0.000 C 
ENDROOT
BRANCH   1   2
ATOM      2  C   UNL     1      47.074   6.893  12.762  0.00  0.00    +0.000 A 
ATOM      3  C   UNL     1      46.176   7.338  11.792  0.00  0.00    +0.000 A 
ATOM      4  C   UNL     1      45.180   6.477  11.306  0.00  0.00    +0.000 A 
ATOM      5  C   UNL     1      45.085   5.174  11.797  0.00  0.00    +0.000 A 
ATOM      6  N   UNL     1      43.921   4.402  11.536  0.00  0.00    +0.000 N 
ATOM      7  C   UNL     1      43.784   3.327  12.523  0.00  0.00    +0.000 C 
ATOM      8  N   UNL     1      46.027   4.704  12.649  0.00  0.00    +0.000 NA
ATOM      9  C   UNL     1      46.984   5.553  13.106  0.00  0.00    +0.000 A 
BRANCH   6  10
ATOM     10  C   UNL     1      43.747   4.041  10.105  0.00  0.00    +0.000 C 
BRANCH  10  11
ATOM     11  C   UNL     1      45.036   3.454   9.426  0.00  0.00    +0.000 C 
ATOM     12  C   UNL     1      45.461   4.328   8.227  0.00  0.00    +0.000 C 
ATOM     13  C   UNL     1      46.657   3.745   7.470  0.00  0.00    +0.000 C 
ATOM     14  C   UNL     1      46.422   2.281   7.124  0.00  0.00    +0.000 C 
ATOM     15  C   UNL     1      46.028   1.491   8.369  0.00  0.00    +0.000 C 
ATOM     16  N   UNL     1      44.828   2.062   8.976  0.00  0.00    +0.000 NA
ATOM     17  H   UNL     1      44.526   1.504   9.775  0.00  0.00    +0.000 HD
ENDBRANCH  10  11
ENDBRANCH   6  10
ENDBRANCH   1   2
BRANCH   1  20
ATOM     18  C   UNL     1      48.928   7.210  15.656  0.00  0.00    +0.000 C 
ATOM     19  O   UNL     1      49.922   6.697  15.143  0.00  0.00    +0.000 OA
ATOM     20  N   UNL     1      47.923   7.760  14.899  0.00  0.00    +0.000 N 
ATOM     21  H   UNL     1      47.186   8.282  15.352  0.00  0.00    +0.000 HD
BRANCH  18  29
ATOM     22  C   UNL     1      48.798   4.666  17.891  0.00  0.00    +0.000 A 
ATOM     23  N   UNL     1      48.812   3.861  18.973  0.00  0.00    +0.000 NA
ATOM     24  C   UNL     1      48.707   4.431  20.178  0.00  0.00    +0.000 A 
ATOM     25  N   UNL     1      48.565   5.727  20.446  0.00  0.00    +0.000 NA
ATOM     26  C   UNL     1      48.565   6.492  19.340  0.00  0.00    +0.000 A 
ATOM     27  S   UNL     1      48.353   8.172  19.470  0.00  0.00    +0.000 S 
ATOM     28  C   UNL     1      48.471   8.368  17.783  0.00  0.00    +0.000 A 
ATOM     29  C   UNL     1      48.719   7.182  17.107  0.00  0.00    +0.000 A 
ATOM     30  C   UNL     1      48.713   6.058  18.029  0.00  0.00    +0.000 A 
BRANCH  22  32
ATOM     31  C   UNL     1      47.657   3.549  16.192  0.00  0.00    +0.000 C 
ATOM     32  O   UNL     1      48.900   4.090  16.639  0.00  0.00    +0.000 OA
ENDBRANCH  22  32
ENDBRANCH  18  29
ENDBRANCH   1  20
TORSDOF 6
ENDMDL
MODEL 2
REMARK VINA RESULT:    -7.469      1.446      2.401
REMARK INTER + INTRA:         -11.162
REMARK INTER:                 -10.051
REMARK INTRA:                  -1.111
REMARK UNBOUND:                -1.073
REMARK  Name = 
REMARK  8 active torsions:
REMARK  status: ('A' for Active; 'I' for Inactive)
REMARK    1  A    between atoms: C_1  and  O_2
REMARK    2  A    between atoms: O_2  and  C_3
REMARK    3  A    between atoms: C_10  and  C_11
REMARK    4  A    between atoms: N_13  and  C_14
REMARK    5  A    between atoms: C_14  and  C_15
REMARK    6  A    between atoms: N_19  and  C_20
REMARK    7  A    between atoms: N_19  and  C_21
REMARK    8  A    between atoms: C_21  and  C_22
REMARK                            x       y       z     vdW  Elec       q    Type
REMARK                         _______ _______ _______ _____ _____    ______ ____
ROOT
ATOM      1  C   UNL     1      48.342   6.914  14.026  0.00  0.00    +0.000 C 
ENDROOT
BRANCH   1   2
ATOM      2  C   UNL     1      47.319   6.228  13.169  0.00  0.00    +0.000 A 
ATOM      3  C   UNL     1      46.590   6.894  12.185  0.00  0.00    +0.000 A 
ATOM      4  C   UNL     1      45.521   6.251  11.543  0.00  0.00    +0.000 A 
ATOM      5  C   UNL     1      45.183   4.943  11.895  0.00  0.00    +0.000 A 
ATOM      6  N   UNL     1      43.941   4.395  11.473  0.00  0.00    +0.000 N 
ATOM      7  C   UNL     1      43.553   3.275  12.335  0.00  0.00    +0.000 C 
ATOM      8  N   UNL     1      45.962   4.255  12.763  0.00  0.00    +0.000 NA
ATOM      9  C   UNL     1      46.994   4.896  13.371  0.00  0.00    +0.000 A 
BRANCH   6  10
ATOM     10  C   UNL     1      43.842   4.191  10.004  0.00  0.00    +0.000 C 
BRANCH  10  11
ATOM     11  C   UNL     1      45.115   3.539   9.354  0.00  0.00    +0.000 C 
ATOM     12  C   UNL     1      45.595   4.374   8.149  0.00  0.00    +0.000 C 
ATOM     13  C   UNL     1      46.776   3.728   7.421  0.00  0.00    +0.000 C 
ATOM     14  C   UNL     1      46.485   2.270   7.093  0.00  0.00    +0.000 C 
ATOM     15  C   UNL     1      46.038   1.518   8.344  0.00  0.00    +0.000 C 
ATOM     16  N   UNL     1      44.855   2.150   8.923  0.00  0.00    +0.000 NA
ATOM     17  H   UNL     1      44.517   1.618   9.726  0.00  0.00    +0.000 HD
ENDBRANCH  10  11
ENDBRANCH   6  10
ENDBRANCH   1   2
BRANCH   1  20
ATOM     18  C   UNL     1      49.195   6.408  16.259  0.00  0.00    +0.000 C 
ATOM     19  O   UNL     1      50.335   6.257  15.822  0.00  0.00    +0.000 OA
ATOM     20  N   UNL     1      48.136   6.704  15.438  0.00  0.00    +0.000 N 
ATOM     21  H   UNL     1      47.242   6.944  15.842  0.00  0.00    +0.000 HD
BRANCH  18  29
ATOM     22  C   UNL     1      47.909   8.433  18.654  0.00  0.00    +0.000 A 
ATOM     23  N   UNL     1      47.326   8.988  19.736  0.00  0.00    +0.000 NA
ATOM     24  C   UNL     1      47.159   8.222  20.820  0.00  0.00    +0.000 A 
ATOM     25  N   UNL     1      47.529   6.952  20.971  0.00  0.00    +0.000 NA
ATOM     26  C   UNL     1      48.097   6.438  19.868  0.00  0.00    +0.000 A 
ATOM     27  S   UNL     1      48.674   4.840  19.875  0.00  0.00    +0.000 S 
ATOM     28  C   UNL     1      49.186   4.964  18.257  0.00  0.00    +0.000 A 
ATOM     29  C   UNL     1      48.887   6.189  17.676  0.00  0.00    +0.000 A 
ATOM     30  C   UNL     1      48.295   7.085  18.654  0.00  0.00    +0.000 A 
BRANCH  22  32
ATOM     31  C   UNL     1      49.269  10.016  17.617  0.00  0.00    +0.000 C 
ATOM     32  O   UNL     1      48.092   9.215  17.529  0.00  0.00    +0.000 OA
ENDBRANCH  22  32
ENDBRANCH  18  29
ENDBRANCH   1  20
TORSDOF 6
ENDMDL
MODEL 3
REMARK VINA RESULT:    -7.403      4.548      9.243
REMARK INTER + INTRA:         -11.072
REMARK INTER:                 -10.186
REMARK INTRA:                  -0.886
REMARK UNBOUND:                -1.073
REMARK  Name = 
REMARK  8 active torsions:
REMARK  status: ('A' for Active; 'I' for Inactive)
REMARK    1  A    between atoms: C_1  and  O_2
REMARK    2  A    between atoms: O_2  and  C_3
REMARK    3  A    between atoms: C_10  and  C_11
REMARK    4  A    between atoms: N_13  and  C_14
REMARK    5  A    between atoms: C_14  and  C_15
REMARK    6  A    between atoms: N_19  and  C_20
REMARK    7  A    between atoms: N_19  and  C_21
REMARK    8  A    between atoms: C_21  and  C_22
REMARK                            x       y       z     vdW  Elec       q    Type
REMARK                         _______ _______ _______ _____ _____    ______ ____
ROOT
ATOM      1  C   UNL     1      47.455   3.619  16.921  0.00  0.00    +0.000 C 
ENDROOT
BRANCH   1   2
ATOM      2  C   UNL     1      48.921   3.347  17.084  0.00  0.00    +0.000 A 
ATOM      3  C   UNL     1      49.499   2.115  16.782  0.00  0.00    +0.000 A 
ATOM      4  C   UNL     1      50.836   1.859  17.127  0.00  0.00    +0.000 A 
ATOM      5  C   UNL     1      51.586   2.839  17.779  0.00  0.00    +0.000 A 
ATOM      6  N   UNL     1      52.823   2.495  18.387  0.00  0.00    +0.000 N 
ATOM      7  C   UNL     1      53.180   3.473  19.418  0.00  0.00    +0.000 C 
ATOM      8  N   UNL     1      51.064   4.074  17.966  0.00  0.00    +0.000 NA
ATOM      9  C   UNL     1      49.770   4.302  17.622  0.00  0.00    +0.000 A 
BRANCH   6  10
ATOM     10  C   UNL     1      53.882   2.106  17.419  0.00  0.00    +0.000 C 
BRANCH  10  11
ATOM     11  C   UNL     1      54.598   0.749  17.755  0.00  0.00    +0.000 C 
ATOM     12  C   UNL     1      54.645  -0.160  16.508  0.00  0.00    +0.000 C 
ATOM     13  C   UNL     1      55.247  -1.536  16.808  0.00  0.00    +0.000 C 
ATOM     14  C   UNL     1      54.579  -2.172  18.018  0.00  0.00    +0.000 C 
ATOM     15  C   UNL     1      54.596  -1.213  19.207  0.00  0.00    +0.000 C 
ATOM     16  N   UNL     1      53.925   0.038  18.861  0.00  0.00    +0.000 NA
ATOM     17  H   UNL     1      53.881   0.660  19.669  0.00  0.00    +0.000 HD
ENDBRANCH  10  11
ENDBRANCH   6  10
ENDBRANCH   1   2
BRANCH   1  20
ATOM     18  C   UNL     1      47.068   4.288  14.603  0.00  0.00    +0.000 C 
ATOM     19  O   UNL     1      47.269   3.141  14.207  0.00  0.00    +0.000 OA
ATOM     20  N   UNL     1      47.169   4.626  15.930  0.00  0.00    +0.000 N 
ATOM     21  H   UNL     1      46.875   5.543  16.235  0.00  0.00    +0.000 HD
BRANCH  18  29
ATOM     22  C   UNL     1      44.380   5.027  12.676  0.00  0.00    +0.000 A 
ATOM     23  N   UNL     1      43.420   5.590  11.915  0.00  0.00    +0.000 NA
ATOM     24  C   UNL     1      43.686   6.769  11.341  0.00  0.00    +0.000 A 
ATOM     25  N   UNL     1      44.821   7.461  11.416  0.00  0.00    +0.000 NA
ATOM     26  C   UNL     1      45.745   6.868  12.190  0.00  0.00    +0.000 A 
ATOM     27  S   UNL     1      47.277   7.576  12.379  0.00  0.00    +0.000 S 
ATOM     28  C   UNL     1      47.786   6.322  13.410  0.00  0.00    +0.000 A 
ATOM     29  C   UNL     1      46.798   5.382  13.664  0.00  0.00    +0.000 A 
ATOM     30  C   UNL     1      45.604   5.675  12.889  0.00  0.00    +0.000 A 
BRANCH  22  32
ATOM     31  C   UNL     1      43.608   2.854  12.338  0.00  0.00    +0.000 C 
ATOM     32  O   UNL     1      44.119   3.806  13.270  0.00  0.00    +0.000 OA
ENDBRANCH  22  32
ENDBRANCH  18  29
ENDBRANCH   1  20
TORSDOF 6
ENDMDL
MODEL 4
REMARK VINA RESULT:    -7.091      2.034      3.018
REMARK INTER + INTRA:         -10.650
REMARK INTER:                  -9.530
REMARK INTRA:                  -1.120
REMARK UNBOUND:                -1.073
REMARK  Name = 
REMARK  8 active torsions:
REMARK  status: ('A' for Active; 'I' for Inactive)
REMARK    1  A    between atoms: C_1  and  O_2
REMARK    2  A    between atoms: O_2  and  C_3
REMARK    3  A    between atoms: C_10  and  C_11
REMARK    4  A    between atoms: N_13  and  C_14
REMARK    5  A    between atoms: C_14  and  C_15
REMARK    6  A    between atoms: N_19  and  C_20
REMARK    7  A    between atoms: N_19  and  C_21
REMARK    8  A    between atoms: C_21  and  C_22
REMARK                            x       y       z     vdW  Elec       q    Type
REMARK                         _______ _______ _______ _____ _____    ______ ____
ROOT
ATOM      1  C   UNL     1      47.928   5.114  15.206  0.00  0.00    +0.000 C 
ENDROOT
BRANCH   1   2
ATOM      2  C   UNL     1      47.024   4.804  14.049  0.00  0.00    +0.000 A 
ATOM      3  C   UNL     1      46.456   5.794  13.248  0.00  0.00    +0.000 A 
ATOM      4  C   UNL     1      45.476   5.459  12.300  0.00  0.00    +0.000 A 
ATOM      5  C   UNL     1      45.065   4.132  12.164  0.00  0.00    +0.000 A 
ATOM      6  N   UNL     1      43.886   3.828  11.432  0.00  0.00    +0.000 N 
ATOM      7  C   UNL     1      43.356   2.520  11.828  0.00  0.00    +0.000 C 
ATOM      8  N   UNL     1      45.698   3.155  12.856  0.00  0.00    +0.000 NA
ATOM      9  C   UNL     1      46.646   3.500  13.766  0.00  0.00    +0.000 A 
BRANCH   6  10
ATOM     10  C   UNL     1      43.993   4.108   9.976  0.00  0.00    +0.000 C 
BRANCH  10  11
ATOM     11  C   UNL     1      45.248   3.464   9.284  0.00  0.00    +0.000 C 
ATOM     12  C   UNL     1      45.689   4.308   8.070  0.00  0.00    +0.000 C 
ATOM     13  C   UNL     1      46.850   3.670   7.303  0.00  0.00    +0.000 C 
ATOM     14  C   UNL     1      46.554   2.213   6.976  0.00  0.00    +0.000 C 
ATOM     15  C   UNL     1      46.147   1.452   8.235  0.00  0.00    +0.000 C 
ATOM     16  N   UNL     1      44.980   2.077   8.853  0.00  0.00    +0.000 NA
ATOM     17  H   UNL     1      44.667   1.539   9.662  0.00  0.00    +0.000 HD
ENDBRANCH  10  11
ENDBRANCH   6  10
ENDBRANCH   1   2
BRANCH   1  20
ATOM     18  C   UNL     1      49.120   7.210  15.599  0.00  0.00    +0.000 C 
ATOM     19  O   UNL     1      50.204   6.668  15.388  0.00  0.00    +0.000 OA
ATOM     20  N   UNL     1      47.939   6.511  15.562  0.00  0.00    +0.000 N 
ATOM     21  H   UNL     1      47.062   7.010  15.615  0.00  0.00    +0.000 HD
BRANCH  18  29
ATOM     22  C   UNL     1      47.973   8.731  18.403  0.00  0.00    +0.000 A 
ATOM     23  N   UNL     1      47.689   9.554  19.432  0.00  0.00    +0.000 NA
ATOM     24  C   UNL     1      47.963  10.855  19.288  0.00  0.00    +0.000 A 
ATOM     25  N   UNL     1      48.476  11.455  18.215  0.00  0.00    +0.000 NA
ATOM     26  C   UNL     1      48.751  10.597  17.219  0.00  0.00    +0.000 A 
ATOM     27  S   UNL     1      49.375  11.175  15.748  0.00  0.00    +0.000 S 
ATOM     28  C   UNL     1      49.438   9.603  15.099  0.00  0.00    +0.000 A 
ATOM     29  C   UNL     1      49.038   8.620  15.994  0.00  0.00    +0.000 A 
ATOM     30  C   UNL     1      48.571   9.219  17.233  0.00  0.00    +0.000 A 
BRANCH  22  32
ATOM     31  C   UNL     1      48.669   6.705  19.322  0.00  0.00    +0.000 C 
ATOM     32  O   UNL     1      47.690   7.385  18.537  0.00  0.00    +0.000 OA
ENDBRANCH  22  32
ENDBRANCH  18  29
ENDBRANCH   1  20
TORSDOF 6
ENDMDL
MODEL 5
REMARK VINA RESULT:    -7.001      2.298      4.047
REMARK INTER + INTRA:         -10.529
REMARK INTER:                  -9.393
REMARK INTRA:                  -1.135
REMARK UNBOUND:                -1.073
REMARK  Name = 
REMARK  8 active torsions:
REMARK  status: ('A' for Active; 'I' for Inactive)
REMARK    1  A    between atoms: C_1  and  O_2
REMARK    2  A    between atoms: O_2  and  C_3
REMARK    3  A    between atoms: C_10  and  C_11
REMARK    4  A    between atoms: N_13  and  C_14
REMARK    5  A    between atoms: C_14  and  C_15
REMARK    6  A    between atoms: N_19  and  C_20
REMARK    7  A    between atoms: N_19  and  C_21
REMARK    8  A    between atoms: C_21  and  C_22
REMARK                            x       y       z     vdW  Elec       q    Type
REMARK                         _______ _______ _______ _____ _____    ______ ____
ROOT
ATOM      1  C   UNL     1      47.730   5.126  15.363  0.00  0.00    +0.000 C 
ENDROOT
BRANCH   1   2
ATOM      2  C   UNL     1      46.876   4.825  14.166  0.00  0.00    +0.000 A 
ATOM      3  C   UNL     1      46.297   5.822  13.382  0.00  0.00    +0.000 A 
ATOM      4  C   UNL     1      45.361   5.486  12.391  0.00  0.00    +0.000 A 
ATOM      5  C   UNL     1      45.006   4.150  12.194  0.00  0.00    +0.000 A 
ATOM      6  N   UNL     1      43.864   3.830  11.413  0.00  0.00    +0.000 N 
ATOM      7  C   UNL     1      43.372   2.490  11.744  0.00  0.00    +0.000 C 
ATOM      8  N   UNL     1      45.654   3.173  12.871  0.00  0.00    +0.000 NA
ATOM      9  C   UNL     1      46.558   3.520  13.824  0.00  0.00    +0.000 A 
BRANCH   6  10
ATOM     10  C   UNL     1      44.006   4.167   9.972  0.00  0.00    +0.000 C 
BRANCH  10  11
ATOM     11  C   UNL     1      45.260   3.524   9.279  0.00  0.00    +0.000 C 
ATOM     12  C   UNL     1      45.712   4.380   8.077  0.00  0.00    +0.000 C 
ATOM     13  C   UNL     1      46.873   3.744   7.308  0.00  0.00    +0.000 C 
ATOM     14  C   UNL     1      46.569   2.293   6.961  0.00  0.00    +0.000 C 
ATOM     15  C   UNL     1      46.152   1.519   8.210  0.00  0.00    +0.000 C 
ATOM     16  N   UNL     1      44.986   2.143   8.829  0.00  0.00    +0.000 NA
ATOM     17  H   UNL     1      44.666   1.598   9.631  0.00  0.00    +0.000 HD
ENDBRANCH  10  11
ENDBRANCH   6  10
ENDBRANCH   1   2
BRANCH   1  20
ATOM     18  C   UNL     1      49.580   6.652  15.832  0.00  0.00    +0.000 C 
ATOM     19  O   UNL     1      50.219   5.755  16.381  0.00  0.00    +0.000 OA
ATOM     20  N   UNL     1      48.322   6.440  15.325  0.00  0.00    +0.000 N 
ATOM     21  H   UNL     1      47.879   7.160  14.772  0.00  0.00    +0.000 HD
BRANCH  18  29
ATOM     22  C   UNL     1      49.922   8.847  13.273  0.00  0.00    +0.000 A 
ATOM     23  N   UNL     1      50.057   9.920  12.466  0.00  0.00    +0.000 NA
ATOM     24  C   UNL     1      50.477  11.065  13.013  0.00  0.00    +0.000 A 
ATOM     25  N   UNL     1      50.807  11.276  14.286  0.00  0.00    +0.000 NA
ATOM     26  C   UNL     1      50.650  10.184  15.054  0.00  0.00    +0.000 A 
ATOM     27  S   UNL     1      51.057  10.238  16.701  0.00  0.00    +0.000 S 
ATOM     28  C   UNL     1      50.601   8.614  16.920  0.00  0.00    +0.000 A 
ATOM     29  C   UNL     1      50.091   8.025  15.771  0.00  0.00    +0.000 A 
ATOM     30  C   UNL     1      50.179   8.942  14.647  0.00  0.00    +0.000 A 
BRANCH  22  32
ATOM     31  C   UNL     1      48.872   7.846  11.449  0.00  0.00    +0.000 C 
ATOM     32  O   UNL     1      49.493   7.656  12.719  0.00  0.00    +0.000 OA
ENDBRANCH  22  32
ENDBRANCH  18  29
ENDBRANCH   1  20
TORSDOF 6
ENDMDL
MODEL 6
REMARK VINA RESULT:    -6.832      3.663      5.682
REMARK INTER + INTRA:         -10.301
REMARK INTER:                  -9.640
REMARK INTRA:                  -0.661
REMARK UNBOUND:                -1.073
REMARK  Name = 
REMARK  8 active torsions:
REMARK  status: ('A' for Active; 'I' for Inactive)
REMARK    1  A    between atoms: C_1  and  O_2
REMARK    2  A    between atoms: O_2  and  C_3
REMARK    3  A    between atoms: C_10  and  C_11
REMARK    4  A    between atoms: N_13  and  C_14
REMARK    5  A    between atoms: C_14  and  C_15
REMARK    6  A    between atoms: N_19  and  C_20
REMARK    7  A    between atoms: N_19  and  C_21
REMARK    8  A    between atoms: C_21  and  C_22
REMARK                            x       y       z     vdW  Elec       q    Type
REMARK                         _______ _______ _______ _____ _____    ______ ____
ROOT
ATOM      1  C   UNL     1      48.461   3.501  18.137  0.00  0.00    +0.000 C 
ENDROOT
BRANCH   1   2
ATOM      2  C   UNL     1      48.083   4.295  16.921  0.00  0.00    +0.000 A 
ATOM      3  C   UNL     1      47.106   3.874  16.019  0.00  0.00    +0.000 A 
ATOM      4  C   UNL     1      46.924   4.559  14.807  0.00  0.00    +0.000 A 
ATOM      5  C   UNL     1      47.725   5.661  14.503  0.00  0.00    +0.000 A 
ATOM      6  N   UNL     1      47.751   6.172  13.177  0.00  0.00    +0.000 N 
ATOM      7  C   UNL     1      48.978   6.939  12.945  0.00  0.00    +0.000 C 
ATOM      8  N   UNL     1      48.590   6.141  15.427  0.00  0.00    +0.000 NA
ATOM      9  C   UNL     1      48.750   5.465  16.594  0.00  0.00    +0.000 A 
BRANCH   6  10
ATOM     10  C   UNL     1      46.470   6.788  12.744  0.00  0.00    +0.000 C 
BRANCH  10  11
ATOM     11  C   UNL     1      45.322   5.755  12.456  0.00  0.00    +0.000 C 
ATOM     12  C   UNL     1      45.036   5.673  10.941  0.00  0.00    +0.000 C 
ATOM     13  C   UNL     1      43.857   4.751  10.616  0.00  0.00    +0.000 C 
ATOM     14  C   UNL     1      42.641   5.101  11.463  0.00  0.00    +0.000 C 
ATOM     15  C   UNL     1      43.011   5.139  12.944  0.00  0.00    +0.000 C 
ATOM     16  N   UNL     1      44.081   6.106  13.176  0.00  0.00    +0.000 NA
ATOM     17  H   UNL     1      44.292   6.179  14.172  0.00  0.00    +0.000 HD
ENDBRANCH  10  11
ENDBRANCH   6  10
ENDBRANCH   1   2
BRANCH   1  20
ATOM     18  C   UNL     1      50.496   2.379  17.380  0.00  0.00    +0.000 C 
ATOM     19  O   UNL     1      49.866   1.737  16.541  0.00  0.00    +0.000 OA
ATOM     20  N   UNL     1      49.879   3.255  18.238  0.00  0.00    +0.000 N 
ATOM     21  H   UNL     1      50.438   3.856  18.826  0.00  0.00    +0.000 HD
BRANCH  18  29
ATOM     22  C   UNL     1      53.085   4.544  17.697  0.00  0.00    +0.000 A 
ATOM     23  N   UNL     1      54.246   5.180  17.952  0.00  0.00    +0.000 NA
ATOM     24  C   UNL     1      55.324   4.433  18.216  0.00  0.00    +0.000 A 
ATOM     25  N   UNL     1      55.397   3.104  18.237  0.00  0.00    +0.000 NA
ATOM     26  C   UNL     1      54.217   2.513  17.986  0.00  0.00    +0.000 A 
ATOM     27  S   UNL     1      54.111   0.818  17.928  0.00  0.00    +0.000 S 
ATOM     28  C   UNL     1      52.443   0.883  17.596  0.00  0.00    +0.000 A 
ATOM     29  C   UNL     1      51.935   2.175  17.572  0.00  0.00    +0.000 A 
ATOM     30  C   UNL     1      53.003   3.145  17.743  0.00  0.00    +0.000 A 
BRANCH  22  32
ATOM     31  C   UNL     1      51.832   6.412  18.305  0.00  0.00    +0.000 C 
ATOM     32  O   UNL     1      51.965   5.303  17.417  0.00  0.00    +0.000 OA
ENDBRANCH  22  32
ENDBRANCH  18  29
ENDBRANCH   1  20
TORSDOF 6
ENDMDL
MODEL 7
REMARK VINA RESULT:    -6.655      3.133      8.169
REMARK INTER + INTRA:         -10.062
REMARK INTER:                  -8.889
REMARK INTRA:                  -1.173
REMARK UNBOUND:                -1.073
REMARK  Name = 
REMARK  8 active torsions:
REMARK  status: ('A' for Active; 'I' for Inactive)
REMARK    1  A    between atoms: C_1  and  O_2
REMARK    2  A    between atoms: O_2  and  C_3
REMARK    3  A    between atoms: C_10  and  C_11
REMARK    4  A    between atoms: N_13  and  C_14
REMARK    5  A    between atoms: C_14  and  C_15
REMARK    6  A    between atoms: N_19  and  C_20
REMARK    7  A    between atoms: N_19  and  C_21
REMARK    8  A    between atoms: C_21  and  C_22
REMARK                            x       y       z     vdW  Elec       q    Type
REMARK                         _______ _______ _______ _____ _____    ______ ____
ROOT
ATOM      1  C   UNL     1      48.031   8.257  11.939  0.00  0.00    +0.000 C 
ENDROOT
BRANCH   1   2
ATOM      2  C   UNL     1      48.449   8.047  13.365  0.00  0.00    +0.000 A 
ATOM      3  C   UNL     1      48.888   6.815  13.849  0.00  0.00    +0.000 A 
ATOM      4  C   UNL     1      49.089   6.629  15.226  0.00  0.00    +0.000 A 
ATOM      5  C   UNL     1      48.844   7.679  16.113  0.00  0.00    +0.000 A 
ATOM      6  N   UNL     1      48.759   7.422  17.507  0.00  0.00    +0.000 N 
ATOM      7  C   UNL     1      48.011   8.486  18.183  0.00  0.00    +0.000 C 
ATOM      8  N   UNL     1      48.533   8.907  15.634  0.00  0.00    +0.000 NA
ATOM      9  C   UNL     1      48.346   9.066  14.298  0.00  0.00    +0.000 A 
BRANCH   6  10
ATOM     10  C   UNL     1      50.045   6.998  18.120  0.00  0.00    +0.000 C 
BRANCH  10  11
ATOM     11  C   UNL     1      50.153   5.454  18.393  0.00  0.00    +0.000 C 
ATOM     12  C   UNL     1      51.282   4.833  17.544  0.00  0.00    +0.000 C 
ATOM     13  C   UNL     1      51.365   3.312  17.702  0.00  0.00    +0.000 C 
ATOM     14  C   UNL     1      50.001   2.667  17.496  0.00  0.00    +0.000 C 
ATOM     15  C   UNL     1      48.953   3.329  18.388  0.00  0.00    +0.000 C 
ATOM     16  N   UNL     1      48.880   4.761  18.110  0.00  0.00    +0.000 NA
ATOM     17  H   UNL     1      48.141   5.200  18.661  0.00  0.00    +0.000 HD
ENDBRANCH  10  11
ENDBRANCH   6  10
ENDBRANCH   1   2
BRANCH   1  20
ATOM     18  C   UNL     1      46.083   6.949  11.257  0.00  0.00    +0.000 C 
ATOM     19  O   UNL     1      45.317   7.784  11.736  0.00  0.00    +0.000 OA
ATOM     20  N   UNL     1      47.447   7.084  11.338  0.00  0.00    +0.000 N 
ATOM     21  H   UNL     1      48.043   6.448  10.827  0.00  0.00    +0.000 HD
BRANCH  18  29
ATOM     22  C   UNL     1      44.478   4.261  12.556  0.00  0.00    +0.000 A 
ATOM     23  N   UNL     1      43.750   3.152  12.798  0.00  0.00    +0.000 NA
ATOM     24  C   UNL     1      43.431   2.372  11.760  0.00  0.00    +0.000 A 
ATOM     25  N   UNL     1      43.773   2.550  10.486  0.00  0.00    +0.000 NA
ATOM     26  C   UNL     1      44.490   3.670  10.289  0.00  0.00    +0.000 A 
ATOM     27  S   UNL     1      45.057   4.053   8.734  0.00  0.00    +0.000 S 
ATOM     28  C   UNL     1      45.791   5.481   9.298  0.00  0.00    +0.000 A 
ATOM     29  C   UNL     1      45.579   5.712  10.650  0.00  0.00    +0.000 A 
ATOM     30  C   UNL     1      44.857   4.603  11.250  0.00  0.00    +0.000 A 
BRANCH  22  32
ATOM     31  C   UNL     1      46.089   4.731  14.173  0.00  0.00    +0.000 C 
ATOM     32  O   UNL     1      44.818   5.073  13.621  0.00  0.00    +0.000 OA
ENDBRANCH  22  32
ENDBRANCH  18  29
ENDBRANCH   1  20
TORSDOF 6
ENDMDL
MODEL 8
REMARK VINA RESULT:    -6.447      2.586      3.220
REMARK INTER + INTRA:          -9.781
REMARK INTER:                  -8.711
REMARK INTRA:                  -1.070
REMARK UNBOUND:                -1.073
REMARK  Name = 
REMARK  8 active torsions:
REMARK  status: ('A' for Active; 'I' for Inactive)
REMARK    1  A    between atoms: C_1  and  O_2
REMARK    2  A    between atoms: O_2  and  C_3
REMARK    3  A    between atoms: C_10  and  C_11
REMARK    4  A    between atoms: N_13  and  C_14
REMARK    5  A    between atoms: C_14  and  C_15
REMARK    6  A    between atoms: N_19  and  C_20
REMARK    7  A    between atoms: N_19  and  C_21
REMARK    8  A    between atoms: C_21  and  C_22
REMARK                            x       y       z     vdW  Elec       q    Type
REMARK                         _______ _______ _______ _____ _____    ______ ____
ROOT
ATOM      1  C   UNL     1      47.270   8.747  13.045  0.00  0.00    +0.000 C 
ENDROOT
BRANCH   1   2
ATOM      2  C   UNL     1      46.523   7.577  12.476  0.00  0.00    +0.000 A 
ATOM      3  C   UNL     1      45.418   7.722  11.637  0.00  0.00    +0.000 A 
ATOM      4  C   UNL     1      44.648   6.603  11.286  0.00  0.00    +0.000 A 
ATOM      5  C   UNL     1      44.985   5.342  11.782  0.00  0.00    +0.000 A 
ATOM      6  N   UNL     1      44.059   4.270  11.677  0.00  0.00    +0.000 N 
ATOM      7  C   UNL     1      44.357   3.233  12.669  0.00  0.00    +0.000 C 
ATOM      8  N   UNL     1      46.123   5.181  12.498  0.00  0.00    +0.000 NA
ATOM      9  C   UNL     1      46.856   6.277  12.824  0.00  0.00    +0.000 A 
BRANCH   6  10
ATOM     10  C   UNL     1      43.809   3.825  10.280  0.00  0.00    +0.000 C 
BRANCH  10  11
ATOM     11  C   UNL     1      45.098   3.371   9.506  0.00  0.00    +0.000 C 
ATOM     12  C   UNL     1      45.413   4.354   8.358  0.00  0.00    +0.000 C 
ATOM     13  C   UNL     1      46.606   3.902   7.511  0.00  0.00    +0.000 C 
ATOM     14  C   UNL     1      46.444   2.456   7.067  0.00  0.00    +0.000 C 
ATOM     15  C   UNL     1      46.156   1.555   8.266  0.00  0.00    +0.000 C 
ATOM     16  N   UNL     1      44.954   2.005   8.963  0.00  0.00    +0.000 NA
ATOM     17  H   UNL     1      44.723   1.373   9.731  0.00  0.00    +0.000 HD
ENDBRANCH  10  11
ENDBRANCH   6  10
ENDBRANCH   1   2
BRANCH   1  20
ATOM     18  C   UNL     1      49.544   9.384  13.675  0.00  0.00    +0.000 C 
ATOM     19  O   UNL     1      49.326  10.561  13.388  0.00  0.00    +0.000 OA
ATOM     20  N   UNL     1      48.593   8.408  13.508  0.00  0.00    +0.000 N 
ATOM     21  H   UNL     1      48.762   7.480  13.869  0.00  0.00    +0.000 HD
BRANCH  18  29
ATOM     22  C   UNL     1      50.526   6.972  15.844  0.00  0.00    +0.000 A 
ATOM     23  N   UNL     1      51.168   6.028  16.562  0.00  0.00    +0.000 NA
ATOM     24  C   UNL     1      52.503   5.997  16.504  0.00  0.00    +0.000 A 
ATOM     25  N   UNL     1      53.298   6.821  15.823  0.00  0.00    +0.000 NA
ATOM     26  C   UNL     1      52.617   7.739  15.117  0.00  0.00    +0.000 A 
ATOM     27  S   UNL     1      53.453   8.909  14.213  0.00  0.00    +0.000 S 
ATOM     28  C   UNL     1      51.998   9.608  13.675  0.00  0.00    +0.000 A 
ATOM     29  C   UNL     1      50.867   8.943  14.128  0.00  0.00    +0.000 A 
ATOM     30  C   UNL     1      51.235   7.869  15.035  0.00  0.00    +0.000 A 
BRANCH  22  32
ATOM     31  C   UNL     1      48.600   5.920  16.631  0.00  0.00    +0.000 C 
ATOM     32  O   UNL     1      49.146   7.017  15.900  0.00  0.00    +0.000 OA
ENDBRANCH  22  32
ENDBRANCH  18  29
ENDBRANCH   1  20
TORSDOF 6
ENDMDL
MODEL 9
REMARK VINA RESULT:    -6.225      2.211      2.938
REMARK INTER + INTRA:          -9.482
REMARK INTER:                  -8.441
REMARK INTRA:                  -1.041
REMARK UNBOUND:                -1.073
REMARK  Name = 
REMARK  8 active torsions:
REMARK  status: ('A' for Active; 'I' for Inactive)
REMARK    1  A    between atoms: C_1  and  O_2
REMARK    2  A    between atoms: O_2  and  C_3
REMARK    3  A    between atoms: C_10  and  C_11
REMARK    4  A    between atoms: N_13  and  C_14
REMARK    5  A    between atoms: C_14  and  C_15
REMARK    6  A    between atoms: N_19  and  C_20
REMARK    7  A    between atoms: N_19  and  C_21
REMARK    8  A    between atoms: C_21  and  C_22
REMARK                            x       y       z     vdW  Elec       q    Type
REMARK                         _______ _______ _______ _____ _____    ______ ____
ROOT
ATOM      1  C   UNL     1      49.187   8.721  14.292  0.00  0.00    +0.000 C 
ENDROOT
BRANCH   1   2
ATOM      2  C   UNL     1      47.986   8.091  13.650  0.00  0.00    +0.000 A 
ATOM      3  C   UNL     1      48.047   6.883  12.956  0.00  0.00    +0.000 A 
ATOM      4  C   UNL     1      46.938   6.436  12.222  0.00  0.00    +0.000 A 
ATOM      5  C   UNL     1      45.773   7.204  12.182  0.00  0.00    +0.000 A 
ATOM      6  N   UNL     1      44.768   6.915  11.221  0.00  0.00    +0.000 N 
ATOM      7  C   UNL     1      43.919   8.088  10.994  0.00  0.00    +0.000 C 
ATOM      8  N   UNL     1      45.671   8.315  12.949  0.00  0.00    +0.000 NA
ATOM      9  C   UNL     1      46.755   8.730  13.655  0.00  0.00    +0.000 A 
BRANCH   6  10
ATOM     10  C   UNL     1      44.086   5.611  11.436  0.00  0.00    +0.000 C 
BRANCH  10  11
ATOM     11  C   UNL     1      44.145   4.640  10.203  0.00  0.00    +0.000 C 
ATOM     12  C   UNL     1      44.268   3.175  10.674  0.00  0.00    +0.000 C 
ATOM     13  C   UNL     1      44.427   2.195   9.509  0.00  0.00    +0.000 C 
ATOM     14  C   UNL     1      45.536   2.643   8.567  0.00  0.00    +0.000 C 
ATOM     15  C   UNL     1      45.323   4.093   8.137  0.00  0.00    +0.000 C 
ATOM     16  N   UNL     1      45.271   4.968   9.305  0.00  0.00    +0.000 NA
ATOM     17  H   UNL     1      45.187   5.945   9.022  0.00  0.00    +0.000 HD
ENDBRANCH  10  11
ENDBRANCH   6  10
ENDBRANCH   1   2
BRANCH   1  20
ATOM     18  C   UNL     1      49.919   7.439  16.239  0.00  0.00    +0.000 C 
ATOM     19  O   UNL     1      49.076   7.983  16.952  0.00  0.00    +0.000 OA
ATOM     20  N   UNL     1      50.069   7.764  14.914  0.00  0.00    +0.000 N 
ATOM     21  H   UNL     1      50.681   7.212  14.330  0.00  0.00    +0.000 HD
BRANCH  18  29
ATOM     22  C   UNL     1      49.607   4.193  17.163  0.00  0.00    +0.000 A 
ATOM     23  N   UNL     1      49.771   2.896  17.492  0.00  0.00    +0.000 NA
ATOM     24  C   UNL     1      51.000   2.484  17.824  0.00  0.00    +0.000 A 
ATOM     25  N   UNL     1      52.105   3.223  17.891  0.00  0.00    +0.000 NA
ATOM     26  C   UNL     1      51.897   4.506  17.548  0.00  0.00    +0.000 A 
ATOM     27  S   UNL     1      53.177   5.620  17.609  0.00  0.00    +0.000 S 
ATOM     28  C   UNL     1      52.172   6.883  17.071  0.00  0.00    +0.000 A 
ATOM     29  C   UNL     1      50.875   6.474  16.792  0.00  0.00    +0.000 A 
ATOM     30  C   UNL     1      50.698   5.073  17.135  0.00  0.00    +0.000 A 
BRANCH  22  32
ATOM     31  C   UNL     1      47.383   3.575  16.840  0.00  0.00    +0.000 C 
ATOM     32  O   UNL     1      48.342   4.632  16.823  0.00  0.00    +0.000 OA
ENDBRANCH  22  32
ENDBRANCH  18  29
ENDBRANCH   1  20
TORSDOF 6
ENDMDL
