MODEL 1
REMARK VINA RESULT:    -7.764      0.000      0.000
REMARK INTER + INTRA:         -11.293
REMARK INTER:                 -10.487
REMARK INTRA:                  -0.806
REMARK UNBOUND:                -0.806
REMARK  Name = 
REMARK  8 active torsions:
REMARK  status: ('A' for Active; 'I' for Inactive)
REMARK    1  A    between atoms: C_1  and  C_2
REMARK    2  A    between atoms: C_2  and  C_3
REMARK    3  A    between atoms: C_2  and  C_4
REMARK    4  A    between atoms: C_2  and  C_22
REMARK    5  A    between atoms: C_4  and  N_5
REMARK    6  A    between atoms: N_5  and  C_6
REMARK    7  A    between atoms: C_10  and  C_11
REMARK    8  A    between atoms: C_15  and  C_16
REMARK                            x       y       z     vdW  Elec       q    Type
REMARK                         _______ _______ _______ _____ _____    ______ ____
ROOT
ATOM      1  C   UNL     1      46.897   6.485  12.345  0.00  0.00    +0.000 A 
ATOM      2  C   UNL     1      47.811   7.369  11.770  0.00  0.00    +0.000 A 
ATOM      3  N   UNL     1      48.922   7.845  12.370  0.00  0.00    +0.000 NA
ATOM      4  C   UNL     1      49.124   7.444  13.643  0.00  0.00    +0.000 A 
ATOM      5  C   UNL     1      48.282   6.592  14.366  0.00  0.00    +0.000 A 
ATOM      6  C   UNL     1      47.144   6.128  13.678  0.00  0.00    +0.000 A 
ENDROOT
BRANCH   5   7
ATOM      7  C   UNL     1      48.591   6.209  15.760  0.00  0.00    +0.000 A 
ATOM      8  C   UNL     1      49.186   7.115  16.646  0.00  0.00    +0.000 A 
ATOM      9  C   UNL     1      49.461   6.725  17.948  0.00  0.00    +0.000 A 
ATOM     10  N   UNL     1      49.194   5.497  18.427  0.00  0.00    +0.000 NA
ATOM     11  C   UNL     1      48.621   4.599  17.582  0.00  0.00    +0.000 A 
ATOM     12  C   UNL     1      48.307   4.927  16.257  0.00  0.00    +0.000 A 
BRANCH  11  13
ATOM     13  C   UNL     1      48.321   3.192  18.077  0.00  0.00    +0.000 C 
ATOM     14  F   UNL     1      48.324   3.058  19.434  0.00  0.00    +0.000 F 
ATOM     15  F   UNL     1      47.102   2.746  17.661  0.00  0.00    +0.000 F 
ATOM     16  F   UNL     1      49.218   2.275  17.610  0.00  0.00    +0.000 F 
ENDBRANCH  11  13
ENDBRANCH   5   7
BRANCH   1  17
ATOM     17  N   UNL     1      45.731   6.020  11.713  0.00  0.00    +0.000 N 
ATOM     18  H   UNL     1      44.974   6.701  11.791  0.00  0.00    +0.000 HD
BRANCH  17  19
ATOM     19  C   UNL     1      45.308   4.652  12.032  0.00  0.00    +0.000 C 
BRANCH  19  21
ATOM     20  C   UNL     1      43.498   2.933  11.703  0.00  0.00    +0.000 C 
ATOM     21  C   UNL     1      44.306   4.052  11.006  0.00  0.00    +0.000 C 
ATOM     22  C   UNL     1      43.311   5.183  10.639  0.00  0.00    +0.000 C 
BRANCH  21  23
ATOM     23  C   UNL     1      45.010   3.575   9.723  0.00  0.00    +0.000 A 
ATOM     24  C   UNL     1      45.519   4.477   8.771  0.00  0.00    +0.000 A 
ATOM     25  C   UNL     1      46.192   4.035   7.628  0.00  0.00    +0.000 A 
ATOM     26  C   UNL     1      46.367   2.674   7.416  0.00  0.00    +0.000 A 
ATOM     27 CL   UNL     1      47.217   2.130   6.022  0.00  0.00    +0.000 Cl
ATOM     28  C   UNL     1      45.865   1.758   8.330  0.00  0.00    +0.000 A 
ATOM     29  C   UNL     1      45.192   2.199   9.470  0.00  0.00    +0.000 A 
ENDBRANCH  21  23
ENDBRANCH  19  21
ENDBRANCH  17  19
ENDBRANCH   1  17
TORSDOF 6
ENDMDL
MODEL 2
REMARK VINA RESULT:    -7.720      4.695      8.420
REMARK INTER + INTRA:         -11.234
REMARK INTER:                 -10.127
REMARK INTRA:                  -1.107
REMARK UNBOUND:                -0.806
REMARK  Name = 
REMARK  8 active torsions:
REMARK  status: ('A' for Active; 'I' for Inactive)
REMARK    1  A    between atoms: C_1  and  C_2
REMARK    2  A    between atoms: C_2  and  C_3
REMARK    3  A    between atoms: C_2  and  C_4
REMARK    4  A    between atoms: C_2  and  C_22
REMARK    5  A    between atoms: C_4  and  N_5
REMARK    6  A    between atoms: N_5  and  C_6
REMARK    7  A    between atoms: C_10  and  C_11
REMARK    8  A    between atoms: C_15  and  C_16
REMARK                            x       y       z     vdW  Elec       q    Type
REMARK                         _______ _______ _______ _____ _____    ______ ____
ROOT
ATOM      1  C   UNL     1      45.366   7.003  11.543  0.00  0.00    +0.000 A 
ATOM      2  C   UNL     1      44.002   7.207  11.758  0.00  0.00    +0.000 A 
ATOM      3  N   UNL     1      43.013   6.391  11.336  0.00  0.00    +0.000 NA
ATOM      4  C   UNL     1      43.400   5.316  10.620  0.00  0.00    +0.000 A 
ATOM      5  C   UNL     1      44.721   4.995  10.291  0.00  0.00    +0.000 A 
ATOM      6  C   UNL     1      45.703   5.885  10.767  0.00  0.00    +0.000 A 
ENDROOT
BRANCH   5   7
ATOM      7  C   UNL     1      45.045   3.788   9.500  0.00  0.00    +0.000 A 
ATOM      8  C   UNL     1      44.507   2.539   9.831  0.00  0.00    +0.000 A 
ATOM      9  C   UNL     1      44.829   1.426   9.068  0.00  0.00    +0.000 A 
ATOM     10  N   UNL     1      45.652   1.468   8.007  0.00  0.00    +0.000 NA
ATOM     11  C   UNL     1      46.190   2.670   7.669  0.00  0.00    +0.000 A 
ATOM     12  C   UNL     1      45.902   3.837   8.389  0.00  0.00    +0.000 A 
BRANCH  11  13
ATOM     13  C   UNL     1      47.144   2.758   6.487  0.00  0.00    +0.000 C 
ATOM     14  F   UNL     1      46.800   3.690   5.553  0.00  0.00    +0.000 F 
ATOM     15  F   UNL     1      48.416   3.065   6.870  0.00  0.00    +0.000 F 
ATOM     16  F   UNL     1      47.247   1.575   5.813  0.00  0.00    +0.000 F 
ENDBRANCH  11  13
ENDBRANCH   5   7
BRANCH   1  17
ATOM     17  N   UNL     1      46.381   7.878  11.968  0.00  0.00    +0.000 N 
ATOM     18  H   UNL     1      46.319   8.775  11.484  0.00  0.00    +0.000 HD
BRANCH  17  19
ATOM     19  C   UNL     1      47.744   7.338  12.006  0.00  0.00    +0.000 C 
BRANCH  19  21
ATOM     20  C   UNL     1      49.979   7.702  13.106  0.00  0.00    +0.000 C 
ATOM     21  C   UNL     1      48.463   7.550  13.368  0.00  0.00    +0.000 C 
ATOM     22  C   UNL     1      47.952   8.899  13.938  0.00  0.00    +0.000 C 
BRANCH  21  23
ATOM     23  C   UNL     1      48.135   6.432  14.373  0.00  0.00    +0.000 A 
ATOM     24  C   UNL     1      47.316   5.338  14.035  0.00  0.00    +0.000 A 
ATOM     25  C   UNL     1      47.057   4.308  14.943  0.00  0.00    +0.000 A 
ATOM     26  C   UNL     1      47.614   4.355  16.214  0.00  0.00    +0.000 A 
ATOM     27 CL   UNL     1      47.316   3.073  17.324  0.00  0.00    +0.000 Cl
ATOM     28  C   UNL     1      48.415   5.426  16.583  0.00  0.00    +0.000 A 
ATOM     29  C   UNL     1      48.674   6.456  15.678  0.00  0.00    +0.000 A 
ENDBRANCH  21  23
ENDBRANCH  19  21
ENDBRANCH  17  19
ENDBRANCH   1  17
TORSDOF 6
ENDMDL
MODEL 3
REMARK VINA RESULT:    -7.646      1.537      2.074
REMARK INTER + INTRA:         -11.134
REMARK INTER:                 -10.334
REMARK INTRA:                  -0.800
REMARK UNBOUND:                -0.806
REMARK  Name = 
REMARK  8 active torsions:
REMARK  status: ('A' for Active; 'I' for Inactive)
REMARK    1  A    between atoms: C_1  and  C_2
REMARK    2  A    between atoms: C_2  and  C_3
REMARK    3  A    between atoms: C_2  and  C_4
REMARK    4  A    between atoms: C_2  and  C_22
REMARK    5  A    between atoms: C_4  and  N_5
REMARK    6  A    between atoms: N_5  and  C_6
REMARK    7  A    between atoms: C_10  and  C_11
REMARK    8  A    between atoms: C_15  and  C_16
REMARK                            x       y       z     vdW  Elec       q    Type
REMARK                         _______ _______ _______ _____ _____    ______ ____
ROOT
ATOM      1  C   UNL     1      46.799   5.909  12.873  0.00  0.00    +0.000 A 
ATOM      2  C   UNL     1      47.641   7.016  12.753  0.00  0.00    +0.000 A 
ATOM      3  N   UNL     1      48.556   7.405  13.666  0.00  0.00    +0.000 NA
ATOM      4  C   UNL     1      48.617   6.666  14.793  0.00  0.00    +0.000 A 
ATOM      5  C   UNL     1      47.818   5.553  15.075  0.00  0.00    +0.000 A 
ATOM      6  C   UNL     1      46.889   5.199  14.078  0.00  0.00    +0.000 A 
ENDROOT
BRANCH   5   7
ATOM      7  C   UNL     1      47.963   4.805  16.343  0.00  0.00    +0.000 A 
ATOM      8  C   UNL     1      47.871   3.408  16.374  0.00  0.00    +0.000 A 
ATOM      9  C   UNL     1      48.013   2.736  17.579  0.00  0.00    +0.000 A 
ATOM     10  N   UNL     1      48.233   3.354  18.752  0.00  0.00    +0.000 NA
ATOM     11  C   UNL     1      48.321   4.711  18.746  0.00  0.00    +0.000 A 
ATOM     12  C   UNL     1      48.196   5.455  17.565  0.00  0.00    +0.000 A 
BRANCH  11  13
ATOM     13  C   UNL     1      48.548   5.452  20.055  0.00  0.00    +0.000 C 
ATOM     14  F   UNL     1      49.157   4.713  21.024  0.00  0.00    +0.000 F 
ATOM     15  F   UNL     1      49.319   6.565  19.893  0.00  0.00    +0.000 F 
ATOM     16  F   UNL     1      47.382   5.902  20.606  0.00  0.00    +0.000 F 
ENDBRANCH  11  13
ENDBRANCH   5   7
BRANCH   1  17
ATOM     17  N   UNL     1      45.834   5.533  11.923  0.00  0.00    +0.000 N 
ATOM     18  H   UNL     1      45.128   6.262  11.808  0.00  0.00    +0.000 HD
BRANCH  17  19
ATOM     19  C   UNL     1      45.256   4.192  12.064  0.00  0.00    +0.000 C 
BRANCH  19  21
ATOM     20  C   UNL     1      43.365   2.665  11.406  0.00  0.00    +0.000 C 
ATOM     21  C   UNL     1      44.286   3.805  10.912  0.00  0.00    +0.000 C 
ATOM     22  C   UNL     1      43.391   5.044  10.646  0.00  0.00    +0.000 C 
BRANCH  21  23
ATOM     23  C   UNL     1      45.040   3.452   9.618  0.00  0.00    +0.000 A 
ATOM     24  C   UNL     1      45.534   4.440   8.746  0.00  0.00    +0.000 A 
ATOM     25  C   UNL     1      46.252   4.110   7.593  0.00  0.00    +0.000 A 
ATOM     26  C   UNL     1      46.488   2.775   7.289  0.00  0.00    +0.000 A 
ATOM     27 CL   UNL     1      47.394   2.368   5.883  0.00  0.00    +0.000 Cl
ATOM     28  C   UNL     1      46.003   1.776   8.122  0.00  0.00    +0.000 A 
ATOM     29  C   UNL     1      45.285   2.106   9.272  0.00  0.00    +0.000 A 
ENDBRANCH  21  23
ENDBRANCH  19  21
ENDBRANCH  17  19
ENDBRANCH   1  17
TORSDOF 6
ENDMDL
MODEL 4
REMARK VINA RESULT:    -7.601      4.031      5.519
REMARK INTER + INTRA:         -11.074
REMARK INTER:                 -10.112
REMARK INTRA:                  -0.961
REMARK UNBOUND:                -0.806
REMARK  Name = 
REMARK  8 active torsions:
REMARK  status: ('A' for Active; 'I' for Inactive)
REMARK    1  A    between atoms: C_1  and  C_2
REMARK    2  A    between atoms: C_2  and  C_3
REMARK    3  A    between atoms: C_2  and  C_4
REMARK    4  A    between atoms: C_2  and  C_22
REMARK    5  A    between atoms: C_4  and  N_5
REMARK    6  A    between atoms: N_5  and  C_6
REMARK    7  A    between atoms: C_10  and  C_11
REMARK    8  A    between atoms: C_15  and  C_16
REMARK                            x       y       z     vdW  Elec       q    Type
REMARK                         _______ _______ _______ _____ _____    ______ ____
ROOT
ATOM      1  C   UNL     1      46.666   6.061  12.818  0.00  0.00    +0.000 A 
ATOM      2  C   UNL     1      47.145   5.637  14.059  0.00  0.00    +0.000 A 
ATOM      3  N   UNL     1      48.318   6.009  14.612  0.00  0.00    +0.000 NA
ATOM      4  C   UNL     1      49.087   6.832  13.869  0.00  0.00    +0.000 A 
ATOM      5  C   UNL     1      48.763   7.313  12.597  0.00  0.00    +0.000 A 
ATOM      6  C   UNL     1      47.522   6.890  12.081  0.00  0.00    +0.000 A 
ENDROOT
BRANCH   5   7
ATOM      7  C   UNL     1      49.674   8.215  11.861  0.00  0.00    +0.000 A 
ATOM      8  C   UNL     1      49.438   9.594  11.803  0.00  0.00    +0.000 A 
ATOM      9  C   UNL     1      50.314  10.413  11.106  0.00  0.00    +0.000 A 
ATOM     10  N   UNL     1      51.400   9.958  10.458  0.00  0.00    +0.000 NA
ATOM     11  C   UNL     1      51.646   8.621  10.498  0.00  0.00    +0.000 A 
ATOM     12  C   UNL     1      50.810   7.736  11.190  0.00  0.00    +0.000 A 
BRANCH  11  13
ATOM     13  C   UNL     1      52.853   8.061   9.761  0.00  0.00    +0.000 C 
ATOM     14  F   UNL     1      53.373   8.892   8.813  0.00  0.00    +0.000 F 
ATOM     15  F   UNL     1      53.883   7.767  10.604  0.00  0.00    +0.000 F 
ATOM     16  F   UNL     1      52.572   6.891   9.116  0.00  0.00    +0.000 F 
ENDBRANCH  11  13
ENDBRANCH   5   7
BRANCH   1  17
ATOM     17  N   UNL     1      45.452   5.642  12.246  0.00  0.00    +0.000 N 
ATOM     18  H   UNL     1      44.658   6.118  12.678  0.00  0.00    +0.000 HD
BRANCH  17  19
ATOM     19  C   UNL     1      45.249   4.195  12.112  0.00  0.00    +0.000 C 
BRANCH  19  21
ATOM     20  C   UNL     1      43.370   2.650  11.466  0.00  0.00    +0.000 C 
ATOM     21  C   UNL     1      44.271   3.804  10.970  0.00  0.00    +0.000 C 
ATOM     22  C   UNL     1      43.358   5.033  10.722  0.00  0.00    +0.000 C 
BRANCH  21  23
ATOM     23  C   UNL     1      45.014   3.468   9.664  0.00  0.00    +0.000 A 
ATOM     24  C   UNL     1      45.499   4.468   8.801  0.00  0.00    +0.000 A 
ATOM     25  C   UNL     1      46.207   4.153   7.638  0.00  0.00    +0.000 A 
ATOM     26  C   UNL     1      46.442   2.823   7.314  0.00  0.00    +0.000 A 
ATOM     27 CL   UNL     1      47.336   2.436   5.895  0.00  0.00    +0.000 Cl
ATOM     28  C   UNL     1      45.965   1.813   8.138  0.00  0.00    +0.000 A 
ATOM     29  C   UNL     1      45.257   2.127   9.298  0.00  0.00    +0.000 A 
ENDBRANCH  21  23
ENDBRANCH  19  21
ENDBRANCH  17  19
ENDBRANCH   1  17
TORSDOF 6
ENDMDL
MODEL 5
REMARK VINA RESULT:    -7.564      4.375      7.982
REMARK INTER + INTRA:         -11.023
REMARK INTER:                  -9.823
REMARK INTRA:                  -1.200
REMARK UNBOUND:                -0.806
REMARK  Name = 
REMARK  8 active torsions:
REMARK  status: ('A' for Active; 'I' for Inactive)
REMARK    1  A    between atoms: C_1  and  C_2
REMARK    2  A    between atoms: C_2  and  C_3
REMARK    3  A    between atoms: C_2  and  C_4
REMARK    4  A    between atoms: C_2  and  C_22
REMARK    5  A    between atoms: C_4  and  N_5
REMARK    6  A    between atoms: N_5  and  C_6
REMARK    7  A    between atoms: C_10  and  C_11
REMARK    8  A    between atoms: C_15  and  C_16
REMARK                            x       y       z     vdW  Elec       q    Type
REMARK                         _______ _______ _______ _____ _____    ______ ____
ROOT
ATOM      1  C   UNL     1      46.089   8.494  13.089  0.00  0.00    +0.000 A 
ATOM      2  C   UNL     1      45.447   9.482  12.341  0.00  0.00    +0.000 A 
ATOM      3  N   UNL     1      44.516   9.262  11.389  0.00  0.00    +0.000 NA
ATOM      4  C   UNL     1      44.226   7.970  11.135  0.00  0.00    +0.000 A 
ATOM      5  C   UNL     1      44.808   6.869  11.772  0.00  0.00    +0.000 A 
ATOM      6  C   UNL     1      45.767   7.170  12.759  0.00  0.00    +0.000 A 
ENDROOT
BRANCH   5   7
ATOM      7  C   UNL     1      44.420   5.485  11.423  0.00  0.00    +0.000 A 
ATOM      8  C   UNL     1      43.595   4.730  12.265  0.00  0.00    +0.000 A 
ATOM      9  C   UNL     1      43.248   3.435  11.908  0.00  0.00    +0.000 A 
ATOM     10  N   UNL     1      43.668   2.839  10.780  0.00  0.00    +0.000 NA
ATOM     11  C   UNL     1      44.474   3.552   9.949  0.00  0.00    +0.000 A 
ATOM     12  C   UNL     1      44.858   4.868  10.241  0.00  0.00    +0.000 A 
BRANCH  11  13
ATOM     13  C   UNL     1      44.990   2.908   8.671  0.00  0.00    +0.000 C 
ATOM     14  F   UNL     1      44.311   3.266   7.544  0.00  0.00    +0.000 F 
ATOM     15  F   UNL     1      46.298   3.208   8.431  0.00  0.00    +0.000 F 
ATOM     16  F   UNL     1      44.938   1.544   8.719  0.00  0.00    +0.000 F 
ENDBRANCH  11  13
ENDBRANCH   5   7
BRANCH   1  17
ATOM     17  N   UNL     1      47.075   8.741  14.060  0.00  0.00    +0.000 N 
ATOM     18  H   UNL     1      47.225   9.743  14.184  0.00  0.00    +0.000 HD
BRANCH  17  19
ATOM     19  C   UNL     1      48.326   7.984  13.938  0.00  0.00    +0.000 C 
BRANCH  19  21
ATOM     20  C   UNL     1      50.553   7.770  15.091  0.00  0.00    +0.000 C 
ATOM     21  C   UNL     1      49.022   7.704  15.298  0.00  0.00    +0.000 C 
ATOM     22  C   UNL     1      48.632   8.866  16.248  0.00  0.00    +0.000 C 
BRANCH  21  23
ATOM     23  C   UNL     1      48.557   6.376  15.923  0.00  0.00    +0.000 A 
ATOM     24  C   UNL     1      48.823   6.047  17.265  0.00  0.00    +0.000 A 
ATOM     25  C   UNL     1      48.361   4.856  17.833  0.00  0.00    +0.000 A 
ATOM     26  C   UNL     1      47.622   3.968  17.063  0.00  0.00    +0.000 A 
ATOM     27 CL   UNL     1      47.031   2.514  17.770  0.00  0.00    +0.000 Cl
ATOM     28  C   UNL     1      47.353   4.257  15.733  0.00  0.00    +0.000 A 
ATOM     29  C   UNL     1      47.815   5.445  15.164  0.00  0.00    +0.000 A 
ENDBRANCH  21  23
ENDBRANCH  19  21
ENDBRANCH  17  19
ENDBRANCH   1  17
TORSDOF 6
ENDMDL
MODEL 6
REMARK VINA RESULT:    -7.420      4.612      8.589
REMARK INTER + INTRA:         -10.828
REMARK INTER:                  -9.967
REMARK INTRA:                  -0.861
REMARK UNBOUND:                -0.806
REMARK  Name = 
REMARK  8 active torsions:
REMARK  status: ('A' for Active; 'I' for Inactive)
REMARK    1  A    between atoms: C_1  and  C_2
REMARK    2  A    between atoms: C_2  and  C_3
REMARK    3  A    between atoms: C_2  and  C_4
REMARK    4  A    between atoms: C_2  and  C_22
REMARK    5  A    between atoms: C_4  and  N_5
REMARK    6  A    between atoms: N_5  and  C_6
REMARK    7  A    between atoms: C_10  and  C_11
REMARK    8  A    between atoms: C_15  and  C_16
REMARK                            x       y       z     vdW  Elec       q    Type
REMARK                         _______ _______ _______ _____ _____    ______ ____
ROOT
ATOM      1  C   UNL     1      47.549   5.728  15.054  0.00  0.00    +0.000 A 
ATOM      2  C   UNL     1      48.251   6.644  14.269  0.00  0.00    +0.000 A 
ATOM      3  N   UNL     1      48.058   6.852  12.950  0.00  0.00    +0.000 NA
ATOM      4  C   UNL     1      47.129   6.073  12.359  0.00  0.00    +0.000 A 
ATOM      5  C   UNL     1      46.371   5.088  13.000  0.00  0.00    +0.000 A 
ATOM      6  C   UNL     1      46.618   4.928  14.378  0.00  0.00    +0.000 A 
ENDROOT
BRANCH   5   7
ATOM      7  C   UNL     1      45.372   4.285  12.263  0.00  0.00    +0.000 A 
ATOM      8  C   UNL     1      44.113   4.013  12.812  0.00  0.00    +0.000 A 
ATOM      9  C   UNL     1      43.198   3.258  12.094  0.00  0.00    +0.000 A 
ATOM     10  N   UNL     1      43.448   2.751  10.875  0.00  0.00    +0.000 NA
ATOM     11  C   UNL     1      44.667   2.999  10.325  0.00  0.00    +0.000 A 
ATOM     12  C   UNL     1      45.637   3.761  10.989  0.00  0.00    +0.000 A 
BRANCH  11  13
ATOM     13  C   UNL     1      44.999   2.425   8.955  0.00  0.00    +0.000 C 
ATOM     14  F   UNL     1      44.437   3.096   7.910  0.00  0.00    +0.000 F 
ATOM     15  F   UNL     1      46.341   2.411   8.712  0.00  0.00    +0.000 F 
ATOM     16  F   UNL     1      44.598   1.127   8.824  0.00  0.00    +0.000 F 
ENDBRANCH  11  13
ENDBRANCH   5   7
BRANCH   1  17
ATOM     17  N   UNL     1      47.781   5.506  16.423  0.00  0.00    +0.000 N 
ATOM     18  H   UNL     1      47.437   6.286  16.985  0.00  0.00    +0.000 HD
BRANCH  17  19
ATOM     19  C   UNL     1      49.132   5.077  16.803  0.00  0.00    +0.000 C 
BRANCH  19  21
ATOM     20  C   UNL     1      48.703   4.365  19.179  0.00  0.00    +0.000 C 
ATOM     21  C   UNL     1      49.152   3.872  17.784  0.00  0.00    +0.000 C 
ATOM     22  C   UNL     1      48.083   2.867  17.281  0.00  0.00    +0.000 C 
BRANCH  21  23
ATOM     23  C   UNL     1      50.521   3.169  17.806  0.00  0.00    +0.000 A 
ATOM     24  C   UNL     1      51.679   3.802  18.294  0.00  0.00    +0.000 A 
ATOM     25  C   UNL     1      52.909   3.141  18.347  0.00  0.00    +0.000 A 
ATOM     26  C   UNL     1      53.003   1.827  17.908  0.00  0.00    +0.000 A 
ATOM     27 CL   UNL     1      54.513   1.004  17.997  0.00  0.00    +0.000 Cl
ATOM     28  C   UNL     1      51.882   1.178  17.410  0.00  0.00    +0.000 A 
ATOM     29  C   UNL     1      50.654   1.838  17.355  0.00  0.00    +0.000 A 
ENDBRANCH  21  23
ENDBRANCH  19  21
ENDBRANCH  17  19
ENDBRANCH   1  17
TORSDOF 6
ENDMDL
MODEL 7
REMARK VINA RESULT:    -7.207      1.972      2.624
REMARK INTER + INTRA:         -10.541
REMARK INTER:                  -9.715
REMARK INTRA:                  -0.825
REMARK UNBOUND:                -0.806
REMARK  Name = 
REMARK  8 active torsions:
REMARK  status: ('A' for Active; 'I' for Inactive)
REMARK    1  A    between atoms: C_1  and  C_2
REMARK    2  A    between atoms: C_2  and  C_3
REMARK    3  A    between atoms: C_2  and  C_4
REMARK    4  A    between atoms: C_2  and  C_22
REMARK    5  A    between atoms: C_4  and  N_5
REMARK    6  A    between atoms: N_5  and  C_6
REMARK    7  A    between atoms: C_10  and  C_11
REMARK    8  A    between atoms: C_15  and  C_16
REMARK                            x       y       z     vdW  Elec       q    Type
REMARK                         _______ _______ _______ _____ _____    ______ ____
ROOT
ATOM      1  C   UNL     1      46.853   4.945  14.028  0.00  0.00    +0.000 A 
ATOM      2  C   UNL     1      47.576   5.920  13.339  0.00  0.00    +0.000 A 
ATOM      3  N   UNL     1      48.613   6.623  13.839  0.00  0.00    +0.000 NA
ATOM      4  C   UNL     1      48.934   6.369  15.124  0.00  0.00    +0.000 A 
ATOM      5  C   UNL     1      48.284   5.450  15.955  0.00  0.00    +0.000 A 
ATOM      6  C   UNL     1      47.214   4.746  15.368  0.00  0.00    +0.000 A 
ENDROOT
BRANCH   5   7
ATOM      7  C   UNL     1      48.713   5.240  17.354  0.00  0.00    +0.000 A 
ATOM      8  C   UNL     1      47.804   5.342  18.414  0.00  0.00    +0.000 A 
ATOM      9  C   UNL     1      48.239   5.138  19.715  0.00  0.00    +0.000 A 
ATOM     10  N   UNL     1      49.511   4.846  20.035  0.00  0.00    +0.000 NA
ATOM     11  C   UNL     1      50.412   4.747  19.022  0.00  0.00    +0.000 A 
ATOM     12  C   UNL     1      50.042   4.932  17.683  0.00  0.00    +0.000 A 
BRANCH  11  13
ATOM     13  C   UNL     1      51.867   4.439  19.342  0.00  0.00    +0.000 C 
ATOM     14  F   UNL     1      52.359   3.329  18.723  0.00  0.00    +0.000 F 
ATOM     15  F   UNL     1      52.701   5.461  18.994  0.00  0.00    +0.000 F 
ATOM     16  F   UNL     1      52.076   4.244  20.677  0.00  0.00    +0.000 F 
ENDBRANCH  11  13
ENDBRANCH   5   7
BRANCH   1  17
ATOM     17  N   UNL     1      45.758   4.239  13.499  0.00  0.00    +0.000 N 
ATOM     18  H   UNL     1      46.066   3.405  12.997  0.00  0.00    +0.000 HD
BRANCH  17  19
ATOM     19  C   UNL     1      44.765   5.023  12.755  0.00  0.00    +0.000 C 
BRANCH  19  21
ATOM     20  C   UNL     1      43.499   2.864  12.487  0.00  0.00    +0.000 C 
ATOM     21  C   UNL     1      43.905   4.175  11.776  0.00  0.00    +0.000 C 
ATOM     22  C   UNL     1      42.607   4.980  11.509  0.00  0.00    +0.000 C 
BRANCH  21  23
ATOM     23  C   UNL     1      44.624   3.936  10.436  0.00  0.00    +0.000 A 
ATOM     24  C   UNL     1      44.630   2.678   9.805  0.00  0.00    +0.000 A 
ATOM     25  C   UNL     1      45.252   2.480   8.569  0.00  0.00    +0.000 A 
ATOM     26  C   UNL     1      45.884   3.545   7.939  0.00  0.00    +0.000 A 
ATOM     27 CL   UNL     1      46.628   3.308   6.405  0.00  0.00    +0.000 Cl
ATOM     28  C   UNL     1      45.907   4.795   8.542  0.00  0.00    +0.000 A 
ATOM     29  C   UNL     1      45.288   4.992   9.777  0.00  0.00    +0.000 A 
ENDBRANCH  21  23
ENDBRANCH  19  21
ENDBRANCH  17  19
ENDBRANCH   1  17
TORSDOF 6
ENDMDL
MODEL 8
REMARK VINA RESULT:    -7.189      4.284      7.365
REMARK INTER + INTRA:         -10.517
REMARK INTER:                  -9.199
REMARK INTRA:                  -1.318
REMARK UNBOUND:                -0.806
REMARK  Name = 
REMARK  8 active torsions:
REMARK  status: ('A' for Active; 'I' for Inactive)
REMARK    1  A    between atoms: C_1  and  C_2
REMARK    2  A    between atoms: C_2  and  C_3
REMARK    3  A    between atoms: C_2  and  C_4
REMARK    4  A    between atoms: C_2  and  C_22
REMARK    5  A    between atoms: C_4  and  N_5
REMARK    6  A    between atoms: N_5  and  C_6
REMARK    7  A    between atoms: C_10  and  C_11
REMARK    8  A    between atoms: C_15  and  C_16
REMARK                            x       y       z     vdW  Elec       q    Type
REMARK                         _______ _______ _______ _____ _____    ______ ____
ROOT
ATOM      1  C   UNL     1      48.117   6.645  14.160  0.00  0.00    +0.000 A 
ATOM      2  C   UNL     1      48.376   5.790  15.233  0.00  0.00    +0.000 A 
ATOM      3  N   UNL     1      47.737   4.627  15.477  0.00  0.00    +0.000 NA
ATOM      4  C   UNL     1      46.747   4.305  14.619  0.00  0.00    +0.000 A 
ATOM      5  C   UNL     1      46.345   5.074  13.522  0.00  0.00    +0.000 A 
ATOM      6  C   UNL     1      47.058   6.273  13.321  0.00  0.00    +0.000 A 
ENDROOT
BRANCH   5   7
ATOM      7  C   UNL     1      45.246   4.634  12.636  0.00  0.00    +0.000 A 
ATOM      8  C   UNL     1      43.919   4.997  12.893  0.00  0.00    +0.000 A 
ATOM      9  C   UNL     1      42.911   4.569  12.042  0.00  0.00    +0.000 A 
ATOM     10  N   UNL     1      43.129   3.803  10.959  0.00  0.00    +0.000 NA
ATOM     11  C   UNL     1      44.411   3.435  10.692  0.00  0.00    +0.000 A 
ATOM     12  C   UNL     1      45.480   3.838  11.504  0.00  0.00    +0.000 A 
BRANCH  11  13
ATOM     13  C   UNL     1      44.701   2.551   9.489  0.00  0.00    +0.000 C 
ATOM     14  F   UNL     1      46.016   2.233   9.324  0.00  0.00    +0.000 F 
ATOM     15  F   UNL     1      44.034   1.363   9.547  0.00  0.00    +0.000 F 
ATOM     16  F   UNL     1      44.306   3.126   8.315  0.00  0.00    +0.000 F 
ENDBRANCH  11  13
ENDBRANCH   5   7
BRANCH   1  17
ATOM     17  N   UNL     1      48.776   7.866  13.936  0.00  0.00    +0.000 N 
ATOM     18  H   UNL     1      49.635   7.927  14.485  0.00  0.00    +0.000 HD
BRANCH  17  19
ATOM     19  C   UNL     1      47.959   9.082  14.013  0.00  0.00    +0.000 C 
BRANCH  19  21
ATOM     20  C   UNL     1      48.515  11.324  13.012  0.00  0.00    +0.000 C 
ATOM     21  C   UNL     1      47.954   9.917  12.702  0.00  0.00    +0.000 C 
ATOM     22  C   UNL     1      48.944   9.226  11.728  0.00  0.00    +0.000 C 
BRANCH  21  23
ATOM     23  C   UNL     1      46.561   9.956  12.048  0.00  0.00    +0.000 A 
ATOM     24  C   UNL     1      45.742   8.814  11.964  0.00  0.00    +0.000 A 
ATOM     25  C   UNL     1      44.463   8.869  11.404  0.00  0.00    +0.000 A 
ATOM     26  C   UNL     1      43.978  10.074  10.913  0.00  0.00    +0.000 A 
ATOM     27 CL   UNL     1      42.393  10.147  10.246  0.00  0.00    +0.000 Cl
ATOM     28  C   UNL     1      44.766  11.215  10.969  0.00  0.00    +0.000 A 
ATOM     29  C   UNL     1      46.043  11.161  11.527  0.00  0.00    +0.000 A 
ENDBRANCH  21  23
ENDBRANCH  19  21
ENDBRANCH  17  19
ENDBRANCH   1  17
TORSDOF 6
ENDMDL
MODEL 9
REMARK VINA RESULT:    -7.126      4.160      4.939
REMARK INTER + INTRA:         -10.432
REMARK INTER:                  -9.340
REMARK INTRA:                  -1.091
REMARK UNBOUND:                -0.806
REMARK  Name = 
REMARK  8 active torsions:
REMARK  status: ('A' for Active; 'I' for Inactive)
REMARK    1  A    between atoms: C_1  and  C_2
REMARK    2  A    between atoms: C_2  and  C_3
REMARK    3  A    between atoms: C_2  and  C_4
REMARK    4  A    between atoms: C_2  and  C_22
REMARK    5  A    between atoms: C_4  and  N_5
REMARK    6  A    between atoms: N_5  and  C_6
REMARK    7  A    between atoms: C_10  and  C_11
REMARK    8  A    between atoms: C_15  and  C_16
REMARK                            x       y       z     vdW  Elec       q    Type
REMARK                         _______ _______ _______ _____ _____    ______ ____
ROOT
ATOM      1  C   UNL     1      45.121   7.045  12.409  0.00  0.00    +0.000 A 
ATOM      2  C   UNL     1      44.590   8.267  11.994  0.00  0.00    +0.000 A 
ATOM      3  N   UNL     1      45.299   9.395  11.780  0.00  0.00    +0.000 NA
ATOM      4  C   UNL     1      46.622   9.318  12.030  0.00  0.00    +0.000 A 
ATOM      5  C   UNL     1      47.295   8.179  12.484  0.00  0.00    +0.000 A 
ATOM      6  C   UNL     1      46.496   7.035  12.681  0.00  0.00    +0.000 A 
ENDROOT
BRANCH   5   7
ATOM      7  C   UNL     1      48.753   8.194  12.728  0.00  0.00    +0.000 A 
ATOM      8  C   UNL     1      49.270   8.246  14.028  0.00  0.00    +0.000 A 
ATOM      9  C   UNL     1      50.643   8.256  14.222  0.00  0.00    +0.000 A 
ATOM     10  N   UNL     1      51.535   8.226  13.218  0.00  0.00    +0.000 NA
ATOM     11  C   UNL     1      51.055   8.179  11.946  0.00  0.00    +0.000 A 
ATOM     12  C   UNL     1      49.681   8.157  11.675  0.00  0.00    +0.000 A 
BRANCH  11  13
ATOM     13  C   UNL     1      52.030   8.164  10.778  0.00  0.00    +0.000 C 
ATOM     14  F   UNL     1      53.342   8.263  11.136  0.00  0.00    +0.000 F 
ATOM     15  F   UNL     1      51.931   7.025  10.036  0.00  0.00    +0.000 F 
ATOM     16  F   UNL     1      51.805   9.186   9.900  0.00  0.00    +0.000 F 
ENDBRANCH  11  13
ENDBRANCH   5   7
BRANCH   1  17
ATOM     17  N   UNL     1      44.364   5.886  12.652  0.00  0.00    +0.000 N 
ATOM     18  H   UNL     1      44.829   5.277  13.327  0.00  0.00    +0.000 HD
BRANCH  17  19
ATOM     19  C   UNL     1      43.866   5.164  11.475  0.00  0.00    +0.000 C 
BRANCH  19  21
ATOM     20  C   UNL     1      45.435   3.479  12.492  0.00  0.00    +0.000 C 
ATOM     21  C   UNL     1      44.451   3.732  11.327  0.00  0.00    +0.000 C 
ATOM     22  C   UNL     1      43.266   2.746  11.496  0.00  0.00    +0.000 C 
BRANCH  21  23
ATOM     23  C   UNL     1      45.086   3.509   9.943  0.00  0.00    +0.000 A 
ATOM     24  C   UNL     1      45.224   2.226   9.381  0.00  0.00    +0.000 A 
ATOM     25  C   UNL     1      45.767   2.038   8.106  0.00  0.00    +0.000 A 
ATOM     26  C   UNL     1      46.184   3.138   7.367  0.00  0.00    +0.000 A 
ATOM     27 CL   UNL     1      46.828   2.908   5.788  0.00  0.00    +0.000 Cl
ATOM     28  C   UNL     1      46.073   4.415   7.898  0.00  0.00    +0.000 A 
ATOM     29  C   UNL     1      45.534   4.603   9.171  0.00  0.00    +0.000 A 
ENDBRANCH  21  23
ENDBRANCH  19  21
ENDBRANCH  17  19
ENDBRANCH   1  17
TORSDOF 6
ENDMDL
