MODEL 1
REMARK VINA RESULT:    -7.893      0.000      0.000
REMARK INTER + INTRA:         -10.393
REMARK INTER:                  -9.738
REMARK INTRA:                  -0.654
REMARK UNBOUND:                -0.654
REMARK  Name = 
REMARK  4 active torsions:
REMARK  status: ('A' for Active; 'I' for Inactive)
REMARK    1  A    between atoms: C_2  and  C_3
REMARK    2  A    between atoms: C_6  and  C_7
REMARK    3  A    between atoms: C_7  and  C_8
REMARK    4  A    between atoms: C_12  and  C_13
REMARK                            x       y       z     vdW  Elec       q    Type
REMARK                         _______ _______ _______ _____ _____    ______ ____
ROOT
ATOM      1  C   UNL     1      45.400   5.039  11.961  0.00  0.00    +0.000 A 
ATOM      2  C   UNL     1      45.697   4.351  13.148  0.00  0.00    +0.000 A 
ATOM      3  C   UNL     1      46.718   4.780  13.991  0.00  0.00    +0.000 A 
ATOM      4  C   UNL     1      47.462   5.915  13.664  0.00  0.00    +0.000 A 
ATOM      5  C   UNL     1      47.164   6.674  12.520  0.00  0.00    +0.000 A 
ATOM      6  C   UNL     1      46.094   6.241  11.714  0.00  0.00    +0.000 A 
ENDROOT
BRANCH   5   7
ATOM      7  C   UNL     1      48.001   7.817  12.121  0.00  0.00    +0.000 A 
ATOM      8  C   UNL     1      47.534   9.125  12.114  0.00  0.00    +0.000 A 
ATOM      9  N   UNL     1      48.268  10.209  11.778  0.00  0.00    +0.000 NA
ATOM     10  C   UNL     1      49.541   9.963  11.444  0.00  0.00    +0.000 A 
ATOM     11  N   UNL     1      50.126   8.757  11.421  0.00  0.00    +0.000 NA
ATOM     12  C   UNL     1      49.335   7.714  11.761  0.00  0.00    +0.000 A 
ENDBRANCH   5   7
BRANCH   1  13
ATOM     13  C   UNL     1      44.528   4.395  10.879  0.00  0.00    +0.000 C 
ATOM     14  C   UNL     1      43.214   3.753  11.339  0.00  0.00    +0.000 C 
ATOM     15  C   UNL     1      43.172   5.082  10.666  0.00  0.00    +0.000 C 
BRANCH  13  19
ATOM     16  C   UNL     1      46.638   2.697   7.445  0.00  0.00    +0.000 A 
ATOM     17  C   UNL     1      46.538   4.083   7.594  0.00  0.00    +0.000 A 
ATOM     18  C   UNL     1      45.825   4.626   8.676  0.00  0.00    +0.000 A 
ATOM     19  C   UNL     1      45.206   3.810   9.636  0.00  0.00    +0.000 A 
ATOM     20  C   UNL     1      45.296   2.418   9.443  0.00  0.00    +0.000 A 
ATOM     21  C   UNL     1      46.004   1.864   8.371  0.00  0.00    +0.000 A 
BRANCH  16  23
ATOM     22  N   UNL     1      48.005   1.668   5.490  0.00  0.00    +0.000 NA
ATOM     23  C   UNL     1      47.391   2.137   6.360  0.00  0.00    +0.000 C 
ENDBRANCH  16  23
ENDBRANCH  13  19
ENDBRANCH   1  13
TORSDOF 4
ENDMDL
MODEL 2
REMARK VINA RESULT:    -7.458      2.169      3.049
REMARK INTER + INTRA:          -9.856
REMARK INTER:                  -9.386
REMARK INTRA:                  -0.470
REMARK UNBOUND:                -0.654
REMARK  Name = 
REMARK  4 active torsions:
REMARK  status: ('A' for Active; 'I' for Inactive)
REMARK    1  A    between atoms: C_2  and  C_3
REMARK    2  A    between atoms: C_6  and  C_7
REMARK    3  A    between atoms: C_7  and  C_8
REMARK    4  A    between atoms: C_12  and  C_13
REMARK                            x       y       z     vdW  Elec       q    Type
REMARK                         _______ _______ _______ _____ _____    ______ ____
ROOT
ATOM      1  C   UNL     1      45.378   5.707  11.492  0.00  0.00    +0.000 A 
ATOM      2  C   UNL     1      44.990   7.049  11.359  0.00  0.00    +0.000 A 
ATOM      3  C   UNL     1      45.458   8.023  12.238  0.00  0.00    +0.000 A 
ATOM      4  C   UNL     1      46.332   7.670  13.267  0.00  0.00    +0.000 A 
ATOM      5  C   UNL     1      46.799   6.353  13.405  0.00  0.00    +0.000 A 
ATOM      6  C   UNL     1      46.345   5.402  12.472  0.00  0.00    +0.000 A 
ENDROOT
BRANCH   5   7
ATOM      7  C   UNL     1      47.646   5.956  14.542  0.00  0.00    +0.000 A 
ATOM      8  C   UNL     1      48.708   6.727  14.993  0.00  0.00    +0.000 A 
ATOM      9  N   UNL     1      49.500   6.419  16.044  0.00  0.00    +0.000 NA
ATOM     10  C   UNL     1      49.198   5.280  16.679  0.00  0.00    +0.000 A 
ATOM     11  N   UNL     1      48.196   4.447  16.362  0.00  0.00    +0.000 NA
ATOM     12  C   UNL     1      47.446   4.811  15.296  0.00  0.00    +0.000 A 
ENDBRANCH   5   7
BRANCH   1  13
ATOM     13  C   UNL     1      44.618   4.596  10.760  0.00  0.00    +0.000 C 
ATOM     14  C   UNL     1      43.659   3.745  11.600  0.00  0.00    +0.000 C 
ATOM     15  C   UNL     1      43.098   4.798  10.707  0.00  0.00    +0.000 C 
BRANCH  13  19
ATOM     16  C   UNL     1      46.649   2.687   7.390  0.00  0.00    +0.000 A 
ATOM     17  C   UNL     1      46.577   4.080   7.471  0.00  0.00    +0.000 A 
ATOM     18  C   UNL     1      45.888   4.691   8.532  0.00  0.00    +0.000 A 
ATOM     19  C   UNL     1      45.268   3.936   9.540  0.00  0.00    +0.000 A 
ATOM     20  C   UNL     1      45.330   2.535   9.417  0.00  0.00    +0.000 A 
ATOM     21  C   UNL     1      46.012   1.914   8.365  0.00  0.00    +0.000 A 
BRANCH  16  23
ATOM     22  N   UNL     1      47.976   1.564   5.460  0.00  0.00    +0.000 NA
ATOM     23  C   UNL     1      47.377   2.059   6.326  0.00  0.00    +0.000 C 
ENDBRANCH  16  23
ENDBRANCH  13  19
ENDBRANCH   1  13
TORSDOF 4
ENDMDL
MODEL 3
REMARK VINA RESULT:    -7.129      1.797      2.484
REMARK INTER + INTRA:          -9.451
REMARK INTER:                  -9.120
REMARK INTRA:                  -0.331
REMARK UNBOUND:                -0.654
REMARK  Name = 
REMARK  4 active torsions:
REMARK  status: ('A' for Active; 'I' for Inactive)
REMARK    1  A    between atoms: C_2  and  C_3
REMARK    2  A    between atoms: C_6  and  C_7
REMARK    3  A    between atoms: C_7  and  C_8
REMARK    4  A    between atoms: C_12  and  C_13
REMARK                            x       y       z     vdW  Elec       q    Type
REMARK                         _______ _______ _______ _____ _____    ______ ____
ROOT
ATOM      1  C   UNL     1      45.114   6.525  11.489  0.00  0.00    +0.000 A 
ATOM      2  C   UNL     1      44.467   7.763  11.351  0.00  0.00    +0.000 A 
ATOM      3  C   UNL     1      44.993   8.917  11.925  0.00  0.00    +0.000 A 
ATOM      4  C   UNL     1      46.185   8.855  12.648  0.00  0.00    +0.000 A 
ATOM      5  C   UNL     1      46.903   7.653  12.763  0.00  0.00    +0.000 A 
ATOM      6  C   UNL     1      46.370   6.515  12.130  0.00  0.00    +0.000 A 
ENDROOT
BRANCH   5   7
ATOM      7  C   UNL     1      48.111   7.561  13.599  0.00  0.00    +0.000 A 
ATOM      8  C   UNL     1      48.312   6.542  14.520  0.00  0.00    +0.000 A 
ATOM      9  N   UNL     1      49.412   6.400  15.293  0.00  0.00    +0.000 NA
ATOM     10  C   UNL     1      50.362   7.327  15.119  0.00  0.00    +0.000 A 
ATOM     11  N   UNL     1      50.308   8.353  14.260  0.00  0.00    +0.000 NA
ATOM     12  C   UNL     1      49.178   8.442  13.521  0.00  0.00    +0.000 A 
ENDBRANCH   5   7
BRANCH   1  13
ATOM     13  C   UNL     1      44.384   5.218  11.161  0.00  0.00    +0.000 C 
ATOM     14  C   UNL     1      43.639   4.535  12.313  0.00  0.00    +0.000 C 
ATOM     15  C   UNL     1      42.857   5.295  11.297  0.00  0.00    +0.000 C 
BRANCH  13  19
ATOM     16  C   UNL     1      46.121   2.639   8.086  0.00  0.00    +0.000 A 
ATOM     17  C   UNL     1      46.238   4.028   7.988  0.00  0.00    +0.000 A 
ATOM     18  C   UNL     1      45.644   4.857   8.955  0.00  0.00    +0.000 A 
ATOM     19  C   UNL     1      44.933   4.327  10.043  0.00  0.00    +0.000 A 
ATOM     20  C   UNL     1      44.804   2.926  10.099  0.00  0.00    +0.000 A 
ATOM     21  C   UNL     1      45.390   2.090   9.143  0.00  0.00    +0.000 A 
BRANCH  16  23
ATOM     22  N   UNL     1      47.255   1.084   6.342  0.00  0.00    +0.000 NA
ATOM     23  C   UNL     1      46.750   1.788   7.118  0.00  0.00    +0.000 C 
ENDBRANCH  16  23
ENDBRANCH  13  19
ENDBRANCH   1  13
TORSDOF 4
ENDMDL
MODEL 4
REMARK VINA RESULT:    -6.252      1.497      6.554
REMARK INTER + INTRA:          -8.368
REMARK INTER:                  -8.023
REMARK INTRA:                  -0.345
REMARK UNBOUND:                -0.654
REMARK  Name = 
REMARK  4 active torsions:
REMARK  status: ('A' for Active; 'I' for Inactive)
REMARK    1  A    between atoms: C_2  and  C_3
REMARK    2  A    between atoms: C_6  and  C_7
REMARK    3  A    between atoms: C_7  and  C_8
REMARK    4  A    between atoms: C_12  and  C_13
REMARK                            x       y       z     vdW  Elec       q    Type
REMARK                         _______ _______ _______ _____ _____    ______ ____
ROOT
ATOM      1  C   UNL     1      44.523   3.928  11.152  0.00  0.00    +0.000 A 
ATOM      2  C   UNL     1      43.587   2.926  11.454  0.00  0.00    +0.000 A 
ATOM      3  C   UNL     1      43.463   1.794  10.653  0.00  0.00    +0.000 A 
ATOM      4  C   UNL     1      44.280   1.639   9.533  0.00  0.00    +0.000 A 
ATOM      5  C   UNL     1      45.274   2.582   9.223  0.00  0.00    +0.000 A 
ATOM      6  C   UNL     1      45.407   3.691  10.079  0.00  0.00    +0.000 A 
ENDROOT
BRANCH   5   7
ATOM      7  C   UNL     1      46.077   2.472   7.994  0.00  0.00    +0.000 A 
ATOM      8  C   UNL     1      46.126   3.475   7.035  0.00  0.00    +0.000 A 
ATOM      9  N   UNL     1      46.864   3.432   5.903  0.00  0.00    +0.000 NA
ATOM     10  C   UNL     1      47.599   2.326   5.737  0.00  0.00    +0.000 A 
ATOM     11  N   UNL     1      47.659   1.289   6.584  0.00  0.00    +0.000 NA
ATOM     12  C   UNL     1      46.892   1.393   7.693  0.00  0.00    +0.000 A 
ENDBRANCH   5   7
BRANCH   1  13
ATOM     13  C   UNL     1      44.435   5.307  11.813  0.00  0.00    +0.000 C 
ATOM     14  C   UNL     1      43.311   6.233  11.334  0.00  0.00    +0.000 C 
ATOM     15  C   UNL     1      43.162   5.532  12.641  0.00  0.00    +0.000 C 
BRANCH  13  19
ATOM     16  C   UNL     1      48.208   7.074  13.142  0.00  0.00    +0.000 A 
ATOM     17  C   UNL     1      47.699   5.939  13.779  0.00  0.00    +0.000 A 
ATOM     18  C   UNL     1      46.467   5.397  13.378  0.00  0.00    +0.000 A 
ATOM     19  C   UNL     1      45.719   5.961  12.331  0.00  0.00    +0.000 A 
ATOM     20  C   UNL     1      46.240   7.122  11.729  0.00  0.00    +0.000 A 
ATOM     21  C   UNL     1      47.466   7.671  12.119  0.00  0.00    +0.000 A 
BRANCH  16  23
ATOM     22  N   UNL     1      50.503   8.065  13.847  0.00  0.00    +0.000 NA
ATOM     23  C   UNL     1      49.479   7.613  13.528  0.00  0.00    +0.000 C 
ENDBRANCH  16  23
ENDBRANCH  13  19
ENDBRANCH   1  13
TORSDOF 4
ENDMDL
MODEL 5
REMARK VINA RESULT:    -6.019      2.803      7.151
REMARK INTER + INTRA:          -8.081
REMARK INTER:                  -7.833
REMARK INTRA:                  -0.248
REMARK UNBOUND:                -0.654
REMARK  Name = 
REMARK  4 active torsions:
REMARK  status: ('A' for Active; 'I' for Inactive)
REMARK    1  A    between atoms: C_2  and  C_3
REMARK    2  A    between atoms: C_6  and  C_7
REMARK    3  A    between atoms: C_7  and  C_8
REMARK    4  A    between atoms: C_12  and  C_13
REMARK                            x       y       z     vdW  Elec       q    Type
REMARK                         _______ _______ _______ _____ _____    ______ ____
ROOT
ATOM      1  C   UNL     1      45.497   5.600  11.835  0.00  0.00    +0.000 A 
ATOM      2  C   UNL     1      44.112   5.810  11.911  0.00  0.00    +0.000 A 
ATOM      3  C   UNL     1      43.246   5.236  10.984  0.00  0.00    +0.000 A 
ATOM      4  C   UNL     1      43.752   4.433   9.962  0.00  0.00    +0.000 A 
ATOM      5  C   UNL     1      45.123   4.142   9.877  0.00  0.00    +0.000 A 
ATOM      6  C   UNL     1      45.966   4.698  10.858  0.00  0.00    +0.000 A 
ENDROOT
BRANCH   5   7
ATOM      7  C   UNL     1      45.675   3.372   8.750  0.00  0.00    +0.000 A 
ATOM      8  C   UNL     1      46.161   3.971   7.597  0.00  0.00    +0.000 A 
ATOM      9  N   UNL     1      46.697   3.311   6.546  0.00  0.00    +0.000 NA
ATOM     10  C   UNL     1      46.756   1.980   6.670  0.00  0.00    +0.000 A 
ATOM     11  N   UNL     1      46.338   1.272   7.729  0.00  0.00    +0.000 NA
ATOM     12  C   UNL     1      45.806   1.993   8.743  0.00  0.00    +0.000 A 
ENDBRANCH   5   7
BRANCH   1  13
ATOM     13  C   UNL     1      46.469   6.484  12.623  0.00  0.00    +0.000 C 
ATOM     14  C   UNL     1      47.259   7.527  11.826  0.00  0.00    +0.000 C 
ATOM     15  C   UNL     1      46.096   7.973  12.644  0.00  0.00    +0.000 C 
BRANCH  13  19
ATOM     16  C   UNL     1      48.168   4.958  16.354  0.00  0.00    +0.000 A 
ATOM     17  C   UNL     1      48.662   6.135  15.784  0.00  0.00    +0.000 A 
ATOM     18  C   UNL     1      48.144   6.601  14.565  0.00  0.00    +0.000 A 
ATOM     19  C   UNL     1      47.118   5.919  13.891  0.00  0.00    +0.000 A 
ATOM     20  C   UNL     1      46.661   4.721  14.471  0.00  0.00    +0.000 A 
ATOM     21  C   UNL     1      47.169   4.246  15.685  0.00  0.00    +0.000 A 
BRANCH  16  23
ATOM     22  N   UNL     1      49.071   4.130  18.644  0.00  0.00    +0.000 NA
ATOM     23  C   UNL     1      48.672   4.494  17.613  0.00  0.00    +0.000 C 
ENDBRANCH  16  23
ENDBRANCH  13  19
ENDBRANCH   1  13
TORSDOF 4
ENDMDL
MODEL 6
REMARK VINA RESULT:    -5.856      4.898      8.193
REMARK INTER + INTRA:          -7.880
REMARK INTER:                  -7.232
REMARK INTRA:                  -0.647
REMARK UNBOUND:                -0.654
REMARK  Name = 
REMARK  4 active torsions:
REMARK  status: ('A' for Active; 'I' for Inactive)
REMARK    1  A    between atoms: C_2  and  C_3
REMARK    2  A    between atoms: C_6  and  C_7
REMARK    3  A    between atoms: C_7  and  C_8
REMARK    4  A    between atoms: C_12  and  C_13
REMARK                            x       y       z     vdW  Elec       q    Type
REMARK                         _______ _______ _______ _____ _____    ______ ____
ROOT
ATOM      1  C   UNL     1      49.006   6.650  15.665  0.00  0.00    +0.000 A 
ATOM      2  C   UNL     1      49.879   7.421  14.882  0.00  0.00    +0.000 A 
ATOM      3  C   UNL     1      49.729   7.495  13.500  0.00  0.00    +0.000 A 
ATOM      4  C   UNL     1      48.696   6.799  12.872  0.00  0.00    +0.000 A 
ATOM      5  C   UNL     1      47.758   6.063  13.617  0.00  0.00    +0.000 A 
ATOM      6  C   UNL     1      47.909   6.048  15.016  0.00  0.00    +0.000 A 
ENDROOT
BRANCH   5   7
ATOM      7  C   UNL     1      46.722   5.253  12.956  0.00  0.00    +0.000 A 
ATOM      8  C   UNL     1      46.016   5.696  11.846  0.00  0.00    +0.000 A 
ATOM      9  N   UNL     1      45.073   4.983  11.190  0.00  0.00    +0.000 NA
ATOM     10  C   UNL     1      44.839   3.756  11.673  0.00  0.00    +0.000 A 
ATOM     11  N   UNL     1      45.453   3.197  12.724  0.00  0.00    +0.000 NA
ATOM     12  C   UNL     1      46.381   3.966  13.339  0.00  0.00    +0.000 A 
ENDBRANCH   5   7
BRANCH   1  13
ATOM     13  C   UNL     1      49.360   6.293  17.112  0.00  0.00    +0.000 C 
ATOM     14  C   UNL     1      49.595   7.462  18.076  0.00  0.00    +0.000 C 
ATOM     15  C   UNL     1      48.306   6.718  18.144  0.00  0.00    +0.000 C 
BRANCH  13  19
ATOM     16  C   UNL     1      51.555   2.557  17.703  0.00  0.00    +0.000 A 
ATOM     17  C   UNL     1      50.182   2.533  17.447  0.00  0.00    +0.000 A 
ATOM     18  C   UNL     1      49.470   3.736  17.298  0.00  0.00    +0.000 A 
ATOM     19  C   UNL     1      50.106   4.984  17.389  0.00  0.00    +0.000 A 
ATOM     20  C   UNL     1      51.483   4.979  17.679  0.00  0.00    +0.000 A 
ATOM     21  C   UNL     1      52.203   3.789  17.829  0.00  0.00    +0.000 A 
BRANCH  16  23
ATOM     22  N   UNL     1      52.885   0.339  17.941  0.00  0.00    +0.000 NA
ATOM     23  C   UNL     1      52.292   1.333  17.825  0.00  0.00    +0.000 C 
ENDBRANCH  16  23
ENDBRANCH  13  19
ENDBRANCH   1  13
TORSDOF 4
ENDMDL
MODEL 7
REMARK VINA RESULT:    -5.689      3.164      7.708
REMARK INTER + INTRA:          -7.674
REMARK INTER:                  -7.451
REMARK INTRA:                  -0.223
REMARK UNBOUND:                -0.654
REMARK  Name = 
REMARK  4 active torsions:
REMARK  status: ('A' for Active; 'I' for Inactive)
REMARK    1  A    between atoms: C_2  and  C_3
REMARK    2  A    between atoms: C_6  and  C_7
REMARK    3  A    between atoms: C_7  and  C_8
REMARK    4  A    between atoms: C_12  and  C_13
REMARK                            x       y       z     vdW  Elec       q    Type
REMARK                         _______ _______ _______ _____ _____    ______ ____
ROOT
ATOM      1  C   UNL     1      47.172   7.471  12.411  0.00  0.00    +0.000 A 
ATOM      2  C   UNL     1      46.212   8.470  12.635  0.00  0.00    +0.000 A 
ATOM      3  C   UNL     1      44.916   8.346  12.141  0.00  0.00    +0.000 A 
ATOM      4  C   UNL     1      44.553   7.211  11.415  0.00  0.00    +0.000 A 
ATOM      5  C   UNL     1      45.457   6.155  11.216  0.00  0.00    +0.000 A 
ATOM      6  C   UNL     1      46.744   6.290  11.770  0.00  0.00    +0.000 A 
ENDROOT
BRANCH   5   7
ATOM      7  C   UNL     1      45.110   4.998  10.375  0.00  0.00    +0.000 A 
ATOM      8  C   UNL     1      45.575   4.846   9.076  0.00  0.00    +0.000 A 
ATOM      9  N   UNL     1      45.305   3.794   8.272  0.00  0.00    +0.000 NA
ATOM     10  C   UNL     1      44.535   2.840   8.811  0.00  0.00    +0.000 A 
ATOM     11  N   UNL     1      44.030   2.849  10.052  0.00  0.00    +0.000 NA
ATOM     12  C   UNL     1      44.333   3.933  10.802  0.00  0.00    +0.000 A 
ENDBRANCH   5   7
BRANCH   1  13
ATOM     13  C   UNL     1      48.660   7.746  12.648  0.00  0.00    +0.000 C 
ATOM     14  C   UNL     1      49.582   7.660  11.427  0.00  0.00    +0.000 C 
ATOM     15  C   UNL     1      49.191   9.002  11.944  0.00  0.00    +0.000 C 
BRANCH  13  19
ATOM     16  C   UNL     1      50.468   6.633  16.472  0.00  0.00    +0.000 A 
ATOM     17  C   UNL     1      49.131   6.322  16.208  0.00  0.00    +0.000 A 
ATOM     18  C   UNL     1      48.540   6.717  14.996  0.00  0.00    +0.000 A 
ATOM     19  C   UNL     1      49.263   7.416  14.017  0.00  0.00    +0.000 A 
ATOM     20  C   UNL     1      50.598   7.743  14.322  0.00  0.00    +0.000 A 
ATOM     21  C   UNL     1      51.198   7.356  15.525  0.00  0.00    +0.000 A 
BRANCH  16  23
ATOM     22  N   UNL     1      51.593   5.847  18.677  0.00  0.00    +0.000 NA
ATOM     23  C   UNL     1      51.084   6.206  17.694  0.00  0.00    +0.000 C 
ENDBRANCH  16  23
ENDBRANCH  13  19
ENDBRANCH   1  13
TORSDOF 4
ENDMDL
MODEL 8
REMARK VINA RESULT:    -5.515      4.047      6.186
REMARK INTER + INTRA:          -7.459
REMARK INTER:                  -7.117
REMARK INTRA:                  -0.342
REMARK UNBOUND:                -0.654
REMARK  Name = 
REMARK  4 active torsions:
REMARK  status: ('A' for Active; 'I' for Inactive)
REMARK    1  A    between atoms: C_2  and  C_3
REMARK    2  A    between atoms: C_6  and  C_7
REMARK    3  A    between atoms: C_7  and  C_8
REMARK    4  A    between atoms: C_12  and  C_13
REMARK                            x       y       z     vdW  Elec       q    Type
REMARK                         _______ _______ _______ _____ _____    ______ ____
ROOT
ATOM      1  C   UNL     1      48.466   7.724  14.237  0.00  0.00    +0.000 A 
ATOM      2  C   UNL     1      48.440   9.033  14.743  0.00  0.00    +0.000 A 
ATOM      3  C   UNL     1      48.501   9.275  16.113  0.00  0.00    +0.000 A 
ATOM      4  C   UNL     1      48.597   8.208  17.006  0.00  0.00    +0.000 A 
ATOM      5  C   UNL     1      48.690   6.883  16.548  0.00  0.00    +0.000 A 
ATOM      6  C   UNL     1      48.673   6.675  15.156  0.00  0.00    +0.000 A 
ENDROOT
BRANCH   5   7
ATOM      7  C   UNL     1      48.698   5.748  17.485  0.00  0.00    +0.000 A 
ATOM      8  C   UNL     1      48.943   5.895  18.843  0.00  0.00    +0.000 A 
ATOM      9  N   UNL     1      48.940   4.890  19.747  0.00  0.00    +0.000 NA
ATOM     10  C   UNL     1      48.663   3.675  19.256  0.00  0.00    +0.000 A 
ATOM     11  N   UNL     1      48.394   3.390  17.975  0.00  0.00    +0.000 NA
ATOM     12  C   UNL     1      48.421   4.440  17.121  0.00  0.00    +0.000 A 
ENDBRANCH   5   7
BRANCH   1  13
ATOM     13  C   UNL     1      48.062   7.436  12.788  0.00  0.00    +0.000 C 
ATOM     14  C   UNL     1      48.275   8.563  11.772  0.00  0.00    +0.000 C 
ATOM     15  C   UNL     1      49.232   7.421  11.795  0.00  0.00    +0.000 C 
BRANCH  13  19
ATOM     16  C   UNL     1      44.939   4.498  11.922  0.00  0.00    +0.000 A 
ATOM     17  C   UNL     1      45.056   5.652  11.142  0.00  0.00    +0.000 A 
ATOM     18  C   UNL     1      46.033   6.614  11.447  0.00  0.00    +0.000 A 
ATOM     19  C   UNL     1      46.921   6.449  12.522  0.00  0.00    +0.000 A 
ATOM     20  C   UNL     1      46.760   5.293  13.310  0.00  0.00    +0.000 A 
ATOM     21  C   UNL     1      45.791   4.327  13.017  0.00  0.00    +0.000 A 
BRANCH  16  23
ATOM     22  N   UNL     1      43.181   2.676  11.344  0.00  0.00    +0.000 NA
ATOM     23  C   UNL     1      43.964   3.499  11.597  0.00  0.00    +0.000 C 
ENDBRANCH  16  23
ENDBRANCH  13  19
ENDBRANCH   1  13
TORSDOF 4
ENDMDL
MODEL 9
REMARK VINA RESULT:    -5.457      2.496      6.824
REMARK INTER + INTRA:          -7.388
REMARK INTER:                  -6.836
REMARK INTRA:                  -0.552
REMARK UNBOUND:                -0.654
REMARK  Name = 
REMARK  4 active torsions:
REMARK  status: ('A' for Active; 'I' for Inactive)
REMARK    1  A    between atoms: C_2  and  C_3
REMARK    2  A    between atoms: C_6  and  C_7
REMARK    3  A    between atoms: C_7  and  C_8
REMARK    4  A    between atoms: C_12  and  C_13
REMARK                            x       y       z     vdW  Elec       q    Type
REMARK                         _______ _______ _______ _____ _____    ______ ____
ROOT
ATOM      1  C   UNL     1      46.976   7.783  12.835  0.00  0.00    +0.000 A 
ATOM      2  C   UNL     1      46.079   8.861  12.804  0.00  0.00    +0.000 A 
ATOM      3  C   UNL     1      44.899   8.794  12.067  0.00  0.00    +0.000 A 
ATOM      4  C   UNL     1      44.591   7.638  11.349  0.00  0.00    +0.000 A 
ATOM      5  C   UNL     1      45.425   6.509  11.397  0.00  0.00    +0.000 A 
ATOM      6  C   UNL     1      46.585   6.592  12.189  0.00  0.00    +0.000 A 
ENDROOT
BRANCH   5   7
ATOM      7  C   UNL     1      45.154   5.321  10.570  0.00  0.00    +0.000 A 
ATOM      8  C   UNL     1      44.282   4.314  10.962  0.00  0.00    +0.000 A 
ATOM      9  N   UNL     1      43.983   3.218  10.231  0.00  0.00    +0.000 NA
ATOM     10  C   UNL     1      44.584   3.140   9.037  0.00  0.00    +0.000 A 
ATOM     11  N   UNL     1      45.434   4.041   8.527  0.00  0.00    +0.000 NA
ATOM     12  C   UNL     1      45.696   5.111   9.312  0.00  0.00    +0.000 A 
ENDBRANCH   5   7
BRANCH   1  13
ATOM     13  C   UNL     1      48.407   7.968  13.350  0.00  0.00    +0.000 C 
ATOM     14  C   UNL     1      48.565   8.432  14.802  0.00  0.00    +0.000 C 
ATOM     15  C   UNL     1      48.806   6.999  14.471  0.00  0.00    +0.000 C 
BRANCH  13  19
ATOM     16  C   UNL     1      51.684   9.041  10.659  0.00  0.00    +0.000 A 
ATOM     17  C   UNL     1      51.009  10.032  11.378  0.00  0.00    +0.000 A 
ATOM     18  C   UNL     1      49.931   9.690  12.210  0.00  0.00    +0.000 A 
ATOM     19  C   UNL     1      49.505   8.360  12.356  0.00  0.00    +0.000 A 
ATOM     20  C   UNL     1      50.181   7.387  11.596  0.00  0.00    +0.000 A 
ATOM     21  C   UNL     1      51.257   7.715  10.764  0.00  0.00    +0.000 A 
BRANCH  16  23
ATOM     22  N   UNL     1      53.723   9.642   9.167  0.00  0.00    +0.000 NA
ATOM     23  C   UNL     1      52.805   9.381   9.832  0.00  0.00    +0.000 C 
ENDBRANCH  16  23
ENDBRANCH  13  19
ENDBRANCH   1  13
TORSDOF 4
ENDMDL
