MODEL 1
REMARK VINA RESULT:    -8.225      0.000      0.000
REMARK INTER + INTRA:         -11.865
REMARK INTER:                 -11.110
REMARK INTRA:                  -0.755
REMARK UNBOUND:                -0.755
REMARK  Name = 
REMARK  6 active torsions:
REMARK  status: ('A' for Active; 'I' for Inactive)
REMARK    1  A    between atoms: C_2  and  C_20
REMARK    2  A    between atoms: N_3  and  C_4
REMARK    3  A    between atoms: C_4  and  C_5
REMARK    4  A    between atoms: C_8  and  C_9
REMARK    5  A    between atoms: C_9  and  C_10
REMARK    6  A    between atoms: C_10  and  C_11
REMARK                            x       y       z     vdW  Elec       q    Type
REMARK                         _______ _______ _______ _____ _____    ______ ____
ROOT
ATOM      1  C   UNL     1      48.230   6.996  13.431  0.00  0.00    +0.000 C 
ENDROOT
BRANCH   1   2
ATOM      2  C   UNL     1      47.162   6.178  12.754  0.00  0.00    +0.000 A 
ATOM      3  C   UNL     1      46.648   6.574  11.514  0.00  0.00    +0.000 A 
ATOM      4  C   UNL     1      45.682   5.801  10.862  0.00  0.00    +0.000 A 
ATOM      5  C   UNL     1      45.208   4.614  11.438  0.00  0.00    +0.000 A 
ATOM      6  C   UNL     1      45.694   4.240  12.698  0.00  0.00    +0.000 A 
ATOM      7  C   UNL     1      46.656   5.017  13.353  0.00  0.00    +0.000 A 
BRANCH   5   8
ATOM      8  C   UNL     1      44.162   3.773  10.743  0.00  0.00    +0.000 C 
BRANCH   8   9
ATOM      9  C   UNL     1      44.761   2.702   9.825  0.00  0.00    +0.000 C 
BRANCH   9  10
ATOM     10  C   UNL     1      45.126   3.266   8.460  0.00  0.00    +0.000 C 
ATOM     11  O   UNL     1      44.633   4.304   8.025  0.00  0.00    +0.000 OA
ATOM     12  N   UNL     1      46.086   2.572   7.766  0.00  0.00    +0.000 N 
ATOM     13  C   UNL     1      46.636   3.033   6.524  0.00  0.00    +0.000 C 
ATOM     14  C   UNL     1      47.901   2.214   6.435  0.00  0.00    +0.000 C 
ATOM     15  O   UNL     1      47.632   0.991   7.149  0.00  0.00    +0.000 OA
ATOM     16  C   UNL     1      46.480   1.209   7.972  0.00  0.00    +0.000 C 
ENDBRANCH   9  10
ENDBRANCH   8   9
ENDBRANCH   5   8
ENDBRANCH   1   2
BRANCH   1  19
ATOM     17  O   UNL     1      50.354   6.863  15.267  0.00  0.00    +0.000 OA
ATOM     18  C   UNL     1      49.206   6.923  15.693  0.00  0.00    +0.000 C 
ATOM     19  N   UNL     1      48.112   6.952  14.865  0.00  0.00    +0.000 N 
ATOM     20  H   UNL     1      47.200   7.169  15.249  0.00  0.00    +0.000 HD
BRANCH  18  21
ATOM     21  C   UNL     1      48.924   6.903  17.135  0.00  0.00    +0.000 A 
ATOM     22  C   UNL     1      48.521   8.072  17.771  0.00  0.00    +0.000 A 
ATOM     23  S   UNL     1      48.219   7.875  19.437  0.00  0.00    +0.000 S 
ATOM     24  C   UNL     1      48.575   6.212  19.360  0.00  0.00    +0.000 A 
ATOM     25  N   UNL     1      48.466   5.423  20.462  0.00  0.00    +0.000 NA
ATOM     26  C   UNL     1      48.721   4.175  20.251  0.00  0.00    +0.000 A 
ATOM     27  N   UNL     1      49.097   3.645  19.044  0.00  0.00    +0.000 N 
ATOM     28  C   UNL     1      49.305   4.421  17.928  0.00  0.00    +0.000 A 
ATOM     29  O   UNL     1      49.794   3.944  16.905  0.00  0.00    +0.000 OA
ATOM     30  C   UNL     1      48.959   5.821  18.089  0.00  0.00    +0.000 A 
ATOM     31  H   UNL     1      49.324   2.668  18.955  0.00  0.00    +0.000 HD
ENDBRANCH  18  21
ENDBRANCH   1  19
TORSDOF 6
ENDMDL
MODEL 2
REMARK VINA RESULT:    -7.715      1.767      2.435
REMARK INTER + INTRA:         -11.176
REMARK INTER:                  -9.897
REMARK INTRA:                  -1.278
REMARK UNBOUND:                -0.755
REMARK  Name = 
REMARK  6 active torsions:
REMARK  status: ('A' for Active; 'I' for Inactive)
REMARK    1  A    between atoms: C_2  and  C_20
REMARK    2  A    between atoms: N_3  and  C_4
REMARK    3  A    between atoms: C_4  and  C_5
REMARK    4  A    between atoms: C_8  and  C_9
REMARK    5  A    between atoms: C_9  and  C_10
REMARK    6  A    between atoms: C_10  and  C_11
REMARK                            x       y       z     vdW  Elec       q    Type
REMARK                         _______ _______ _______ _____ _____    ______ ____
ROOT
ATOM      1  C   UNL     1      48.892   7.030  13.738  0.00  0.00    +0.000 C 
ENDROOT
BRANCH   1   2
ATOM      2  C   UNL     1      47.488   6.542  13.491  0.00  0.00    +0.000 A 
ATOM      3  C   UNL     1      47.113   5.248  13.870  0.00  0.00    +0.000 A 
ATOM      4  C   UNL     1      45.803   4.799  13.676  0.00  0.00    +0.000 A 
ATOM      5  C   UNL     1      44.839   5.636  13.098  0.00  0.00    +0.000 A 
ATOM      6  C   UNL     1      45.226   6.916  12.681  0.00  0.00    +0.000 A 
ATOM      7  C   UNL     1      46.539   7.363  12.869  0.00  0.00    +0.000 A 
BRANCH   5   8
ATOM      8  C   UNL     1      43.421   5.159  12.881  0.00  0.00    +0.000 C 
BRANCH   8   9
ATOM      9  C   UNL     1      43.055   5.006  11.402  0.00  0.00    +0.000 C 
BRANCH   9  10
ATOM     10  C   UNL     1      43.526   3.675  10.837  0.00  0.00    +0.000 C 
ATOM     11  O   UNL     1      43.096   2.598  11.244  0.00  0.00    +0.000 OA
ATOM     12  N   UNL     1      44.423   3.751   9.800  0.00  0.00    +0.000 N 
ATOM     13  C   UNL     1      44.872   2.601   9.071  0.00  0.00    +0.000 C 
ATOM     14  C   UNL     1      45.429   3.237   7.820  0.00  0.00    +0.000 C 
ATOM     15  O   UNL     1      45.872   4.552   8.210  0.00  0.00    +0.000 OA
ATOM     16  C   UNL     1      45.255   4.869   9.463  0.00  0.00    +0.000 C 
ENDBRANCH   9  10
ENDBRANCH   8   9
ENDBRANCH   5   8
ENDBRANCH   1   2
BRANCH   1  19
ATOM     17  O   UNL     1      48.261   8.901  15.738  0.00  0.00    +0.000 OA
ATOM     18  C   UNL     1      48.874   7.886  16.050  0.00  0.00    +0.000 C 
ATOM     19  N   UNL     1      49.254   6.942  15.129  0.00  0.00    +0.000 N 
ATOM     20  H   UNL     1      49.608   6.047  15.447  0.00  0.00    +0.000 HD
BRANCH  18  21
ATOM     21  C   UNL     1      49.301   7.644  17.434  0.00  0.00    +0.000 A 
ATOM     22  C   UNL     1      50.125   8.567  18.070  0.00  0.00    +0.000 A 
ATOM     23  S   UNL     1      50.515   8.146  19.675  0.00  0.00    +0.000 S 
ATOM     24  C   UNL     1      49.562   6.737  19.593  0.00  0.00    +0.000 A 
ATOM     25  N   UNL     1      49.426   5.922  20.674  0.00  0.00    +0.000 NA
ATOM     26  C   UNL     1      48.639   4.916  20.486  0.00  0.00    +0.000 A 
ATOM     27  N   UNL     1      47.994   4.635  19.311  0.00  0.00    +0.000 N 
ATOM     28  C   UNL     1      48.174   5.381  18.170  0.00  0.00    +0.000 A 
ATOM     29  O   UNL     1      47.710   5.014  17.092  0.00  0.00    +0.000 OA
ATOM     30  C   UNL     1      48.989   6.568  18.344  0.00  0.00    +0.000 A 
ATOM     31  H   UNL     1      47.426   3.807  19.216  0.00  0.00    +0.000 HD
ENDBRANCH  18  21
ENDBRANCH   1  19
TORSDOF 6
ENDMDL
MODEL 3
REMARK VINA RESULT:    -7.421      4.610      9.549
REMARK INTER + INTRA:         -10.778
REMARK INTER:                  -9.946
REMARK INTRA:                  -0.832
REMARK UNBOUND:                -0.755
REMARK  Name = 
REMARK  6 active torsions:
REMARK  status: ('A' for Active; 'I' for Inactive)
REMARK    1  A    between atoms: C_2  and  C_20
REMARK    2  A    between atoms: N_3  and  C_4
REMARK    3  A    between atoms: C_4  and  C_5
REMARK    4  A    between atoms: C_8  and  C_9
REMARK    5  A    between atoms: C_9  and  C_10
REMARK    6  A    between atoms: C_10  and  C_11
REMARK                            x       y       z     vdW  Elec       q    Type
REMARK                         _______ _______ _______ _____ _____    ______ ____
ROOT
ATOM      1  C   UNL     1      47.220   3.332  16.853  0.00  0.00    +0.000 C 
ENDROOT
BRANCH   1   2
ATOM      2  C   UNL     1      48.699   3.360  17.134  0.00  0.00    +0.000 A 
ATOM      3  C   UNL     1      49.327   4.557  17.497  0.00  0.00    +0.000 A 
ATOM      4  C   UNL     1      50.693   4.586  17.794  0.00  0.00    +0.000 A 
ATOM      5  C   UNL     1      51.462   3.416  17.732  0.00  0.00    +0.000 A 
ATOM      6  C   UNL     1      50.842   2.226  17.328  0.00  0.00    +0.000 A 
ATOM      7  C   UNL     1      49.476   2.199  17.025  0.00  0.00    +0.000 A 
BRANCH   5   8
ATOM      8  C   UNL     1      52.941   3.436  18.048  0.00  0.00    +0.000 C 
BRANCH   8   9
ATOM      9  C   UNL     1      53.692   2.221  17.498  0.00  0.00    +0.000 C 
BRANCH   9  10
ATOM     10  C   UNL     1      54.213   1.325  18.611  0.00  0.00    +0.000 C 
ATOM     11  O   UNL     1      54.311   1.711  19.774  0.00  0.00    +0.000 OA
ATOM     12  N   UNL     1      54.514   0.036  18.248  0.00  0.00    +0.000 N 
ATOM     13  C   UNL     1      54.897  -0.972  19.194  0.00  0.00    +0.000 C 
ATOM     14  C   UNL     1      54.662  -2.233  18.399  0.00  0.00    +0.000 C 
ATOM     15  O   UNL     1      54.856  -1.872  17.017  0.00  0.00    +0.000 OA
ATOM     16  C   UNL     1      54.781  -0.444  16.924  0.00  0.00    +0.000 C 
ENDBRANCH   9  10
ENDBRANCH   8   9
ENDBRANCH   5   8
ENDBRANCH   1   2
BRANCH   1  19
ATOM     17  O   UNL     1      47.267   3.032  14.059  0.00  0.00    +0.000 OA
ATOM     18  C   UNL     1      46.858   4.086  14.534  0.00  0.00    +0.000 C 
ATOM     19  N   UNL     1      46.838   4.327  15.885  0.00  0.00    +0.000 N 
ATOM     20  H   UNL     1      46.342   5.135  16.241  0.00  0.00    +0.000 HD
BRANCH  18  21
ATOM     21  C   UNL     1      46.418   5.193  13.674  0.00  0.00    +0.000 A 
ATOM     22  C   UNL     1      47.283   6.251  13.421  0.00  0.00    +0.000 A 
ATOM     23  S   UNL     1      46.626   7.443  12.395  0.00  0.00    +0.000 S 
ATOM     24  C   UNL     1      45.176   6.567  12.218  0.00  0.00    +0.000 A 
ATOM     25  N   UNL     1      44.179   7.023  11.414  0.00  0.00    +0.000 NA
ATOM     26  C   UNL     1      43.156   6.238  11.337  0.00  0.00    +0.000 A 
ATOM     27  N   UNL     1      43.029   5.050  12.006  0.00  0.00    +0.000 N 
ATOM     28  C   UNL     1      43.974   4.597  12.897  0.00  0.00    +0.000 A 
ATOM     29  O   UNL     1      43.761   3.611  13.601  0.00  0.00    +0.000 OA
ATOM     30  C   UNL     1      45.178   5.402  12.966  0.00  0.00    +0.000 A 
ATOM     31  H   UNL     1      42.185   4.504  11.937  0.00  0.00    +0.000 HD
ENDBRANCH  18  21
ENDBRANCH   1  19
TORSDOF 6
ENDMDL
MODEL 4
REMARK VINA RESULT:    -7.323      2.834      8.779
REMARK INTER + INTRA:         -10.646
REMARK INTER:                  -9.306
REMARK INTRA:                  -1.340
REMARK UNBOUND:                -0.755
REMARK  Name = 
REMARK  6 active torsions:
REMARK  status: ('A' for Active; 'I' for Inactive)
REMARK    1  A    between atoms: C_2  and  C_20
REMARK    2  A    between atoms: N_3  and  C_4
REMARK    3  A    between atoms: C_4  and  C_5
REMARK    4  A    between atoms: C_8  and  C_9
REMARK    5  A    between atoms: C_9  and  C_10
REMARK    6  A    between atoms: C_10  and  C_11
REMARK                            x       y       z     vdW  Elec       q    Type
REMARK                         _______ _______ _______ _____ _____    ______ ____
ROOT
ATOM      1  C   UNL     1      47.801   7.912  11.922  0.00  0.00    +0.000 C 
ENDROOT
BRANCH   1   2
ATOM      2  C   UNL     1      48.383   8.049  13.304  0.00  0.00    +0.000 A 
ATOM      3  C   UNL     1      47.748   8.848  14.262  0.00  0.00    +0.000 A 
ATOM      4  C   UNL     1      48.262   8.952  15.558  0.00  0.00    +0.000 A 
ATOM      5  C   UNL     1      49.424   8.260  15.925  0.00  0.00    +0.000 A 
ATOM      6  C   UNL     1      50.082   7.493  14.953  0.00  0.00    +0.000 A 
ATOM      7  C   UNL     1      49.571   7.394  13.654  0.00  0.00    +0.000 A 
BRANCH   5   8
ATOM      8  C   UNL     1      49.990   8.368  17.323  0.00  0.00    +0.000 C 
BRANCH   8   9
ATOM      9  C   UNL     1      50.097   7.018  18.036  0.00  0.00    +0.000 C 
BRANCH   9  10
ATOM     10  C   UNL     1      48.736   6.359  18.210  0.00  0.00    +0.000 C 
ATOM     11  O   UNL     1      47.786   6.942  18.727  0.00  0.00    +0.000 OA
ATOM     12  N   UNL     1      48.618   5.090  17.700  0.00  0.00    +0.000 N 
ATOM     13  C   UNL     1      47.376   4.376  17.667  0.00  0.00    +0.000 C 
ATOM     14  C   UNL     1      47.673   3.305  16.645  0.00  0.00    +0.000 C 
ATOM     15  O   UNL     1      49.092   3.068  16.722  0.00  0.00    +0.000 OA
ATOM     16  C   UNL     1      49.686   4.181  17.402  0.00  0.00    +0.000 C 
ENDBRANCH   9  10
ENDBRANCH   8   9
ENDBRANCH   5   8
ENDBRANCH   1   2
BRANCH   1  19
ATOM     17  O   UNL     1      45.003   7.654  11.956  0.00  0.00    +0.000 OA
ATOM     18  C   UNL     1      45.687   6.655  11.764  0.00  0.00    +0.000 C 
ATOM     19  N   UNL     1      47.059   6.688  11.770  0.00  0.00    +0.000 N 
ATOM     20  H   UNL     1      47.580   5.882  11.445  0.00  0.00    +0.000 HD
BRANCH  18  21
ATOM     21  C   UNL     1      45.074   5.333  11.577  0.00  0.00    +0.000 A 
ATOM     22  C   UNL     1      44.389   4.738  12.631  0.00  0.00    +0.000 A 
ATOM     23  S   UNL     1      43.727   3.216  12.245  0.00  0.00    +0.000 S 
ATOM     24  C   UNL     1      44.296   3.315  10.643  0.00  0.00    +0.000 A 
ATOM     25  N   UNL     1      44.028   2.329   9.745  0.00  0.00    +0.000 NA
ATOM     26  C   UNL     1      44.480   2.555   8.557  0.00  0.00    +0.000 A 
ATOM     27  N   UNL     1      45.194   3.664   8.188  0.00  0.00    +0.000 N 
ATOM     28  C   UNL     1      45.563   4.639   9.085  0.00  0.00    +0.000 A 
ATOM     29  O   UNL     1      46.337   5.539   8.761  0.00  0.00    +0.000 OA
ATOM     30  C   UNL     1      45.017   4.475  10.419  0.00  0.00    +0.000 A 
ATOM     31  H   UNL     1      45.557   3.759   7.252  0.00  0.00    +0.000 HD
ENDBRANCH  18  21
ENDBRANCH   1  19
TORSDOF 6
ENDMDL
MODEL 5
REMARK VINA RESULT:    -7.093      3.279      5.026
REMARK INTER + INTRA:         -10.335
REMARK INTER:                  -9.477
REMARK INTRA:                  -0.858
REMARK UNBOUND:                -0.755
REMARK  Name = 
REMARK  6 active torsions:
REMARK  status: ('A' for Active; 'I' for Inactive)
REMARK    1  A    between atoms: C_2  and  C_20
REMARK    2  A    between atoms: N_3  and  C_4
REMARK    3  A    between atoms: C_4  and  C_5
REMARK    4  A    between atoms: C_8  and  C_9
REMARK    5  A    between atoms: C_9  and  C_10
REMARK    6  A    between atoms: C_10  and  C_11
REMARK                            x       y       z     vdW  Elec       q    Type
REMARK                         _______ _______ _______ _____ _____    ______ ____
ROOT
ATOM      1  C   UNL     1      47.637   3.633  17.115  0.00  0.00    +0.000 C 
ENDROOT
BRANCH   1   2
ATOM      2  C   UNL     1      47.548   4.391  15.816  0.00  0.00    +0.000 A 
ATOM      3  C   UNL     1      48.081   5.681  15.714  0.00  0.00    +0.000 A 
ATOM      4  C   UNL     1      48.035   6.378  14.503  0.00  0.00    +0.000 A 
ATOM      5  C   UNL     1      47.453   5.800  13.366  0.00  0.00    +0.000 A 
ATOM      6  C   UNL     1      46.883   4.525  13.481  0.00  0.00    +0.000 A 
ATOM      7  C   UNL     1      46.924   3.830  14.695  0.00  0.00    +0.000 A 
BRANCH   5   8
ATOM      8  C   UNL     1      47.395   6.546  12.053  0.00  0.00    +0.000 C 
BRANCH   8   9
ATOM      9  C   UNL     1      45.966   6.793  11.562  0.00  0.00    +0.000 C 
BRANCH   9  10
ATOM     10  C   UNL     1      45.506   5.716  10.591  0.00  0.00    +0.000 C 
ATOM     11  O   UNL     1      46.001   5.584   9.473  0.00  0.00    +0.000 OA
ATOM     12  N   UNL     1      44.543   4.859  11.063  0.00  0.00    +0.000 N 
ATOM     13  C   UNL     1      44.089   3.715  10.327  0.00  0.00    +0.000 C 
ATOM     14  C   UNL     1      43.430   2.902  11.415  0.00  0.00    +0.000 C 
ATOM     15  O   UNL     1      42.966   3.852  12.394  0.00  0.00    +0.000 OA
ATOM     16  C   UNL     1      43.652   5.089  12.162  0.00  0.00    +0.000 C 
ENDBRANCH   9  10
ENDBRANCH   8   9
ENDBRANCH   5   8
ENDBRANCH   1   2
BRANCH   1  19
ATOM     17  O   UNL     1      49.319   1.669  16.014  0.00  0.00    +0.000 OA
ATOM     18  C   UNL     1      49.767   2.414  16.878  0.00  0.00    +0.000 C 
ATOM     19  N   UNL     1      49.002   3.373  17.493  0.00  0.00    +0.000 N 
ATOM     20  H   UNL     1      49.448   4.072  18.076  0.00  0.00    +0.000 HD
BRANCH  18  21
ATOM     21  C   UNL     1      51.148   2.284  17.360  0.00  0.00    +0.000 A 
ATOM     22  C   UNL     1      51.697   1.019  17.539  0.00  0.00    +0.000 A 
ATOM     23  S   UNL     1      53.311   1.043  18.088  0.00  0.00    +0.000 S 
ATOM     24  C   UNL     1      53.348   2.745  18.066  0.00  0.00    +0.000 A 
ATOM     25  N   UNL     1      54.481   3.423  18.393  0.00  0.00    +0.000 NA
ATOM     26  C   UNL     1      54.383   4.706  18.289  0.00  0.00    +0.000 A 
ATOM     27  N   UNL     1      53.250   5.377  17.910  0.00  0.00    +0.000 N 
ATOM     28  C   UNL     1      52.060   4.736  17.658  0.00  0.00    +0.000 A 
ATOM     29  O   UNL     1      51.023   5.372  17.476  0.00  0.00    +0.000 OA
ATOM     30  C   UNL     1      52.132   3.287  17.686  0.00  0.00    +0.000 A 
ATOM     31  H   UNL     1      53.226   6.384  17.892  0.00  0.00    +0.000 HD
ENDBRANCH  18  21
ENDBRANCH   1  19
TORSDOF 6
ENDMDL
MODEL 6
REMARK VINA RESULT:    -6.854      4.974      8.105
REMARK INTER + INTRA:         -10.013
REMARK INTER:                  -9.108
REMARK INTRA:                  -0.905
REMARK UNBOUND:                -0.755
REMARK  Name = 
REMARK  6 active torsions:
REMARK  status: ('A' for Active; 'I' for Inactive)
REMARK    1  A    between atoms: C_2  and  C_20
REMARK    2  A    between atoms: N_3  and  C_4
REMARK    3  A    between atoms: C_4  and  C_5
REMARK    4  A    between atoms: C_8  and  C_9
REMARK    5  A    between atoms: C_9  and  C_10
REMARK    6  A    between atoms: C_10  and  C_11
REMARK                            x       y       z     vdW  Elec       q    Type
REMARK                         _______ _______ _______ _____ _____    ______ ____
ROOT
ATOM      1  C   UNL     1      46.655   8.333  12.908  0.00  0.00    +0.000 C 
ENDROOT
BRANCH   1   2
ATOM      2  C   UNL     1      48.087   8.468  12.462  0.00  0.00    +0.000 A 
ATOM      3  C   UNL     1      48.747   7.386  11.867  0.00  0.00    +0.000 A 
ATOM      4  C   UNL     1      50.065   7.514  11.419  0.00  0.00    +0.000 A 
ATOM      5  C   UNL     1      50.753   8.727  11.556  0.00  0.00    +0.000 A 
ATOM      6  C   UNL     1      50.105   9.797  12.189  0.00  0.00    +0.000 A 
ATOM      7  C   UNL     1      48.788   9.667  12.643  0.00  0.00    +0.000 A 
BRANCH   5   8
ATOM      8  C   UNL     1      52.179   8.874  11.077  0.00  0.00    +0.000 C 
BRANCH   8   9
ATOM      9  C   UNL     1      52.382   8.403   9.634  0.00  0.00    +0.000 C 
BRANCH   9  10
ATOM     10  C   UNL     1      53.486   7.361   9.528  0.00  0.00    +0.000 C 
ATOM     11  O   UNL     1      54.371   7.253  10.374  0.00  0.00    +0.000 OA
ATOM     12  N   UNL     1      53.399   6.507   8.457  0.00  0.00    +0.000 N 
ATOM     13  C   UNL     1      54.282   5.391   8.275  0.00  0.00    +0.000 C 
ATOM     14  C   UNL     1      53.512   4.559   7.279  0.00  0.00    +0.000 C 
ATOM     15  O   UNL     1      52.720   5.490   6.514  0.00  0.00    +0.000 OA
ATOM     16  C   UNL     1      52.665   6.721   7.244  0.00  0.00    +0.000 C 
ENDBRANCH   9  10
ENDBRANCH   8   9
ENDBRANCH   5   8
ENDBRANCH   1   2
BRANCH   1  19
ATOM     17  O   UNL     1      44.387   7.760  11.349  0.00  0.00    +0.000 OA
ATOM     18  C   UNL     1      45.029   6.829  11.823  0.00  0.00    +0.000 C 
ATOM     19  N   UNL     1      46.126   7.023  12.625  0.00  0.00    +0.000 N 
ATOM     20  H   UNL     1      46.721   6.237  12.857  0.00  0.00    +0.000 HD
BRANCH  18  21
ATOM     21  C   UNL     1      44.624   5.433  11.611  0.00  0.00    +0.000 A 
ATOM     22  C   UNL     1      43.901   4.771  12.598  0.00  0.00    +0.000 A 
ATOM     23  S   UNL     1      43.498   3.166  12.190  0.00  0.00    +0.000 S 
ATOM     24  C   UNL     1      44.237   3.312  10.663  0.00  0.00    +0.000 A 
ATOM     25  N   UNL     1      44.212   2.282   9.774  0.00  0.00    +0.000 NA
ATOM     26  C   UNL     1      44.769   2.545   8.639  0.00  0.00    +0.000 A 
ATOM     27  N   UNL     1      45.370   3.734   8.318  0.00  0.00    +0.000 N 
ATOM     28  C   UNL     1      45.496   4.767   9.218  0.00  0.00    +0.000 A 
ATOM     29  O   UNL     1      46.177   5.757   8.957  0.00  0.00    +0.000 OA
ATOM     30  C   UNL     1      44.821   4.554  10.484  0.00  0.00    +0.000 A 
ATOM     31  H   UNL     1      45.827   3.860   7.429  0.00  0.00    +0.000 HD
ENDBRANCH  18  21
ENDBRANCH   1  19
TORSDOF 6
ENDMDL
MODEL 7
REMARK VINA RESULT:    -6.788      3.837      8.115
REMARK INTER + INTRA:          -9.924
REMARK INTER:                  -8.502
REMARK INTRA:                  -1.422
REMARK UNBOUND:                -0.755
REMARK  Name = 
REMARK  6 active torsions:
REMARK  status: ('A' for Active; 'I' for Inactive)
REMARK    1  A    between atoms: C_2  and  C_20
REMARK    2  A    between atoms: N_3  and  C_4
REMARK    3  A    between atoms: C_4  and  C_5
REMARK    4  A    between atoms: C_8  and  C_9
REMARK    5  A    between atoms: C_9  and  C_10
REMARK    6  A    between atoms: C_10  and  C_11
REMARK                            x       y       z     vdW  Elec       q    Type
REMARK                         _______ _______ _______ _____ _____    ______ ____
ROOT
ATOM      1  C   UNL     1      48.392   8.908  14.731  0.00  0.00    +0.000 C 
ENDROOT
BRANCH   1   2
ATOM      2  C   UNL     1      49.184   8.233  15.820  0.00  0.00    +0.000 A 
ATOM      3  C   UNL     1      48.959   8.558  17.163  0.00  0.00    +0.000 A 
ATOM      4  C   UNL     1      49.663   7.911  18.181  0.00  0.00    +0.000 A 
ATOM      5  C   UNL     1      50.611   6.923  17.880  0.00  0.00    +0.000 A 
ATOM      6  C   UNL     1      50.865   6.628  16.534  0.00  0.00    +0.000 A 
ATOM      7  C   UNL     1      50.164   7.280  15.514  0.00  0.00    +0.000 A 
BRANCH   5   8
ATOM      8  C   UNL     1      51.381   6.219  18.974  0.00  0.00    +0.000 C 
BRANCH   8   9
ATOM      9  C   UNL     1      51.240   4.695  18.926  0.00  0.00    +0.000 C 
BRANCH   9  10
ATOM     10  C   UNL     1      49.782   4.260  18.937  0.00  0.00    +0.000 C 
ATOM     11  O   UNL     1      48.973   4.693  19.754  0.00  0.00    +0.000 OA
ATOM     12  N   UNL     1      49.411   3.394  17.938  0.00  0.00    +0.000 N 
ATOM     13  C   UNL     1      48.053   2.984  17.727  0.00  0.00    +0.000 C 
ATOM     14  C   UNL     1      48.115   2.456  16.315  0.00  0.00    +0.000 C 
ATOM     15  O   UNL     1      49.464   1.982  16.129  0.00  0.00    +0.000 OA
ATOM     16  C   UNL     1      50.276   2.557  17.160  0.00  0.00    +0.000 C 
ENDBRANCH   9  10
ENDBRANCH   8   9
ENDBRANCH   5   8
ENDBRANCH   1   2
BRANCH   1  19
ATOM     17  O   UNL     1      47.450   8.878  12.083  0.00  0.00    +0.000 OA
ATOM     18  C   UNL     1      46.984   8.077  12.886  0.00  0.00    +0.000 C 
ATOM     19  N   UNL     1      47.362   8.050  14.205  0.00  0.00    +0.000 N 
ATOM     20  H   UNL     1      47.080   7.273  14.790  0.00  0.00    +0.000 HD
BRANCH  18  21
ATOM     21  C   UNL     1      45.935   7.125  12.496  0.00  0.00    +0.000 A 
ATOM     22  C   UNL     1      44.833   7.575  11.778  0.00  0.00    +0.000 A 
ATOM     23  S   UNL     1      43.718   6.344  11.392  0.00  0.00    +0.000 S 
ATOM     24  C   UNL     1      44.689   5.159  12.135  0.00  0.00    +0.000 A 
ATOM     25  N   UNL     1      44.323   3.849  12.123  0.00  0.00    +0.000 NA
ATOM     26  C   UNL     1      45.173   3.053  12.681  0.00  0.00    +0.000 A 
ATOM     27  N   UNL     1      46.345   3.448  13.270  0.00  0.00    +0.000 N 
ATOM     28  C   UNL     1      46.709   4.769  13.383  0.00  0.00    +0.000 A 
ATOM     29  O   UNL     1      47.684   5.105  14.054  0.00  0.00    +0.000 OA
ATOM     30  C   UNL     1      45.827   5.702  12.705  0.00  0.00    +0.000 A 
ATOM     31  H   UNL     1      46.946   2.780  13.728  0.00  0.00    +0.000 HD
ENDBRANCH  18  21
ENDBRANCH   1  19
TORSDOF 6
ENDMDL
MODEL 8
REMARK VINA RESULT:    -6.761      3.665      8.494
REMARK INTER + INTRA:          -9.887
REMARK INTER:                  -8.673
REMARK INTRA:                  -1.214
REMARK UNBOUND:                -0.755
REMARK  Name = 
REMARK  6 active torsions:
REMARK  status: ('A' for Active; 'I' for Inactive)
REMARK    1  A    between atoms: C_2  and  C_20
REMARK    2  A    between atoms: N_3  and  C_4
REMARK    3  A    between atoms: C_4  and  C_5
REMARK    4  A    between atoms: C_8  and  C_9
REMARK    5  A    between atoms: C_9  and  C_10
REMARK    6  A    between atoms: C_10  and  C_11
REMARK                            x       y       z     vdW  Elec       q    Type
REMARK                         _______ _______ _______ _____ _____    ______ ____
ROOT
ATOM      1  C   UNL     1      48.178   8.290  11.929  0.00  0.00    +0.000 C 
ENDROOT
BRANCH   1   2
ATOM      2  C   UNL     1      48.771   8.044  13.292  0.00  0.00    +0.000 A 
ATOM      3  C   UNL     1      50.132   7.744  13.427  0.00  0.00    +0.000 A 
ATOM      4  C   UNL     1      50.697   7.549  14.690  0.00  0.00    +0.000 A 
ATOM      5  C   UNL     1      49.914   7.649  15.848  0.00  0.00    +0.000 A 
ATOM      6  C   UNL     1      48.544   7.909  15.709  0.00  0.00    +0.000 A 
ATOM      7  C   UNL     1      47.976   8.097  14.444  0.00  0.00    +0.000 A 
BRANCH   5   8
ATOM      8  C   UNL     1      50.515   7.437  17.219  0.00  0.00    +0.000 C 
BRANCH   8   9
ATOM      9  C   UNL     1      49.627   6.601  18.144  0.00  0.00    +0.000 C 
BRANCH   9  10
ATOM     10  C   UNL     1      49.883   5.110  17.981  0.00  0.00    +0.000 C 
ATOM     11  O   UNL     1      50.988   4.608  18.176  0.00  0.00    +0.000 OA
ATOM     12  N   UNL     1      48.788   4.349  17.656  0.00  0.00    +0.000 N 
ATOM     13  C   UNL     1      48.827   2.917  17.587  0.00  0.00    +0.000 C 
ATOM     14  C   UNL     1      47.359   2.574  17.663  0.00  0.00    +0.000 C 
ATOM     15  O   UNL     1      46.660   3.698  17.093  0.00  0.00    +0.000 OA
ATOM     16  C   UNL     1      47.563   4.810  17.071  0.00  0.00    +0.000 C 
ENDBRANCH   9  10
ENDBRANCH   8   9
ENDBRANCH   5   8
ENDBRANCH   1   2
BRANCH   1  19
ATOM     17  O   UNL     1      45.390   7.998  11.725  0.00  0.00    +0.000 OA
ATOM     18  C   UNL     1      46.110   7.087  11.333  0.00  0.00    +0.000 C 
ATOM     19  N   UNL     1      47.478   7.134  11.431  0.00  0.00    +0.000 N 
ATOM     20  H   UNL     1      48.039   6.441  10.948  0.00  0.00    +0.000 HD
BRANCH  18  21
ATOM     21  C   UNL     1      45.545   5.847  10.784  0.00  0.00    +0.000 A 
ATOM     22  C   UNL     1      45.798   5.504   9.461  0.00  0.00    +0.000 A 
ATOM     23  S   UNL     1      45.084   4.031   8.986  0.00  0.00    +0.000 S 
ATOM     24  C   UNL     1      44.446   3.777  10.544  0.00  0.00    +0.000 A 
ATOM     25  N   UNL     1      43.743   2.649  10.836  0.00  0.00    +0.000 NA
ATOM     26  C   UNL     1      43.358   2.566  12.066  0.00  0.00    +0.000 A 
ATOM     27  N   UNL     1      43.590   3.515  13.026  0.00  0.00    +0.000 N 
ATOM     28  C   UNL     1      44.217   4.708  12.752  0.00  0.00    +0.000 A 
ATOM     29  O   UNL     1      44.269   5.605  13.591  0.00  0.00    +0.000 OA
ATOM     30  C   UNL     1      44.738   4.823  11.403  0.00  0.00    +0.000 A 
ATOM     31  H   UNL     1      43.223   3.408  13.959  0.00  0.00    +0.000 HD
ENDBRANCH  18  21
ENDBRANCH   1  19
TORSDOF 6
ENDMDL
MODEL 9
REMARK VINA RESULT:    -6.685      3.353      4.910
REMARK INTER + INTRA:          -9.784
REMARK INTER:                  -8.770
REMARK INTRA:                  -1.014
REMARK UNBOUND:                -0.755
REMARK  Name = 
REMARK  6 active torsions:
REMARK  status: ('A' for Active; 'I' for Inactive)
REMARK    1  A    between atoms: C_2  and  C_20
REMARK    2  A    between atoms: N_3  and  C_4
REMARK    3  A    between atoms: C_4  and  C_5
REMARK    4  A    between atoms: C_8  and  C_9
REMARK    5  A    between atoms: C_9  and  C_10
REMARK    6  A    between atoms: C_10  and  C_11
REMARK                            x       y       z     vdW  Elec       q    Type
REMARK                         _______ _______ _______ _____ _____    ______ ____
ROOT
ATOM      1  C   UNL     1      50.271   7.403  16.765  0.00  0.00    +0.000 C 
ENDROOT
BRANCH   1   2
ATOM      2  C   UNL     1      49.603   7.231  15.426  0.00  0.00    +0.000 A 
ATOM      3  C   UNL     1      48.486   6.397  15.296  0.00  0.00    +0.000 A 
ATOM      4  C   UNL     1      47.838   6.259  14.065  0.00  0.00    +0.000 A 
ATOM      5  C   UNL     1      48.294   6.952  12.935  0.00  0.00    +0.000 A 
ATOM      6  C   UNL     1      49.437   7.754  13.057  0.00  0.00    +0.000 A 
ATOM      7  C   UNL     1      50.089   7.887  14.288  0.00  0.00    +0.000 A 
BRANCH   5   8
ATOM      8  C   UNL     1      47.602   6.808  11.599  0.00  0.00    +0.000 C 
BRANCH   8   9
ATOM      9  C   UNL     1      46.074   6.795  11.709  0.00  0.00    +0.000 C 
BRANCH   9  10
ATOM     10  C   UNL     1      45.458   5.656  10.911  0.00  0.00    +0.000 C 
ATOM     11  O   UNL     1      45.719   5.468   9.725  0.00  0.00    +0.000 OA
ATOM     12  N   UNL     1      44.634   4.813  11.614  0.00  0.00    +0.000 N 
ATOM     13  C   UNL     1      44.072   3.620  11.049  0.00  0.00    +0.000 C 
ATOM     14  C   UNL     1      43.670   2.861  12.290  0.00  0.00    +0.000 C 
ATOM     15  O   UNL     1      43.387   3.860  13.290  0.00  0.00    +0.000 OA
ATOM     16  C   UNL     1      43.977   5.092  12.858  0.00  0.00    +0.000 C 
ENDBRANCH   9  10
ENDBRANCH   8   9
ENDBRANCH   5   8
ENDBRANCH   1   2
BRANCH   1  19
ATOM     17  O   UNL     1      50.898   6.489  19.347  0.00  0.00    +0.000 OA
ATOM     18  C   UNL     1      51.348   5.883  18.381  0.00  0.00    +0.000 C 
ATOM     19  N   UNL     1      51.121   6.286  17.088  0.00  0.00    +0.000 N 
ATOM     20  H   UNL     1      51.366   5.670  16.322  0.00  0.00    +0.000 HD
BRANCH  18  21
ATOM     21  C   UNL     1      52.219   4.713  18.548  0.00  0.00    +0.000 A 
ATOM     22  C   UNL     1      53.434   4.850  19.210  0.00  0.00    +0.000 A 
ATOM     23  S   UNL     1      54.316   3.397  19.333  0.00  0.00    +0.000 S 
ATOM     24  C   UNL     1      53.086   2.522  18.543  0.00  0.00    +0.000 A 
ATOM     25  N   UNL     1      53.194   1.179  18.357  0.00  0.00    +0.000 NA
ATOM     26  C   UNL     1      52.170   0.637  17.786  0.00  0.00    +0.000 A 
ATOM     27  N   UNL     1      51.058   1.316  17.364  0.00  0.00    +0.000 N 
ATOM     28  C   UNL     1      50.948   2.684  17.452  0.00  0.00    +0.000 A 
ATOM     29  O   UNL     1      50.012   3.281  16.922  0.00  0.00    +0.000 OA
ATOM     30  C   UNL     1      52.037   3.337  18.154  0.00  0.00    +0.000 A 
ATOM     31  H   UNL     1      50.310   0.839  16.885  0.00  0.00    +0.000 HD
ENDBRANCH  18  21
ENDBRANCH   1  19
TORSDOF 6
ENDMDL
