MODEL 1
REMARK VINA RESULT:    -8.712      0.000      0.000
REMARK INTER + INTRA:         -12.940
REMARK INTER:                 -11.768
REMARK INTRA:                  -1.172
REMARK UNBOUND:                -1.172
REMARK  Name = 
REMARK  7 active torsions:
REMARK  status: ('A' for Active; 'I' for Inactive)
REMARK    1  A    between atoms: C_1  and  C_2
REMARK    2  A    between atoms: C_2  and  N_3
REMARK    3  A    between atoms: C_2  and  C_16
REMARK    4  A    between atoms: C_4  and  C_6
REMARK    5  A    between atoms: C_19  and  O_20
REMARK    6  A    between atoms: O_20  and  C_21
REMARK    7  A    between atoms: C_21  and  C_22
REMARK                            x       y       z     vdW  Elec       q    Type
REMARK                         _______ _______ _______ _____ _____    ______ ____
ROOT
ATOM      1  C   UNL     1      46.432   8.697  12.992  0.00  0.00    +0.000 C 
ATOM      2  C   UNL     1      47.209   7.374  13.006  0.00  0.00    +0.000 C 
ENDROOT
BRANCH   2   3
ATOM      3  C   UNL     1      46.414   6.307  12.267  0.00  0.00    +0.000 A 
ATOM      4  C   UNL     1      46.071   6.437  10.915  0.00  0.00    +0.000 A 
ATOM      5  C   UNL     1      45.422   5.389  10.248  0.00  0.00    +0.000 A 
ATOM      6  C   UNL     1      45.130   4.198  10.915  0.00  0.00    +0.000 A 
ATOM      7  C   UNL     1      45.394   4.096  12.277  0.00  0.00    +0.000 A 
ATOM      8  C   UNL     1      46.036   5.134  12.941  0.00  0.00    +0.000 A 
BRANCH   6   9
ATOM      9  O   UNL     1      44.603   3.181  10.165  0.00  0.00    +0.000 OA
BRANCH   9  10
ATOM     10  C   UNL     1      44.648   3.421   8.752  0.00  0.00    +0.000 C 
BRANCH  10  11
ATOM     11  C   UNL     1      45.779   2.667   8.105  0.00  0.00    +0.000 A 
ATOM     12  C   UNL     1      45.924   1.288   8.265  0.00  0.00    +0.000 A 
ATOM     13  C   UNL     1      46.952   0.648   7.599  0.00  0.00    +0.000 A 
ATOM     14  N   UNL     1      47.823   1.273   6.778  0.00  0.00    +0.000 NA
ATOM     15  C   UNL     1      47.654   2.602   6.616  0.00  0.00    +0.000 A 
ATOM     16  C   UNL     1      46.657   3.332   7.243  0.00  0.00    +0.000 A 
ENDBRANCH  10  11
ENDBRANCH   9  10
ENDBRANCH   6   9
ENDBRANCH   2   3
BRANCH   2  17
ATOM     17  N   UNL     1      47.486   6.896  14.355  0.00  0.00    +0.000 N 
ATOM     18  C   UNL     1      48.737   6.792  14.901  0.00  0.00    +0.000 C 
ATOM     19  O   UNL     1      49.764   6.996  14.263  0.00  0.00    +0.000 OA
ATOM     20  H   UNL     1      46.691   6.605  14.906  0.00  0.00    +0.000 HD
BRANCH  18  21
ATOM     21  C   UNL     1      48.780   6.354  16.301  0.00  0.00    +0.000 A 
ATOM     22  C   UNL     1      49.127   7.250  17.301  0.00  0.00    +0.000 A 
ATOM     23  S   UNL     1      49.165   6.552  18.857  0.00  0.00    +0.000 S 
ATOM     24  C   UNL     1      48.681   5.039  18.255  0.00  0.00    +0.000 A 
ATOM     25  N   UNL     1      48.525   3.970  19.083  0.00  0.00    +0.000 NA
ATOM     26  C   UNL     1      48.126   2.891  18.495  0.00  0.00    +0.000 A 
ATOM     27  N   UNL     1      47.859   2.787  17.156  0.00  0.00    +0.000 N 
ATOM     28  C   UNL     1      47.974   3.842  16.283  0.00  0.00    +0.000 A 
ATOM     29  O   UNL     1      47.681   3.718  15.106  0.00  0.00    +0.000 OA
ATOM     30  C   UNL     1      48.471   5.069  16.887  0.00  0.00    +0.000 A 
ATOM     31  H   UNL     1      47.522   1.920  16.763  0.00  0.00    +0.000 HD
ENDBRANCH  18  21
ENDBRANCH   2  17
TORSDOF 6
ENDMDL
MODEL 2
REMARK VINA RESULT:    -8.187      1.593      2.385
REMARK INTER + INTRA:         -12.231
REMARK INTER:                 -11.082
REMARK INTRA:                  -1.149
REMARK UNBOUND:                -1.172
REMARK  Name = 
REMARK  7 active torsions:
REMARK  status: ('A' for Active; 'I' for Inactive)
REMARK    1  A    between atoms: C_1  and  C_2
REMARK    2  A    between atoms: C_2  and  N_3
REMARK    3  A    between atoms: C_2  and  C_16
REMARK    4  A    between atoms: C_4  and  C_6
REMARK    5  A    between atoms: C_19  and  O_20
REMARK    6  A    between atoms: O_20  and  C_21
REMARK    7  A    between atoms: C_21  and  C_22
REMARK                            x       y       z     vdW  Elec       q    Type
REMARK                         _______ _______ _______ _____ _____    ______ ____
ROOT
ATOM      1  C   UNL     1      47.345   8.384  13.460  0.00  0.00    +0.000 C 
ATOM      2  C   UNL     1      47.767   6.909  13.467  0.00  0.00    +0.000 C 
ENDROOT
BRANCH   2   3
ATOM      3  C   UNL     1      46.797   6.096  12.622  0.00  0.00    +0.000 A 
ATOM      4  C   UNL     1      46.439   6.479  11.323  0.00  0.00    +0.000 A 
ATOM      5  C   UNL     1      45.618   5.653  10.544  0.00  0.00    +0.000 A 
ATOM      6  C   UNL     1      45.167   4.430  11.044  0.00  0.00    +0.000 A 
ATOM      7  C   UNL     1      45.451   4.084  12.361  0.00  0.00    +0.000 A 
ATOM      8  C   UNL     1      46.262   4.902  13.136  0.00  0.00    +0.000 A 
BRANCH   6   9
ATOM      9  O   UNL     1      44.468   3.628  10.181  0.00  0.00    +0.000 OA
BRANCH   9  10
ATOM     10  C   UNL     1      44.647   3.970   8.800  0.00  0.00    +0.000 C 
BRANCH  10  11
ATOM     11  C   UNL     1      45.605   3.027   8.123  0.00  0.00    +0.000 A 
ATOM     12  C   UNL     1      46.533   3.479   7.183  0.00  0.00    +0.000 A 
ATOM     13  C   UNL     1      47.422   2.571   6.640  0.00  0.00    +0.000 A 
ATOM     14  N   UNL     1      47.465   1.264   6.977  0.00  0.00    +0.000 NA
ATOM     15  C   UNL     1      46.576   0.849   7.904  0.00  0.00    +0.000 A 
ATOM     16  C   UNL     1      45.645   1.682   8.503  0.00  0.00    +0.000 A 
ENDBRANCH  10  11
ENDBRANCH   9  10
ENDBRANCH   6   9
ENDBRANCH   2   3
BRANCH   2  17
ATOM     17  N   UNL     1      47.805   6.339  14.808  0.00  0.00    +0.000 N 
ATOM     18  C   UNL     1      48.915   6.306  15.608  0.00  0.00    +0.000 C 
ATOM     19  O   UNL     1      50.024   6.666  15.228  0.00  0.00    +0.000 OA
ATOM     20  H   UNL     1      46.950   5.924  15.149  0.00  0.00    +0.000 HD
BRANCH  18  21
ATOM     21  C   UNL     1      48.711   5.749  16.950  0.00  0.00    +0.000 A 
ATOM     22  C   UNL     1      48.937   4.401  17.186  0.00  0.00    +0.000 A 
ATOM     23  S   UNL     1      48.605   3.926  18.791  0.00  0.00    +0.000 S 
ATOM     24  C   UNL     1      48.187   5.511  19.236  0.00  0.00    +0.000 A 
ATOM     25  N   UNL     1      47.790   5.803  20.505  0.00  0.00    +0.000 NA
ATOM     26  C   UNL     1      47.529   7.052  20.710  0.00  0.00    +0.000 A 
ATOM     27  N   UNL     1      47.640   8.036  19.764  0.00  0.00    +0.000 N 
ATOM     28  C   UNL     1      48.061   7.798  18.478  0.00  0.00    +0.000 A 
ATOM     29  O   UNL     1      48.191   8.712  17.681  0.00  0.00    +0.000 OA
ATOM     30  C   UNL     1      48.318   6.397  18.181  0.00  0.00    +0.000 A 
ATOM     31  H   UNL     1      47.448   9.000  19.998  0.00  0.00    +0.000 HD
ENDBRANCH  18  21
ENDBRANCH   2  17
TORSDOF 6
ENDMDL
MODEL 3
REMARK VINA RESULT:    -8.003      2.871      4.249
REMARK INTER + INTRA:         -11.982
REMARK INTER:                 -10.716
REMARK INTRA:                  -1.266
REMARK UNBOUND:                -1.172
REMARK  Name = 
REMARK  7 active torsions:
REMARK  status: ('A' for Active; 'I' for Inactive)
REMARK    1  A    between atoms: C_1  and  C_2
REMARK    2  A    between atoms: C_2  and  N_3
REMARK    3  A    between atoms: C_2  and  C_16
REMARK    4  A    between atoms: C_4  and  C_6
REMARK    5  A    between atoms: C_19  and  O_20
REMARK    6  A    between atoms: O_20  and  C_21
REMARK    7  A    between atoms: C_21  and  C_22
REMARK                            x       y       z     vdW  Elec       q    Type
REMARK                         _______ _______ _______ _____ _____    ______ ____
ROOT
ATOM      1  C   UNL     1      47.114   4.583  14.732  0.00  0.00    +0.000 C 
ATOM      2  C   UNL     1      46.591   5.690  13.807  0.00  0.00    +0.000 C 
ENDROOT
BRANCH   2   3
ATOM      3  C   UNL     1      45.861   5.067  12.626  0.00  0.00    +0.000 A 
ATOM      4  C   UNL     1      45.618   5.776  11.443  0.00  0.00    +0.000 A 
ATOM      5  C   UNL     1      45.028   5.136  10.344  0.00  0.00    +0.000 A 
ATOM      6  C   UNL     1      44.696   3.781  10.409  0.00  0.00    +0.000 A 
ATOM      7  C   UNL     1      44.859   3.094  11.608  0.00  0.00    +0.000 A 
ATOM      8  C   UNL     1      45.442   3.728  12.699  0.00  0.00    +0.000 A 
BRANCH   6   9
ATOM      9  O   UNL     1      44.233   3.201   9.259  0.00  0.00    +0.000 OA
BRANCH   9  10
ATOM     10  C   UNL     1      44.807   3.749   8.063  0.00  0.00    +0.000 C 
BRANCH  10  11
ATOM     11  C   UNL     1      45.927   2.885   7.549  0.00  0.00    +0.000 A 
ATOM     12  C   UNL     1      46.160   1.608   8.063  0.00  0.00    +0.000 A 
ATOM     13  C   UNL     1      47.169   0.844   7.508  0.00  0.00    +0.000 A 
ATOM     14  N   UNL     1      47.941   1.249   6.477  0.00  0.00    +0.000 NA
ATOM     15  C   UNL     1      47.687   2.477   5.977  0.00  0.00    +0.000 A 
ATOM     16  C   UNL     1      46.700   3.317   6.466  0.00  0.00    +0.000 A 
ENDBRANCH  10  11
ENDBRANCH   9  10
ENDBRANCH   6   9
ENDBRANCH   2   3
BRANCH   2  17
ATOM     17  N   UNL     1      47.653   6.548  13.297  0.00  0.00    +0.000 N 
ATOM     18  C   UNL     1      47.603   7.916  13.274  0.00  0.00    +0.000 C 
ATOM     19  O   UNL     1      46.605   8.554  13.590  0.00  0.00    +0.000 OA
ATOM     20  H   UNL     1      48.467   6.086  12.918  0.00  0.00    +0.000 HD
BRANCH  18  21
ATOM     21  C   UNL     1      48.814   8.584  12.782  0.00  0.00    +0.000 A 
ATOM     22  C   UNL     1      48.725   9.539  11.781  0.00  0.00    +0.000 A 
ATOM     23  S   UNL     1      50.237  10.173  11.309  0.00  0.00    +0.000 S 
ATOM     24  C   UNL     1      51.058   9.223  12.452  0.00  0.00    +0.000 A 
ATOM     25  N   UNL     1      52.413   9.281  12.571  0.00  0.00    +0.000 NA
ATOM     26  C   UNL     1      52.903   8.527  13.499  0.00  0.00    +0.000 A 
ATOM     27  N   UNL     1      52.158   7.729  14.327  0.00  0.00    +0.000 N 
ATOM     28  C   UNL     1      50.787   7.656  14.266  0.00  0.00    +0.000 A 
ATOM     29  O   UNL     1      50.160   6.968  15.054  0.00  0.00    +0.000 OA
ATOM     30  C   UNL     1      50.191   8.448  13.202  0.00  0.00    +0.000 A 
ATOM     31  H   UNL     1      52.601   7.185  15.053  0.00  0.00    +0.000 HD
ENDBRANCH  18  21
ENDBRANCH   2  17
TORSDOF 6
ENDMDL
MODEL 4
REMARK VINA RESULT:    -7.596      2.170      3.928
REMARK INTER + INTRA:         -11.432
REMARK INTER:                 -10.382
REMARK INTRA:                  -1.050
REMARK UNBOUND:                -1.172
REMARK  Name = 
REMARK  7 active torsions:
REMARK  status: ('A' for Active; 'I' for Inactive)
REMARK    1  A    between atoms: C_1  and  C_2
REMARK    2  A    between atoms: C_2  and  N_3
REMARK    3  A    between atoms: C_2  and  C_16
REMARK    4  A    between atoms: C_4  and  C_6
REMARK    5  A    between atoms: C_19  and  O_20
REMARK    6  A    between atoms: O_20  and  C_21
REMARK    7  A    between atoms: C_21  and  C_22
REMARK                            x       y       z     vdW  Elec       q    Type
REMARK                         _______ _______ _______ _____ _____    ______ ____
ROOT
ATOM      1  C   UNL     1      47.347   3.630  14.644  0.00  0.00    +0.000 C 
ATOM      2  C   UNL     1      46.754   5.008  14.323  0.00  0.00    +0.000 C 
ENDROOT
BRANCH   2   3
ATOM      3  C   UNL     1      46.164   4.998  12.920  0.00  0.00    +0.000 A 
ATOM      4  C   UNL     1      46.430   6.014  11.993  0.00  0.00    +0.000 A 
ATOM      5  C   UNL     1      45.944   5.917  10.682  0.00  0.00    +0.000 A 
ATOM      6  C   UNL     1      45.210   4.800  10.280  0.00  0.00    +0.000 A 
ATOM      7  C   UNL     1      44.873   3.830  11.218  0.00  0.00    +0.000 A 
ATOM      8  C   UNL     1      45.352   3.924  12.518  0.00  0.00    +0.000 A 
BRANCH   6   9
ATOM      9  O   UNL     1      44.872   4.725   8.955  0.00  0.00    +0.000 OA
BRANCH   9  10
ATOM     10  C   UNL     1      44.571   3.396   8.509  0.00  0.00    +0.000 C 
BRANCH  10  11
ATOM     11  C   UNL     1      45.790   2.722   7.937  0.00  0.00    +0.000 A 
ATOM     12  C   UNL     1      46.054   1.371   8.171  0.00  0.00    +0.000 A 
ATOM     13  C   UNL     1      47.160   0.799   7.570  0.00  0.00    +0.000 A 
ATOM     14  N   UNL     1      48.000   1.464   6.747  0.00  0.00    +0.000 NA
ATOM     15  C   UNL     1      47.715   2.763   6.514  0.00  0.00    +0.000 A 
ATOM     16  C   UNL     1      46.633   3.425   7.071  0.00  0.00    +0.000 A 
ENDBRANCH  10  11
ENDBRANCH   9  10
ENDBRANCH   6   9
ENDBRANCH   2   3
BRANCH   2  17
ATOM     17  N   UNL     1      47.739   6.080  14.405  0.00  0.00    +0.000 N 
ATOM     18  C   UNL     1      48.520   6.337  15.500  0.00  0.00    +0.000 C 
ATOM     19  O   UNL     1      48.390   5.746  16.567  0.00  0.00    +0.000 OA
ATOM     20  H   UNL     1      47.825   6.680  13.597  0.00  0.00    +0.000 HD
BRANCH  18  21
ATOM     21  C   UNL     1      49.496   7.421  15.339  0.00  0.00    +0.000 A 
ATOM     22  C   UNL     1      50.815   7.234  15.725  0.00  0.00    +0.000 A 
ATOM     23  S   UNL     1      51.791   8.615  15.503  0.00  0.00    +0.000 S 
ATOM     24  C   UNL     1      50.496   9.497  14.848  0.00  0.00    +0.000 A 
ATOM     25  N   UNL     1      50.657  10.788  14.447  0.00  0.00    +0.000 NA
ATOM     26  C   UNL     1      49.597  11.329  13.942  0.00  0.00    +0.000 A 
ATOM     27  N   UNL     1      48.395  10.691  13.792  0.00  0.00    +0.000 N 
ATOM     28  C   UNL     1      48.188   9.381  14.155  0.00  0.00    +0.000 A 
ATOM     29  O   UNL     1      47.114   8.838  13.960  0.00  0.00    +0.000 OA
ATOM     30  C   UNL     1      49.338   8.743  14.777  0.00  0.00    +0.000 A 
ATOM     31  H   UNL     1      47.611  11.161  13.362  0.00  0.00    +0.000 HD
ENDBRANCH  18  21
ENDBRANCH   2  17
TORSDOF 6
ENDMDL
MODEL 5
REMARK VINA RESULT:    -7.206      3.581      7.973
REMARK INTER + INTRA:         -10.906
REMARK INTER:                  -9.664
REMARK INTRA:                  -1.242
REMARK UNBOUND:                -1.172
REMARK  Name = 
REMARK  7 active torsions:
REMARK  status: ('A' for Active; 'I' for Inactive)
REMARK    1  A    between atoms: C_1  and  C_2
REMARK    2  A    between atoms: C_2  and  N_3
REMARK    3  A    between atoms: C_2  and  C_16
REMARK    4  A    between atoms: C_4  and  C_6
REMARK    5  A    between atoms: C_19  and  O_20
REMARK    6  A    between atoms: O_20  and  C_21
REMARK    7  A    between atoms: C_21  and  C_22
REMARK                            x       y       z     vdW  Elec       q    Type
REMARK                         _______ _______ _______ _____ _____    ______ ____
ROOT
ATOM      1  C   UNL     1      49.749   7.923  11.645  0.00  0.00    +0.000 C 
ATOM      2  C   UNL     1      48.469   7.639  12.440  0.00  0.00    +0.000 C 
ENDROOT
BRANCH   2   3
ATOM      3  C   UNL     1      48.830   7.179  13.845  0.00  0.00    +0.000 A 
ATOM      4  C   UNL     1      47.987   6.352  14.599  0.00  0.00    +0.000 A 
ATOM      5  C   UNL     1      48.401   5.874  15.850  0.00  0.00    +0.000 A 
ATOM      6  C   UNL     1      49.663   6.198  16.349  0.00  0.00    +0.000 A 
ATOM      7  C   UNL     1      50.470   7.085  15.644  0.00  0.00    +0.000 A 
ATOM      8  C   UNL     1      50.061   7.562  14.404  0.00  0.00    +0.000 A 
BRANCH   6   9
ATOM      9  O   UNL     1      50.038   5.598  17.521  0.00  0.00    +0.000 OA
BRANCH   9  10
ATOM     10  C   UNL     1      49.596   4.239  17.643  0.00  0.00    +0.000 C 
BRANCH  10  11
ATOM     11  C   UNL     1      50.761   3.290  17.724  0.00  0.00    +0.000 A 
ATOM     12  C   UNL     1      50.652   1.963  17.304  0.00  0.00    +0.000 A 
ATOM     13  C   UNL     1      51.776   1.159  17.351  0.00  0.00    +0.000 A 
ATOM     14  N   UNL     1      52.990   1.583  17.762  0.00  0.00    +0.000 NA
ATOM     15  C   UNL     1      53.083   2.875  18.142  0.00  0.00    +0.000 A 
ATOM     16  C   UNL     1      52.014   3.758  18.133  0.00  0.00    +0.000 A 
ENDBRANCH  10  11
ENDBRANCH   9  10
ENDBRANCH   6   9
ENDBRANCH   2   3
BRANCH   2  17
ATOM     17  N   UNL     1      47.632   6.619  11.819  0.00  0.00    +0.000 N 
ATOM     18  C   UNL     1      46.292   6.757  11.573  0.00  0.00    +0.000 C 
ATOM     19  O   UNL     1      45.639   7.723  11.950  0.00  0.00    +0.000 OA
ATOM     20  H   UNL     1      48.083   5.748  11.578  0.00  0.00    +0.000 HD
BRANCH  18  21
ATOM     21  C   UNL     1      45.661   5.632  10.873  0.00  0.00    +0.000 A 
ATOM     22  C   UNL     1      45.777   5.514   9.496  0.00  0.00    +0.000 A 
ATOM     23  S   UNL     1      44.943   4.171   8.854  0.00  0.00    +0.000 S 
ATOM     24  C   UNL     1      44.431   3.678  10.397  0.00  0.00    +0.000 A 
ATOM     25  N   UNL     1      43.655   2.572  10.560  0.00  0.00    +0.000 NA
ATOM     26  C   UNL     1      43.364   2.297  11.788  0.00  0.00    +0.000 A 
ATOM     27  N   UNL     1      43.786   3.024  12.869  0.00  0.00    +0.000 N 
ATOM     28  C   UNL     1      44.593   4.132  12.761  0.00  0.00    +0.000 A 
ATOM     29  O   UNL     1      44.985   4.722  13.754  0.00  0.00    +0.000 OA
ATOM     30  C   UNL     1      44.907   4.513  11.393  0.00  0.00    +0.000 A 
ATOM     31  H   UNL     1      43.547   2.739  13.808  0.00  0.00    +0.000 HD
ENDBRANCH  18  21
ENDBRANCH   2  17
TORSDOF 6
ENDMDL
MODEL 6
REMARK VINA RESULT:    -6.978      3.193      8.421
REMARK INTER + INTRA:         -10.598
REMARK INTER:                  -9.508
REMARK INTRA:                  -1.089
REMARK UNBOUND:                -1.172
REMARK  Name = 
REMARK  7 active torsions:
REMARK  status: ('A' for Active; 'I' for Inactive)
REMARK    1  A    between atoms: C_1  and  C_2
REMARK    2  A    between atoms: C_2  and  N_3
REMARK    3  A    between atoms: C_2  and  C_16
REMARK    4  A    between atoms: C_4  and  C_6
REMARK    5  A    between atoms: C_19  and  O_20
REMARK    6  A    between atoms: O_20  and  C_21
REMARK    7  A    between atoms: C_21  and  C_22
REMARK                            x       y       z     vdW  Elec       q    Type
REMARK                         _______ _______ _______ _____ _____    ______ ____
ROOT
ATOM      1  C   UNL     1      48.545   7.825  11.652  0.00  0.00    +0.000 C 
ATOM      2  C   UNL     1      47.565   7.437  12.767  0.00  0.00    +0.000 C 
ENDROOT
BRANCH   2   3
ATOM      3  C   UNL     1      48.338   7.111  14.037  0.00  0.00    +0.000 A 
ATOM      4  C   UNL     1      47.917   6.118  14.931  0.00  0.00    +0.000 A 
ATOM      5  C   UNL     1      48.709   5.784  16.039  0.00  0.00    +0.000 A 
ATOM      6  C   UNL     1      49.933   6.420  16.251  0.00  0.00    +0.000 A 
ATOM      7  C   UNL     1      50.316   7.463  15.414  0.00  0.00    +0.000 A 
ATOM      8  C   UNL     1      49.532   7.797  14.317  0.00  0.00    +0.000 A 
BRANCH   6   9
ATOM      9  O   UNL     1      50.700   5.957  17.286  0.00  0.00    +0.000 OA
BRANCH   9  10
ATOM     10  C   UNL     1      50.136   4.826  17.964  0.00  0.00    +0.000 C 
BRANCH  10  11
ATOM     11  C   UNL     1      51.050   3.633  17.893  0.00  0.00    +0.000 A 
ATOM     12  C   UNL     1      52.325   3.655  18.460  0.00  0.00    +0.000 A 
ATOM     13  C   UNL     1      53.094   2.507  18.409  0.00  0.00    +0.000 A 
ATOM     14  N   UNL     1      52.679   1.346  17.857  0.00  0.00    +0.000 NA
ATOM     15  C   UNL     1      51.435   1.336  17.334  0.00  0.00    +0.000 A 
ATOM     16  C   UNL     1      50.591   2.435  17.335  0.00  0.00    +0.000 A 
ENDBRANCH  10  11
ENDBRANCH   9  10
ENDBRANCH   6   9
ENDBRANCH   2   3
BRANCH   2  17
ATOM     17  N   UNL     1      46.739   6.288  12.418  0.00  0.00    +0.000 N 
ATOM     18  C   UNL     1      45.513   6.366  11.815  0.00  0.00    +0.000 C 
ATOM     19  O   UNL     1      44.940   7.429  11.600  0.00  0.00    +0.000 OA
ATOM     20  H   UNL     1      47.100   5.377  12.665  0.00  0.00    +0.000 HD
BRANCH  18  21
ATOM     21  C   UNL     1      44.886   5.080  11.490  0.00  0.00    +0.000 A 
ATOM     22  C   UNL     1      44.062   4.453  12.413  0.00  0.00    +0.000 A 
ATOM     23  S   UNL     1      43.459   2.950  11.877  0.00  0.00    +0.000 S 
ATOM     24  C   UNL     1      44.245   3.102  10.379  0.00  0.00    +0.000 A 
ATOM     25  N   UNL     1      44.145   2.130   9.431  0.00  0.00    +0.000 NA
ATOM     26  C   UNL     1      44.770   2.389   8.330  0.00  0.00    +0.000 A 
ATOM     27  N   UNL     1      45.476   3.538   8.088  0.00  0.00    +0.000 N 
ATOM     28  C   UNL     1      45.585   4.560   9.000  0.00  0.00    +0.000 A 
ATOM     29  O   UNL     1      46.184   5.585   8.725  0.00  0.00    +0.000 OA
ATOM     30  C   UNL     1      44.941   4.294  10.277  0.00  0.00    +0.000 A 
ATOM     31  H   UNL     1      45.918   3.692   7.193  0.00  0.00    +0.000 HD
ENDBRANCH  18  21
ENDBRANCH   2  17
TORSDOF 6
ENDMDL
MODEL 7
REMARK VINA RESULT:    -6.853      3.401      4.713
REMARK INTER + INTRA:         -10.429
REMARK INTER:                  -9.297
REMARK INTRA:                  -1.131
REMARK UNBOUND:                -1.172
REMARK  Name = 
REMARK  7 active torsions:
REMARK  status: ('A' for Active; 'I' for Inactive)
REMARK    1  A    between atoms: C_1  and  C_2
REMARK    2  A    between atoms: C_2  and  N_3
REMARK    3  A    between atoms: C_2  and  C_16
REMARK    4  A    between atoms: C_4  and  C_6
REMARK    5  A    between atoms: C_19  and  O_20
REMARK    6  A    between atoms: O_20  and  C_21
REMARK    7  A    between atoms: C_21  and  C_22
REMARK                            x       y       z     vdW  Elec       q    Type
REMARK                         _______ _______ _______ _____ _____    ______ ____
ROOT
ATOM      1  C   UNL     1      47.246   3.034  17.610  0.00  0.00    +0.000 C 
ATOM      2  C   UNL     1      48.112   4.236  17.214  0.00  0.00    +0.000 C 
ENDROOT
BRANCH   2   3
ATOM      3  C   UNL     1      47.801   4.640  15.780  0.00  0.00    +0.000 A 
ATOM      4  C   UNL     1      47.101   3.800  14.905  0.00  0.00    +0.000 A 
ATOM      5  C   UNL     1      46.753   4.248  13.623  0.00  0.00    +0.000 A 
ATOM      6  C   UNL     1      47.079   5.542  13.213  0.00  0.00    +0.000 A 
ATOM      7  C   UNL     1      47.846   6.350  14.047  0.00  0.00    +0.000 A 
ATOM      8  C   UNL     1      48.194   5.907  15.316  0.00  0.00    +0.000 A 
BRANCH   6   9
ATOM      9  O   UNL     1      46.602   5.944  11.995  0.00  0.00    +0.000 OA
BRANCH   9  10
ATOM     10  C   UNL     1      45.224   5.612  11.774  0.00  0.00    +0.000 C 
BRANCH  10  11
ATOM     11  C   UNL     1      45.067   4.686  10.597  0.00  0.00    +0.000 A 
ATOM     12  C   UNL     1      45.571   5.016   9.337  0.00  0.00    +0.000 A 
ATOM     13  C   UNL     1      45.442   4.097   8.312  0.00  0.00    +0.000 A 
ATOM     14  N   UNL     1      44.874   2.881   8.456  0.00  0.00    +0.000 NA
ATOM     15  C   UNL     1      44.414   2.570   9.686  0.00  0.00    +0.000 A 
ATOM     16  C   UNL     1      44.494   3.423  10.775  0.00  0.00    +0.000 A 
ENDBRANCH  10  11
ENDBRANCH   9  10
ENDBRANCH   6   9
ENDBRANCH   2   3
BRANCH   2  17
ATOM     17  N   UNL     1      49.540   3.964  17.321  0.00  0.00    +0.000 N 
ATOM     18  C   UNL     1      50.321   4.315  18.389  0.00  0.00    +0.000 C 
ATOM     19  O   UNL     1      49.909   4.993  19.324  0.00  0.00    +0.000 OA
ATOM     20  H   UNL     1      49.974   3.501  16.535  0.00  0.00    +0.000 HD
BRANCH  18  21
ATOM     21  C   UNL     1      51.721   3.879  18.318  0.00  0.00    +0.000 A 
ATOM     22  C   UNL     1      52.736   4.726  18.736  0.00  0.00    +0.000 A 
ATOM     23  S   UNL     1      54.297   4.066  18.540  0.00  0.00    +0.000 S 
ATOM     24  C   UNL     1      53.669   2.612  17.927  0.00  0.00    +0.000 A 
ATOM     25  N   UNL     1      54.491   1.596  17.547  0.00  0.00    +0.000 NA
ATOM     26  C   UNL     1      53.878   0.539  17.126  0.00  0.00    +0.000 A 
ATOM     27  N   UNL     1      52.517   0.403  17.062  0.00  0.00    +0.000 N 
ATOM     28  C   UNL     1      51.644   1.387  17.458  0.00  0.00    +0.000 A 
ATOM     29  O   UNL     1      50.438   1.206  17.429  0.00  0.00    +0.000 OA
ATOM     30  C   UNL     1      52.285   2.618  17.892  0.00  0.00    +0.000 A 
ATOM     31  H   UNL     1      52.099  -0.462  16.750  0.00  0.00    +0.000 HD
ENDBRANCH  18  21
ENDBRANCH   2  17
TORSDOF 6
ENDMDL
MODEL 8
REMARK VINA RESULT:    -6.528      3.736      9.578
REMARK INTER + INTRA:          -9.990
REMARK INTER:                  -8.487
REMARK INTRA:                  -1.503
REMARK UNBOUND:                -1.172
REMARK  Name = 
REMARK  7 active torsions:
REMARK  status: ('A' for Active; 'I' for Inactive)
REMARK    1  A    between atoms: C_1  and  C_2
REMARK    2  A    between atoms: C_2  and  N_3
REMARK    3  A    between atoms: C_2  and  C_16
REMARK    4  A    between atoms: C_4  and  C_6
REMARK    5  A    between atoms: C_19  and  O_20
REMARK    6  A    between atoms: O_20  and  C_21
REMARK    7  A    between atoms: C_21  and  C_22
REMARK                            x       y       z     vdW  Elec       q    Type
REMARK                         _______ _______ _______ _____ _____    ______ ____
ROOT
ATOM      1  C   UNL     1      47.894   2.760  16.511  0.00  0.00    +0.000 C 
ATOM      2  C   UNL     1      48.170   4.215  16.110  0.00  0.00    +0.000 C 
ENDROOT
BRANCH   2   3
ATOM      3  C   UNL     1      48.149   5.099  17.349  0.00  0.00    +0.000 A 
ATOM      4  C   UNL     1      47.005   5.239  18.145  0.00  0.00    +0.000 A 
ATOM      5  C   UNL     1      47.057   5.987  19.330  0.00  0.00    +0.000 A 
ATOM      6  C   UNL     1      48.251   6.581  19.740  0.00  0.00    +0.000 A 
ATOM      7  C   UNL     1      49.368   6.514  18.912  0.00  0.00    +0.000 A 
ATOM      8  C   UNL     1      49.318   5.775  17.737  0.00  0.00    +0.000 A 
BRANCH   6   9
ATOM      9  O   UNL     1      48.250   7.194  20.964  0.00  0.00    +0.000 OA
BRANCH   9  10
ATOM     10  C   UNL     1      48.906   8.469  20.974  0.00  0.00    +0.000 C 
BRANCH  10  11
ATOM     11  C   UNL     1      47.977   9.565  20.527  0.00  0.00    +0.000 A 
ATOM     12  C   UNL     1      48.290  10.392  19.447  0.00  0.00    +0.000 A 
ATOM     13  C   UNL     1      47.368  11.343  19.051  0.00  0.00    +0.000 A 
ATOM     14  N   UNL     1      46.162  11.514  19.636  0.00  0.00    +0.000 NA
ATOM     15  C   UNL     1      45.867  10.690  20.664  0.00  0.00    +0.000 A 
ATOM     16  C   UNL     1      46.725   9.710  21.134  0.00  0.00    +0.000 A 
ENDBRANCH  10  11
ENDBRANCH   9  10
ENDBRANCH   6   9
ENDBRANCH   2   3
BRANCH   2  17
ATOM     17  N   UNL     1      47.198   4.732  15.155  0.00  0.00    +0.000 N 
ATOM     18  C   UNL     1      47.501   5.564  14.111  0.00  0.00    +0.000 C 
ATOM     19  O   UNL     1      48.617   6.043  13.940  0.00  0.00    +0.000 OA
ATOM     20  H   UNL     1      46.234   4.465  15.298  0.00  0.00    +0.000 HD
BRANCH  18  21
ATOM     21  C   UNL     1      46.378   5.906  13.230  0.00  0.00    +0.000 A 
ATOM     22  C   UNL     1      46.146   7.227  12.877  0.00  0.00    +0.000 A 
ATOM     23  S   UNL     1      44.775   7.435  11.883  0.00  0.00    +0.000 S 
ATOM     24  C   UNL     1      44.467   5.765  11.858  0.00  0.00    +0.000 A 
ATOM     25  N   UNL     1      43.405   5.257  11.175  0.00  0.00    +0.000 NA
ATOM     26  C   UNL     1      43.306   3.969  11.218  0.00  0.00    +0.000 A 
ATOM     27  N   UNL     1      44.180   3.144  11.874  0.00  0.00    +0.000 N 
ATOM     28  C   UNL     1      45.282   3.604  12.554  0.00  0.00    +0.000 A 
ATOM     29  O   UNL     1      46.061   2.830  13.084  0.00  0.00    +0.000 OA
ATOM     30  C   UNL     1      45.409   5.053  12.579  0.00  0.00    +0.000 A 
ATOM     31  H   UNL     1      44.063   2.141  11.844  0.00  0.00    +0.000 HD
ENDBRANCH  18  21
ENDBRANCH   2  17
TORSDOF 6
ENDMDL
MODEL 9
REMARK VINA RESULT:    -6.225      3.027      9.006
REMARK INTER + INTRA:          -9.581
REMARK INTER:                  -8.434
REMARK INTRA:                  -1.147
REMARK UNBOUND:                -1.172
REMARK  Name = 
REMARK  7 active torsions:
REMARK  status: ('A' for Active; 'I' for Inactive)
REMARK    1  A    between atoms: C_1  and  C_2
REMARK    2  A    between atoms: C_2  and  N_3
REMARK    3  A    between atoms: C_2  and  C_16
REMARK    4  A    between atoms: C_4  and  C_6
REMARK    5  A    between atoms: C_19  and  O_20
REMARK    6  A    between atoms: O_20  and  C_21
REMARK    7  A    between atoms: C_21  and  C_22
REMARK                            x       y       z     vdW  Elec       q    Type
REMARK                         _______ _______ _______ _____ _____    ______ ____
ROOT
ATOM      1  C   UNL     1      49.369   7.463  11.446  0.00  0.00    +0.000 C 
ATOM      2  C   UNL     1      48.030   7.629  12.175  0.00  0.00    +0.000 C 
ENDROOT
BRANCH   2   3
ATOM      3  C   UNL     1      48.277   7.814  13.665  0.00  0.00    +0.000 A 
ATOM      4  C   UNL     1      48.886   6.825  14.447  0.00  0.00    +0.000 A 
ATOM      5  C   UNL     1      49.182   7.073  15.795  0.00  0.00    +0.000 A 
ATOM      6  C   UNL     1      48.893   8.314  16.365  0.00  0.00    +0.000 A 
ATOM      7  C   UNL     1      48.213   9.269  15.616  0.00  0.00    +0.000 A 
ATOM      8  C   UNL     1      47.918   9.025  14.281  0.00  0.00    +0.000 A 
BRANCH   6   9
ATOM      9  O   UNL     1      49.319   8.519  17.651  0.00  0.00    +0.000 OA
BRANCH   9  10
ATOM     10  C   UNL     1      50.133   7.457  18.167  0.00  0.00    +0.000 C 
BRANCH  10  11
ATOM     11  C   UNL     1      49.410   6.686  19.239  0.00  0.00    +0.000 A 
ATOM     12  C   UNL     1      48.472   7.298  20.072  0.00  0.00    +0.000 A 
ATOM     13  C   UNL     1      47.802   6.521  20.999  0.00  0.00    +0.000 A 
ATOM     14  N   UNL     1      47.984   5.190  21.139  0.00  0.00    +0.000 NA
ATOM     15  C   UNL     1      48.877   4.611  20.309  0.00  0.00    +0.000 A 
ATOM     16  C   UNL     1      49.598   5.304  19.351  0.00  0.00    +0.000 A 
ENDBRANCH  10  11
ENDBRANCH   9  10
ENDBRANCH   6   9
ENDBRANCH   2   3
BRANCH   2  17
ATOM     17  N   UNL     1      47.141   6.488  11.990  0.00  0.00    +0.000 N 
ATOM     18  C   UNL     1      45.780   6.573  11.868  0.00  0.00    +0.000 C 
ATOM     19  O   UNL     1      45.162   7.623  12.009  0.00  0.00    +0.000 OA
ATOM     20  H   UNL     1      47.573   5.575  11.973  0.00  0.00    +0.000 HD
BRANCH  18  21
ATOM     21  C   UNL     1      45.088   5.304  11.618  0.00  0.00    +0.000 A 
ATOM     22  C   UNL     1      44.284   4.744  12.599  0.00  0.00    +0.000 A 
ATOM     23  S   UNL     1      43.597   3.249  12.145  0.00  0.00    +0.000 S 
ATOM     24  C   UNL     1      44.318   3.318  10.609  0.00  0.00    +0.000 A 
ATOM     25  N   UNL     1      44.135   2.320   9.701  0.00  0.00    +0.000 NA
ATOM     26  C   UNL     1      44.717   2.516   8.564  0.00  0.00    +0.000 A 
ATOM     27  N   UNL     1      45.457   3.625   8.250  0.00  0.00    +0.000 N 
ATOM     28  C   UNL     1      45.649   4.672   9.119  0.00  0.00    +0.000 A 
ATOM     29  O   UNL     1      46.275   5.662   8.781  0.00  0.00    +0.000 OA
ATOM     30  C   UNL     1      45.055   4.476  10.433  0.00  0.00    +0.000 A 
ATOM     31  H   UNL     1      45.863   3.730   7.331  0.00  0.00    +0.000 HD
ENDBRANCH  18  21
ENDBRANCH   2  17
TORSDOF 6
ENDMDL
