MODEL 1
REMARK VINA RESULT:    -7.813      0.000      0.000
REMARK INTER + INTRA:         -12.152
REMARK INTER:                 -11.010
REMARK INTRA:                  -1.142
REMARK UNBOUND:                -1.142
REMARK  Name = 
REMARK  9 active torsions:
REMARK  status: ('A' for Active; 'I' for Inactive)
REMARK    1  A    between atoms: C_1  and  O_2
REMARK    2  A    between atoms: O_2  and  C_3
REMARK    3  A    between atoms: C_10  and  C_11
REMARK    4  A    between atoms: N_13  and  C_14
REMARK    5  A    between atoms: C_14  and  C_15
REMARK    6  A    between atoms: C_18  and  N_19
REMARK    7  A    between atoms: N_19  and  C_20
REMARK    8  A    between atoms: N_19  and  C_21
REMARK    9  A    between atoms: C_21  and  C_22
REMARK                            x       y       z     vdW  Elec       q    Type
REMARK                         _______ _______ _______ _____ _____    ______ ____
ROOT
ATOM      1  C   UNL     1      47.852   7.596  13.242  0.00  0.00    +0.000 C 
ENDROOT
BRANCH   1   2
ATOM      2  C   UNL     1      46.931   6.549  12.684  0.00  0.00    +0.000 A 
ATOM      3  C   UNL     1      46.654   5.375  13.384  0.00  0.00    +0.000 A 
ATOM      4  C   UNL     1      45.860   4.369  12.805  0.00  0.00    +0.000 A 
ATOM      5  C   UNL     1      45.289   4.489  11.522  0.00  0.00    +0.000 A 
ATOM      6  C   UNL     1      45.597   5.679  10.848  0.00  0.00    +0.000 A 
ATOM      7  C   UNL     1      46.396   6.689  11.405  0.00  0.00    +0.000 A 
BRANCH   5   8
ATOM      8  N   UNL     1      44.534   3.454  10.950  0.00  0.00    +0.000 N 
ATOM      9  C   UNL     1      43.325   3.024  11.669  0.00  0.00    +0.000 C 
BRANCH   8  10
ATOM     10  C   UNL     1      44.424   3.298   9.480  0.00  0.00    +0.000 C 
BRANCH  10  11
ATOM     11  C   UNL     1      45.683   2.728   8.790  0.00  0.00    +0.000 C 
ATOM     12  C   UNL     1      46.123   3.557   7.574  0.00  0.00    +0.000 C 
ATOM     13  C   UNL     1      47.334   2.932   6.889  0.00  0.00    +0.000 C 
ATOM     14  O   UNL     1      47.070   1.578   6.530  0.00  0.00    +0.000 OA
ATOM     15  C   UNL     1      46.827   0.765   7.675  0.00  0.00    +0.000 C 
ATOM     16  C   UNL     1      45.591   1.241   8.429  0.00  0.00    +0.000 C 
ENDBRANCH  10  11
ENDBRANCH   8  10
ENDBRANCH   5   8
ENDBRANCH   1   2
BRANCH   1  19
ATOM     17  C   UNL     1      48.948   7.202  15.399  0.00  0.00    +0.000 C 
ATOM     18  O   UNL     1      49.989   6.879  14.829  0.00  0.00    +0.000 OA
ATOM     19  N   UNL     1      47.841   7.567  14.685  0.00  0.00    +0.000 N 
ATOM     20  H   UNL     1      46.980   7.807  15.159  0.00  0.00    +0.000 HD
BRANCH  17  28
ATOM     21  C   UNL     1      48.735   4.726  17.804  0.00  0.00    +0.000 A 
ATOM     22  N   UNL     1      48.586   3.998  18.931  0.00  0.00    +0.000 NA
ATOM     23  C   UNL     1      48.472   4.644  20.093  0.00  0.00    +0.000 A 
ATOM     24  N   UNL     1      48.497   5.959  20.281  0.00  0.00    +0.000 NA
ATOM     25  C   UNL     1      48.636   6.650  19.137  0.00  0.00    +0.000 A 
ATOM     26  S   UNL     1      48.690   8.345  19.196  0.00  0.00    +0.000 S 
ATOM     27  C   UNL     1      48.841   8.445  17.509  0.00  0.00    +0.000 A 
ATOM     28  C   UNL     1      48.855   7.212  16.865  0.00  0.00    +0.000 A 
ATOM     29  C   UNL     1      48.751   6.133  17.849  0.00  0.00    +0.000 A 
BRANCH  21  31
ATOM     30  C   UNL     1      47.779   3.221  16.269  0.00  0.00    +0.000 C 
ATOM     31  O   UNL     1      48.890   4.054  16.606  0.00  0.00    +0.000 OA
ENDBRANCH  21  31
ENDBRANCH  17  28
ENDBRANCH   1  19
TORSDOF 7
ENDMDL
MODEL 2
REMARK VINA RESULT:    -7.703      1.522      2.586
REMARK INTER + INTRA:         -11.997
REMARK INTER:                 -10.781
REMARK INTRA:                  -1.216
REMARK UNBOUND:                -1.142
REMARK  Name = 
REMARK  9 active torsions:
REMARK  status: ('A' for Active; 'I' for Inactive)
REMARK    1  A    between atoms: C_1  and  O_2
REMARK    2  A    between atoms: O_2  and  C_3
REMARK    3  A    between atoms: C_10  and  C_11
REMARK    4  A    between atoms: N_13  and  C_14
REMARK    5  A    between atoms: C_14  and  C_15
REMARK    6  A    between atoms: C_18  and  N_19
REMARK    7  A    between atoms: N_19  and  C_20
REMARK    8  A    between atoms: N_19  and  C_21
REMARK    9  A    between atoms: C_21  and  C_22
REMARK                            x       y       z     vdW  Elec       q    Type
REMARK                         _______ _______ _______ _____ _____    ______ ____
ROOT
ATOM      1  C   UNL     1      48.360   6.677  13.973  0.00  0.00    +0.000 C 
ENDROOT
BRANCH   1   2
ATOM      2  C   UNL     1      47.295   5.996  13.162  0.00  0.00    +0.000 A 
ATOM      3  C   UNL     1      46.734   4.785  13.567  0.00  0.00    +0.000 A 
ATOM      4  C   UNL     1      45.803   4.120  12.749  0.00  0.00    +0.000 A 
ATOM      5  C   UNL     1      45.371   4.634  11.510  0.00  0.00    +0.000 A 
ATOM      6  C   UNL     1      45.963   5.848  11.134  0.00  0.00    +0.000 A 
ATOM      7  C   UNL     1      46.902   6.519  11.932  0.00  0.00    +0.000 A 
BRANCH   5   8
ATOM      8  N   UNL     1      44.471   3.932  10.694  0.00  0.00    +0.000 N 
ATOM      9  C   UNL     1      43.231   3.447  11.318  0.00  0.00    +0.000 C 
BRANCH   8  10
ATOM     10  C   UNL     1      44.310   4.262   9.258  0.00  0.00    +0.000 C 
BRANCH  10  11
ATOM     11  C   UNL     1      45.080   3.339   8.287  0.00  0.00    +0.000 C 
ATOM     12  C   UNL     1      45.474   1.999   8.926  0.00  0.00    +0.000 C 
ATOM     13  C   UNL     1      46.280   1.141   7.956  0.00  0.00    +0.000 C 
ATOM     14  O   UNL     1      47.422   1.849   7.481  0.00  0.00    +0.000 OA
ATOM     15  C   UNL     1      47.054   3.009   6.738  0.00  0.00    +0.000 C 
ATOM     16  C   UNL     1      46.290   3.996   7.612  0.00  0.00    +0.000 C 
ENDBRANCH  10  11
ENDBRANCH   8  10
ENDBRANCH   5   8
ENDBRANCH   1   2
BRANCH   1  19
ATOM     17  C   UNL     1      49.164   6.297  16.257  0.00  0.00    +0.000 C 
ATOM     18  O   UNL     1      50.329   6.284  15.863  0.00  0.00    +0.000 OA
ATOM     19  N   UNL     1      48.129   6.481  15.384  0.00  0.00    +0.000 N 
ATOM     20  H   UNL     1      47.171   6.466  15.712  0.00  0.00    +0.000 HD
BRANCH  17  28
ATOM     21  C   UNL     1      47.828   8.360  18.691  0.00  0.00    +0.000 A 
ATOM     22  N   UNL     1      47.395   8.936  19.832  0.00  0.00    +0.000 NA
ATOM     23  C   UNL     1      47.395   8.208  20.951  0.00  0.00    +0.000 A 
ATOM     24  N   UNL     1      47.774   6.941  21.078  0.00  0.00    +0.000 NA
ATOM     25  C   UNL     1      48.208   6.405  19.925  0.00  0.00    +0.000 A 
ATOM     26  S   UNL     1      48.728   4.790  19.908  0.00  0.00    +0.000 S 
ATOM     27  C   UNL     1      49.099   4.877  18.255  0.00  0.00    +0.000 A 
ATOM     28  C   UNL     1      48.840   6.118  17.680  0.00  0.00    +0.000 A 
ATOM     29  C   UNL     1      48.286   7.029  18.682  0.00  0.00    +0.000 A 
BRANCH  21  31
ATOM     30  C   UNL     1      48.967   9.888  17.312  0.00  0.00    +0.000 C 
ATOM     31  O   UNL     1      47.792   9.103  17.527  0.00  0.00    +0.000 OA
ENDBRANCH  21  31
ENDBRANCH  17  28
ENDBRANCH   1  19
TORSDOF 7
ENDMDL
MODEL 3
REMARK VINA RESULT:    -6.731      3.483      7.823
REMARK INTER + INTRA:         -10.628
REMARK INTER:                  -9.134
REMARK INTRA:                  -1.494
REMARK UNBOUND:                -1.142
REMARK  Name = 
REMARK  9 active torsions:
REMARK  status: ('A' for Active; 'I' for Inactive)
REMARK    1  A    between atoms: C_1  and  O_2
REMARK    2  A    between atoms: O_2  and  C_3
REMARK    3  A    between atoms: C_10  and  C_11
REMARK    4  A    between atoms: N_13  and  C_14
REMARK    5  A    between atoms: C_14  and  C_15
REMARK    6  A    between atoms: C_18  and  N_19
REMARK    7  A    between atoms: N_19  and  C_20
REMARK    8  A    between atoms: N_19  and  C_21
REMARK    9  A    between atoms: C_21  and  C_22
REMARK                            x       y       z     vdW  Elec       q    Type
REMARK                         _______ _______ _______ _____ _____    ______ ____
ROOT
ATOM      1  C   UNL     1      48.000   9.022  13.965  0.00  0.00    +0.000 C 
ENDROOT
BRANCH   1   2
ATOM      2  C   UNL     1      48.705   8.307  15.081  0.00  0.00    +0.000 A 
ATOM      3  C   UNL     1      49.702   7.366  14.829  0.00  0.00    +0.000 A 
ATOM      4  C   UNL     1      50.286   6.644  15.884  0.00  0.00    +0.000 A 
ATOM      5  C   UNL     1      49.928   6.838  17.233  0.00  0.00    +0.000 A 
ATOM      6  C   UNL     1      48.917   7.786  17.446  0.00  0.00    +0.000 A 
ATOM      7  C   UNL     1      48.315   8.507  16.404  0.00  0.00    +0.000 A 
BRANCH   5   8
ATOM      8  N   UNL     1      50.497   6.076  18.265  0.00  0.00    +0.000 N 
ATOM      9  C   UNL     1      51.528   6.722  19.091  0.00  0.00    +0.000 C 
BRANCH   8  10
ATOM     10  C   UNL     1      49.706   5.065  19.007  0.00  0.00    +0.000 C 
BRANCH  10  11
ATOM     11  C   UNL     1      49.671   3.662  18.358  0.00  0.00    +0.000 C 
ATOM     12  C   UNL     1      51.023   3.251  17.755  0.00  0.00    +0.000 C 
ATOM     13  C   UNL     1      50.933   1.888  17.077  0.00  0.00    +0.000 C 
ATOM     14  O   UNL     1      49.898   1.878  16.096  0.00  0.00    +0.000 OA
ATOM     15  C   UNL     1      48.615   2.091  16.679  0.00  0.00    +0.000 C 
ATOM     16  C   UNL     1      48.539   3.461  17.344  0.00  0.00    +0.000 C 
ENDBRANCH  10  11
ENDBRANCH   8  10
ENDBRANCH   5   8
ENDBRANCH   1   2
BRANCH   1  19
ATOM     17  C   UNL     1      46.809   7.504  12.453  0.00  0.00    +0.000 C 
ATOM     18  O   UNL     1      47.813   7.387  11.752  0.00  0.00    +0.000 OA
ATOM     19  N   UNL     1      46.816   8.299  13.564  0.00  0.00    +0.000 N 
ATOM     20  H   UNL     1      45.979   8.410  14.122  0.00  0.00    +0.000 HD
BRANCH  17  28
ATOM     21  C   UNL     1      45.747   4.233  12.826  0.00  0.00    +0.000 A 
ATOM     22  N   UNL     1      45.099   3.050  12.789  0.00  0.00    +0.000 NA
ATOM     23  C   UNL     1      43.881   3.010  12.243  0.00  0.00    +0.000 A 
ATOM     24  N   UNL     1      43.206   4.029  11.724  0.00  0.00    +0.000 NA
ATOM     25  C   UNL     1      43.886   5.187  11.770  0.00  0.00    +0.000 A 
ATOM     26  S   UNL     1      43.166   6.594  11.151  0.00  0.00    +0.000 S 
ATOM     27  C   UNL     1      44.540   7.517  11.526  0.00  0.00    +0.000 A 
ATOM     28  C   UNL     1      45.566   6.793  12.124  0.00  0.00    +0.000 A 
ATOM     29  C   UNL     1      45.162   5.395  12.287  0.00  0.00    +0.000 A 
BRANCH  21  31
ATOM     30  C   UNL     1      46.962   4.761  14.769  0.00  0.00    +0.000 C 
ATOM     31  O   UNL     1      46.992   4.280  13.424  0.00  0.00    +0.000 OA
ENDBRANCH  21  31
ENDBRANCH  17  28
ENDBRANCH   1  19
TORSDOF 7
ENDMDL
MODEL 4
REMARK VINA RESULT:    -6.687      3.070      5.266
REMARK INTER + INTRA:         -10.566
REMARK INTER:                  -9.272
REMARK INTRA:                  -1.294
REMARK UNBOUND:                -1.142
REMARK  Name = 
REMARK  9 active torsions:
REMARK  status: ('A' for Active; 'I' for Inactive)
REMARK    1  A    between atoms: C_1  and  O_2
REMARK    2  A    between atoms: O_2  and  C_3
REMARK    3  A    between atoms: C_10  and  C_11
REMARK    4  A    between atoms: N_13  and  C_14
REMARK    5  A    between atoms: C_14  and  C_15
REMARK    6  A    between atoms: C_18  and  N_19
REMARK    7  A    between atoms: N_19  and  C_20
REMARK    8  A    between atoms: N_19  and  C_21
REMARK    9  A    between atoms: C_21  and  C_22
REMARK                            x       y       z     vdW  Elec       q    Type
REMARK                         _______ _______ _______ _____ _____    ______ ____
ROOT
ATOM      1  C   UNL     1      48.043   6.267  14.524  0.00  0.00    +0.000 C 
ENDROOT
BRANCH   1   2
ATOM      2  C   UNL     1      47.070   5.599  13.595  0.00  0.00    +0.000 A 
ATOM      3  C   UNL     1      46.658   4.283  13.796  0.00  0.00    +0.000 A 
ATOM      4  C   UNL     1      45.817   3.648  12.865  0.00  0.00    +0.000 A 
ATOM      5  C   UNL     1      45.330   4.294  11.710  0.00  0.00    +0.000 A 
ATOM      6  C   UNL     1      45.773   5.613  11.539  0.00  0.00    +0.000 A 
ATOM      7  C   UNL     1      46.622   6.258  12.452  0.00  0.00    +0.000 A 
BRANCH   5   8
ATOM      8  N   UNL     1      44.524   3.626  10.776  0.00  0.00    +0.000 N 
ATOM      9  C   UNL     1      43.300   2.983  11.277  0.00  0.00    +0.000 C 
BRANCH   8  10
ATOM     10  C   UNL     1      44.399   4.106   9.379  0.00  0.00    +0.000 C 
BRANCH  10  11
ATOM     11  C   UNL     1      45.162   3.265   8.331  0.00  0.00    +0.000 C 
ATOM     12  C   UNL     1      45.605   1.898   8.873  0.00  0.00    +0.000 C 
ATOM     13  C   UNL     1      46.402   1.122   7.829  0.00  0.00    +0.000 C 
ATOM     14  O   UNL     1      47.513   1.887   7.368  0.00  0.00    +0.000 OA
ATOM     15  C   UNL     1      47.097   3.081   6.710  0.00  0.00    +0.000 C 
ATOM     16  C   UNL     1      46.336   3.993   7.666  0.00  0.00    +0.000 C 
ENDBRANCH  10  11
ENDBRANCH   8  10
ENDBRANCH   5   8
ENDBRANCH   1   2
BRANCH   1  19
ATOM     17  C   UNL     1      49.989   7.753  14.411  0.00  0.00    +0.000 C 
ATOM     18  O   UNL     1      50.067   7.772  15.638  0.00  0.00    +0.000 OA
ATOM     19  N   UNL     1      49.012   7.036  13.780  0.00  0.00    +0.000 N 
ATOM     20  H   UNL     1      48.938   7.045  12.771  0.00  0.00    +0.000 HD
BRANCH  17  28
ATOM     21  C   UNL     1      49.661   9.846  11.677  0.00  0.00    +0.000 A 
ATOM     22  N   UNL     1      49.841  10.631  10.594  0.00  0.00    +0.000 NA
ATOM     23  C   UNL     1      51.088  10.956  10.246  0.00  0.00    +0.000 A 
ATOM     24  N   UNL     1      52.208  10.595  10.863  0.00  0.00    +0.000 NA
ATOM     25  C   UNL     1      51.989   9.807  11.929  0.00  0.00    +0.000 A 
ATOM     26  S   UNL     1      53.314   9.256  12.836  0.00  0.00    +0.000 S 
ATOM     27  C   UNL     1      52.297   8.391  13.883  0.00  0.00    +0.000 A 
ATOM     28  C   UNL     1      50.944   8.498  13.577  0.00  0.00    +0.000 A 
ATOM     29  C   UNL     1      50.760   9.365  12.412  0.00  0.00    +0.000 A 
BRANCH  21  31
ATOM     30  C   UNL     1      47.648  10.657  12.583  0.00  0.00    +0.000 C 
ATOM     31  O   UNL     1      48.367   9.541  12.056  0.00  0.00    +0.000 OA
ENDBRANCH  21  31
ENDBRANCH  17  28
ENDBRANCH   1  19
TORSDOF 7
ENDMDL
MODEL 5
REMARK VINA RESULT:    -5.791      2.930      8.810
REMARK INTER + INTRA:          -9.303
REMARK INTER:                  -8.087
REMARK INTRA:                  -1.216
REMARK UNBOUND:                -1.142
REMARK  Name = 
REMARK  9 active torsions:
REMARK  status: ('A' for Active; 'I' for Inactive)
REMARK    1  A    between atoms: C_1  and  O_2
REMARK    2  A    between atoms: O_2  and  C_3
REMARK    3  A    between atoms: C_10  and  C_11
REMARK    4  A    between atoms: N_13  and  C_14
REMARK    5  A    between atoms: C_14  and  C_15
REMARK    6  A    between atoms: C_18  and  N_19
REMARK    7  A    between atoms: N_19  and  C_20
REMARK    8  A    between atoms: N_19  and  C_21
REMARK    9  A    between atoms: C_21  and  C_22
REMARK                            x       y       z     vdW  Elec       q    Type
REMARK                         _______ _______ _______ _____ _____    ______ ____
ROOT
ATOM      1  C   UNL     1      47.811   7.889  11.686  0.00  0.00    +0.000 C 
ENDROOT
BRANCH   1   2
ATOM      2  C   UNL     1      48.511   8.109  12.997  0.00  0.00    +0.000 A 
ATOM      3  C   UNL     1      49.851   7.769  13.173  0.00  0.00    +0.000 A 
ATOM      4  C   UNL     1      50.462   7.900  14.433  0.00  0.00    +0.000 A 
ATOM      5  C   UNL     1      49.782   8.394  15.564  0.00  0.00    +0.000 A 
ATOM      6  C   UNL     1      48.435   8.717  15.349  0.00  0.00    +0.000 A 
ATOM      7  C   UNL     1      47.806   8.581  14.102  0.00  0.00    +0.000 A 
BRANCH   5   8
ATOM      8  N   UNL     1      50.402   8.477  16.820  0.00  0.00    +0.000 N 
ATOM      9  C   UNL     1      49.971   9.562  17.715  0.00  0.00    +0.000 C 
BRANCH   8  10
ATOM     10  C   UNL     1      50.842   7.263  17.548  0.00  0.00    +0.000 C 
BRANCH  10  11
ATOM     11  C   UNL     1      49.914   6.037  17.389  0.00  0.00    +0.000 C 
ATOM     12  C   UNL     1      48.644   6.136  18.248  0.00  0.00    +0.000 C 
ATOM     13  C   UNL     1      47.784   4.885  18.106  0.00  0.00    +0.000 C 
ATOM     14  O   UNL     1      48.536   3.714  18.417  0.00  0.00    +0.000 OA
ATOM     15  C   UNL     1      49.621   3.527  17.512  0.00  0.00    +0.000 C 
ATOM     16  C   UNL     1      50.607   4.686  17.596  0.00  0.00    +0.000 C 
ENDBRANCH  10  11
ENDBRANCH   8  10
ENDBRANCH   5   8
ENDBRANCH   1   2
BRANCH   1  19
ATOM     17  C   UNL     1      45.718   6.631  11.473  0.00  0.00    +0.000 C 
ATOM     18  O   UNL     1      45.099   7.669  11.240  0.00  0.00    +0.000 OA
ATOM     19  N   UNL     1      47.064   6.654  11.709  0.00  0.00    +0.000 N 
ATOM     20  H   UNL     1      47.562   5.801  11.925  0.00  0.00    +0.000 HD
BRANCH  17  28
ATOM     21  C   UNL     1      45.333   4.073   9.177  0.00  0.00    +0.000 A 
ATOM     22  N   UNL     1      44.975   2.970   8.487  0.00  0.00    +0.000 NA
ATOM     23  C   UNL     1      44.199   2.067   9.091  0.00  0.00    +0.000 A 
ATOM     24  N   UNL     1      43.729   2.123  10.333  0.00  0.00    +0.000 NA
ATOM     25  C   UNL     1      44.098   3.238  10.984  0.00  0.00    +0.000 A 
ATOM     26  S   UNL     1      43.586   3.468  12.586  0.00  0.00    +0.000 S 
ATOM     27  C   UNL     1      44.372   4.969  12.671  0.00  0.00    +0.000 A 
ATOM     28  C   UNL     1      45.036   5.330  11.503  0.00  0.00    +0.000 A 
ATOM     29  C   UNL     1      44.885   4.278  10.496  0.00  0.00    +0.000 A 
BRANCH  21  31
ATOM     30  C   UNL     1      46.879   4.453   7.446  0.00  0.00    +0.000 C 
ATOM     31  O   UNL     1      46.167   4.988   8.563  0.00  0.00    +0.000 OA
ENDBRANCH  21  31
ENDBRANCH  17  28
ENDBRANCH   1  19
TORSDOF 7
ENDMDL
MODEL 6
REMARK VINA RESULT:    -5.608      6.262      8.842
REMARK INTER + INTRA:          -9.044
REMARK INTER:                  -7.792
REMARK INTRA:                  -1.253
REMARK UNBOUND:                -1.142
REMARK  Name = 
REMARK  9 active torsions:
REMARK  status: ('A' for Active; 'I' for Inactive)
REMARK    1  A    between atoms: C_1  and  O_2
REMARK    2  A    between atoms: O_2  and  C_3
REMARK    3  A    between atoms: C_10  and  C_11
REMARK    4  A    between atoms: N_13  and  C_14
REMARK    5  A    between atoms: C_14  and  C_15
REMARK    6  A    between atoms: C_18  and  N_19
REMARK    7  A    between atoms: N_19  and  C_20
REMARK    8  A    between atoms: N_19  and  C_21
REMARK    9  A    between atoms: C_21  and  C_22
REMARK                            x       y       z     vdW  Elec       q    Type
REMARK                         _______ _______ _______ _____ _____    ______ ____
ROOT
ATOM      1  C   UNL     1      51.856   8.972  11.105  0.00  0.00    +0.000 C 
ENDROOT
BRANCH   1   2
ATOM      2  C   UNL     1      50.409   8.755  11.445  0.00  0.00    +0.000 A 
ATOM      3  C   UNL     1      49.499   9.810  11.463  0.00  0.00    +0.000 A 
ATOM      4  C   UNL     1      48.170   9.600  11.871  0.00  0.00    +0.000 A 
ATOM      5  C   UNL     1      47.679   8.336  12.255  0.00  0.00    +0.000 A 
ATOM      6  C   UNL     1      48.626   7.303  12.232  0.00  0.00    +0.000 A 
ATOM      7  C   UNL     1      49.959   7.496  11.839  0.00  0.00    +0.000 A 
BRANCH   5   8
ATOM      8  N   UNL     1      46.359   8.160  12.697  0.00  0.00    +0.000 N 
ATOM      9  C   UNL     1      45.331   9.037  12.117  0.00  0.00    +0.000 C 
BRANCH   8  10
ATOM     10  C   UNL     1      45.840   6.822  13.069  0.00  0.00    +0.000 C 
BRANCH  10  11
ATOM     11  C   UNL     1      44.798   6.233  12.092  0.00  0.00    +0.000 C 
ATOM     12  C   UNL     1      43.613   5.572  12.811  0.00  0.00    +0.000 C 
ATOM     13  C   UNL     1      42.637   4.955  11.814  0.00  0.00    +0.000 C 
ATOM     14  O   UNL     1      43.306   4.035  10.954  0.00  0.00    +0.000 OA
ATOM     15  C   UNL     1      44.296   4.681  10.157  0.00  0.00    +0.000 C 
ATOM     16  C   UNL     1      45.384   5.294  11.031  0.00  0.00    +0.000 C 
ENDBRANCH  10  11
ENDBRANCH   8  10
ENDBRANCH   5   8
ENDBRANCH   1   2
BRANCH   1  19
ATOM     17  C   UNL     1      53.171   8.916   9.037  0.00  0.00    +0.000 C 
ATOM     18  O   UNL     1      53.844   9.873   9.419  0.00  0.00    +0.000 OA
ATOM     19  N   UNL     1      52.164   8.412   9.810  0.00  0.00    +0.000 N 
ATOM     20  H   UNL     1      51.598   7.642   9.478  0.00  0.00    +0.000 HD
BRANCH  17  28
ATOM     21  C   UNL     1      53.621   5.641   8.020  0.00  0.00    +0.000 A 
ATOM     22  N   UNL     1      53.885   4.496   7.356  0.00  0.00    +0.000 NA
ATOM     23  C   UNL     1      54.134   4.564   6.046  0.00  0.00    +0.000 A 
ATOM     24  N   UNL     1      54.146   5.658   5.293  0.00  0.00    +0.000 NA
ATOM     25  C   UNL     1      53.889   6.778   5.989  0.00  0.00    +0.000 A 
ATOM     26  S   UNL     1      53.861   8.268   5.177  0.00  0.00    +0.000 S 
ATOM     27  C   UNL     1      53.526   9.100   6.618  0.00  0.00    +0.000 A 
ATOM     28  C   UNL     1      53.426   8.279   7.737  0.00  0.00    +0.000 A 
ATOM     29  C   UNL     1      53.626   6.881   7.352  0.00  0.00    +0.000 A 
BRANCH  21  31
ATOM     30  C   UNL     1      54.482   5.464  10.201  0.00  0.00    +0.000 C 
ATOM     31  O   UNL     1      53.326   5.564   9.368  0.00  0.00    +0.000 OA
ENDBRANCH  21  31
ENDBRANCH  17  28
ENDBRANCH   1  19
TORSDOF 7
ENDMDL
MODEL 7
REMARK VINA RESULT:    -5.153      5.083      8.231
REMARK INTER + INTRA:          -8.404
REMARK INTER:                  -7.580
REMARK INTRA:                  -0.824
REMARK UNBOUND:                -1.142
REMARK  Name = 
REMARK  9 active torsions:
REMARK  status: ('A' for Active; 'I' for Inactive)
REMARK    1  A    between atoms: C_1  and  O_2
REMARK    2  A    between atoms: O_2  and  C_3
REMARK    3  A    between atoms: C_10  and  C_11
REMARK    4  A    between atoms: N_13  and  C_14
REMARK    5  A    between atoms: C_14  and  C_15
REMARK    6  A    between atoms: C_18  and  N_19
REMARK    7  A    between atoms: N_19  and  C_20
REMARK    8  A    between atoms: N_19  and  C_21
REMARK    9  A    between atoms: C_21  and  C_22
REMARK                            x       y       z     vdW  Elec       q    Type
REMARK                         _______ _______ _______ _____ _____    ______ ____
ROOT
ATOM      1  C   UNL     1      47.510   7.807  12.575  0.00  0.00    +0.000 C 
ENDROOT
BRANCH   1   2
ATOM      2  C   UNL     1      48.809   8.352  12.054  0.00  0.00    +0.000 A 
ATOM      3  C   UNL     1      48.914   9.661  11.584  0.00  0.00    +0.000 A 
ATOM      4  C   UNL     1      50.116  10.123  11.019  0.00  0.00    +0.000 A 
ATOM      5  C   UNL     1      51.270   9.321  10.917  0.00  0.00    +0.000 A 
ATOM      6  C   UNL     1      51.123   8.010  11.392  0.00  0.00    +0.000 A 
ATOM      7  C   UNL     1      49.928   7.529  11.948  0.00  0.00    +0.000 A 
BRANCH   5   8
ATOM      8  N   UNL     1      52.445   9.792  10.312  0.00  0.00    +0.000 N 
ATOM      9  C   UNL     1      53.596  10.058  11.189  0.00  0.00    +0.000 C 
BRANCH   8  10
ATOM     10  C   UNL     1      52.839   9.364   8.949  0.00  0.00    +0.000 C 
BRANCH  10  11
ATOM     11  C   UNL     1      52.954   7.835   8.755  0.00  0.00    +0.000 C 
ATOM     12  C   UNL     1      54.343   7.291   9.119  0.00  0.00    +0.000 C 
ATOM     13  C   UNL     1      54.433   5.790   8.861  0.00  0.00    +0.000 C 
ATOM     14  O   UNL     1      54.090   5.487   7.511  0.00  0.00    +0.000 OA
ATOM     15  C   UNL     1      52.739   5.836   7.217  0.00  0.00    +0.000 C 
ATOM     16  C   UNL     1      52.520   7.337   7.371  0.00  0.00    +0.000 C 
ENDBRANCH  10  11
ENDBRANCH   8  10
ENDBRANCH   5   8
ENDBRANCH   1   2
BRANCH   1  19
ATOM     17  C   UNL     1      45.822   6.614  11.258  0.00  0.00    +0.000 C 
ATOM     18  O   UNL     1      45.011   7.519  11.447  0.00  0.00    +0.000 OA
ATOM     19  N   UNL     1      47.081   6.677  11.786  0.00  0.00    +0.000 N 
ATOM     20  H   UNL     1      47.734   5.917  11.648  0.00  0.00    +0.000 HD
BRANCH  17  28
ATOM     21  C   UNL     1      44.052   3.714  11.908  0.00  0.00    +0.000 A 
ATOM     22  N   UNL     1      43.477   2.493  11.889  0.00  0.00    +0.000 NA
ATOM     23  C   UNL     1      43.550   1.776  10.765  0.00  0.00    +0.000 A 
ATOM     24  N   UNL     1      44.131   2.135   9.625  0.00  0.00    +0.000 NA
ATOM     25  C   UNL     1      44.699   3.350   9.686  0.00  0.00    +0.000 A 
ATOM     26  S   UNL     1      45.483   3.967   8.313  0.00  0.00    +0.000 S 
ATOM     27  C   UNL     1      45.908   5.389   9.136  0.00  0.00    +0.000 A 
ATOM     28  C   UNL     1      45.470   5.433  10.456  0.00  0.00    +0.000 A 
ATOM     29  C   UNL     1      44.727   4.214  10.779  0.00  0.00    +0.000 A 
BRANCH  21  31
ATOM     30  C   UNL     1      42.795   5.319  13.081  0.00  0.00    +0.000 C 
ATOM     31  O   UNL     1      43.943   4.470  13.060  0.00  0.00    +0.000 OA
ENDBRANCH  21  31
ENDBRANCH  17  28
ENDBRANCH   1  19
TORSDOF 7
ENDMDL
MODEL 8
REMARK VINA RESULT:    -5.148      3.706      5.648
REMARK INTER + INTRA:          -8.396
REMARK INTER:                  -7.558
REMARK INTRA:                  -0.838
REMARK UNBOUND:                -1.142
REMARK  Name = 
REMARK  9 active torsions:
REMARK  status: ('A' for Active; 'I' for Inactive)
REMARK    1  A    between atoms: C_1  and  O_2
REMARK    2  A    between atoms: O_2  and  C_3
REMARK    3  A    between atoms: C_10  and  C_11
REMARK    4  A    between atoms: N_13  and  C_14
REMARK    5  A    between atoms: C_14  and  C_15
REMARK    6  A    between atoms: C_18  and  N_19
REMARK    7  A    between atoms: N_19  and  C_20
REMARK    8  A    between atoms: N_19  and  C_21
REMARK    9  A    between atoms: C_21  and  C_22
REMARK                            x       y       z     vdW  Elec       q    Type
REMARK                         _______ _______ _______ _____ _____    ______ ____
ROOT
ATOM      1  C   UNL     1      49.109   7.010  15.051  0.00  0.00    +0.000 C 
ENDROOT
BRANCH   1   2
ATOM      2  C   UNL     1      47.923   6.615  14.217  0.00  0.00    +0.000 A 
ATOM      3  C   UNL     1      47.234   7.547  13.444  0.00  0.00    +0.000 A 
ATOM      4  C   UNL     1      46.074   7.175  12.741  0.00  0.00    +0.000 A 
ATOM      5  C   UNL     1      45.562   5.862  12.754  0.00  0.00    +0.000 A 
ATOM      6  C   UNL     1      46.278   4.956  13.548  0.00  0.00    +0.000 A 
ATOM      7  C   UNL     1      47.429   5.313  14.265  0.00  0.00    +0.000 A 
BRANCH   5   8
ATOM      8  N   UNL     1      44.380   5.525  12.077  0.00  0.00    +0.000 N 
ATOM      9  C   UNL     1      43.769   6.560  11.228  0.00  0.00    +0.000 C 
BRANCH   8  10
ATOM     10  C   UNL     1      44.138   4.149  11.581  0.00  0.00    +0.000 C 
BRANCH  10  11
ATOM     11  C   UNL     1      45.055   3.706  10.419  0.00  0.00    +0.000 C 
ATOM     12  C   UNL     1      45.144   4.752   9.298  0.00  0.00    +0.000 C 
ATOM     13  C   UNL     1      46.012   4.255   8.146  0.00  0.00    +0.000 C 
ATOM     14  O   UNL     1      45.535   3.004   7.656  0.00  0.00    +0.000 OA
ATOM     15  C   UNL     1      45.611   1.984   8.649  0.00  0.00    +0.000 C 
ATOM     16  C   UNL     1      44.728   2.322   9.846  0.00  0.00    +0.000 C 
ENDBRANCH  10  11
ENDBRANCH   8  10
ENDBRANCH   5   8
ENDBRANCH   1   2
BRANCH   1  19
ATOM     17  C   UNL     1      51.233   8.149  14.607  0.00  0.00    +0.000 C 
ATOM     18  O   UNL     1      51.166   8.731  15.688  0.00  0.00    +0.000 OA
ATOM     19  N   UNL     1      50.252   7.283  14.213  0.00  0.00    +0.000 N 
ATOM     20  H   UNL     1      50.301   6.827  13.311  0.00  0.00    +0.000 HD
BRANCH  17  28
ATOM     21  C   UNL     1      51.537   8.438  11.173  0.00  0.00    +0.000 A 
ATOM     22  N   UNL     1      51.960   8.525   9.894  0.00  0.00    +0.000 NA
ATOM     23  C   UNL     1      53.269   8.652   9.666  0.00  0.00    +0.000 A 
ATOM     24  N   UNL     1      54.235   8.714  10.575  0.00  0.00    +0.000 NA
ATOM     25  C   UNL     1      53.778   8.614  11.834  0.00  0.00    +0.000 A 
ATOM     26  S   UNL     1      54.881   8.678  13.122  0.00  0.00    +0.000 S 
ATOM     27  C   UNL     1      53.637   8.477  14.259  0.00  0.00    +0.000 A 
ATOM     28  C   UNL     1      52.369   8.360  13.699  0.00  0.00    +0.000 A 
ATOM     29  C   UNL     1      52.455   8.462  12.241  0.00  0.00    +0.000 A 
BRANCH  21  31
ATOM     30  C   UNL     1      49.514   9.607  11.434  0.00  0.00    +0.000 C 
ATOM     31  O   UNL     1      50.179   8.343  11.409  0.00  0.00    +0.000 OA
ENDBRANCH  21  31
ENDBRANCH  17  28
ENDBRANCH   1  19
TORSDOF 7
ENDMDL
MODEL 9
REMARK VINA RESULT:    -4.846     10.364     13.739
REMARK INTER + INTRA:          -7.971
REMARK INTER:                  -6.637
REMARK INTRA:                  -1.334
REMARK UNBOUND:                -1.142
REMARK  Name = 
REMARK  9 active torsions:
REMARK  status: ('A' for Active; 'I' for Inactive)
REMARK    1  A    between atoms: C_1  and  O_2
REMARK    2  A    between atoms: O_2  and  C_3
REMARK    3  A    between atoms: C_10  and  C_11
REMARK    4  A    between atoms: N_13  and  C_14
REMARK    5  A    between atoms: C_14  and  C_15
REMARK    6  A    between atoms: C_18  and  N_19
REMARK    7  A    between atoms: N_19  and  C_20
REMARK    8  A    between atoms: N_19  and  C_21
REMARK    9  A    between atoms: C_21  and  C_22
REMARK                            x       y       z     vdW  Elec       q    Type
REMARK                         _______ _______ _______ _____ _____    ______ ____
ROOT
ATOM      1  C   UNL     1      40.722  -3.052  14.031  0.00  0.00    +0.000 C 
ENDROOT
BRANCH   1   2
ATOM      2  C   UNL     1      40.024  -2.456  15.220  0.00  0.00    +0.000 A 
ATOM      3  C   UNL     1      40.705  -2.189  16.406  0.00  0.00    +0.000 A 
ATOM      4  C   UNL     1      40.015  -1.714  17.535  0.00  0.00    +0.000 A 
ATOM      5  C   UNL     1      38.628  -1.461  17.532  0.00  0.00    +0.000 A 
ATOM      6  C   UNL     1      37.978  -1.749  16.324  0.00  0.00    +0.000 A 
ATOM      7  C   UNL     1      38.649  -2.234  15.192  0.00  0.00    +0.000 A 
BRANCH   5   8
ATOM      8  N   UNL     1      37.955  -1.025  18.683  0.00  0.00    +0.000 N 
ATOM      9  C   UNL     1      37.854  -1.972  19.805  0.00  0.00    +0.000 C 
BRANCH   8  10
ATOM     10  C   UNL     1      38.005   0.391  19.120  0.00  0.00    +0.000 C 
BRANCH  10  11
ATOM     11  C   UNL     1      38.148   1.420  17.976  0.00  0.00    +0.000 C 
ATOM     12  C   UNL     1      38.730   2.760  18.449  0.00  0.00    +0.000 C 
ATOM     13  C   UNL     1      38.803   3.765  17.304  0.00  0.00    +0.000 C 
ATOM     14  O   UNL     1      37.525   3.936  16.698  0.00  0.00    +0.000 OA
ATOM     15  C   UNL     1      37.055   2.727  16.105  0.00  0.00    +0.000 C 
ATOM     16  C   UNL     1      36.870   1.640  17.158  0.00  0.00    +0.000 C 
ENDBRANCH  10  11
ENDBRANCH   8  10
ENDBRANCH   5   8
ENDBRANCH   1   2
BRANCH   1  19
ATOM     17  C   UNL     1      40.167  -2.441  11.723  0.00  0.00    +0.000 C 
ATOM     18  O   UNL     1      41.218  -1.811  11.620  0.00  0.00    +0.000 OA
ATOM     19  N   UNL     1      39.843  -3.081  12.886  0.00  0.00    +0.000 N 
ATOM     20  H   UNL     1      38.965  -3.576  12.973  0.00  0.00    +0.000 HD
BRANCH  17  28
ATOM     21  C   UNL     1      37.521  -0.486  10.654  0.00  0.00    +0.000 A 
ATOM     22  N   UNL     1      36.432   0.035  10.051  0.00  0.00    +0.000 NA
ATOM     23  C   UNL     1      35.925  -0.605   8.994  0.00  0.00    +0.000 A 
ATOM     24  N   UNL     1      36.385  -1.723   8.443  0.00  0.00    +0.000 NA
ATOM     25  C   UNL     1      37.462  -2.216   9.075  0.00  0.00    +0.000 A 
ATOM     26  S   UNL     1      38.180  -3.641   8.498  0.00  0.00    +0.000 S 
ATOM     27  C   UNL     1      39.344  -3.610   9.732  0.00  0.00    +0.000 A 
ATOM     28  C   UNL     1      39.221  -2.531  10.602  0.00  0.00    +0.000 A 
ATOM     29  C   UNL     1      38.100  -1.684  10.193  0.00  0.00    +0.000 A 
BRANCH  21  31
ATOM     30  C   UNL     1      37.118   0.512  12.745  0.00  0.00    +0.000 C 
ATOM     31  O   UNL     1      38.066   0.197  11.725  0.00  0.00    +0.000 OA
ENDBRANCH  21  31
ENDBRANCH  17  28
ENDBRANCH   1  19
TORSDOF 7
ENDMDL
