MODEL 1
REMARK VINA RESULT:    -7.607      0.000      0.000
REMARK INTER + INTRA:         -10.803
REMARK INTER:                 -10.275
REMARK INTRA:                  -0.528
REMARK UNBOUND:                -0.528
REMARK  Name = 
REMARK  7 active torsions:
REMARK  status: ('A' for Active; 'I' for Inactive)
REMARK    1  A    between atoms: N_1  and  C_2
REMARK    2  A    between atoms: C_2  and  C_3
REMARK    3  A    between atoms: C_6  and  O_7
REMARK    4  A    between atoms: O_7  and  C_8
REMARK    5  A    between atoms: C_8  and  C_9
REMARK    6  A    between atoms: C_14  and  C_15
REMARK    7  A    between atoms: C_15  and  N_16
REMARK                            x       y       z     vdW  Elec       q    Type
REMARK                         _______ _______ _______ _____ _____    ______ ____
ROOT
ATOM      1  C   UNL     1      43.666   4.215  10.878  0.00  0.00    +0.000 C 
ENDROOT
BRANCH   1   2
ATOM      2  C   UNL     1      44.757   4.922  11.639  0.00  0.00    +0.000 A 
ATOM      3  C   UNL     1      45.238   6.157  11.174  0.00  0.00    +0.000 A 
ATOM      4  C   UNL     1      46.240   6.828  11.868  0.00  0.00    +0.000 A 
ATOM      5  C   UNL     1      46.759   6.271  13.035  0.00  0.00    +0.000 A 
ATOM      6  F   UNL     1      47.733   6.927  13.679  0.00  0.00    +0.000 F 
ATOM      7  C   UNL     1      46.283   5.056  13.538  0.00  0.00    +0.000 A 
ATOM      8  C   UNL     1      45.272   4.392  12.829  0.00  0.00    +0.000 A 
BRANCH   7   9
ATOM      9  C   UNL     1      46.861   4.447  14.782  0.00  0.00    +0.000 C 
BRANCH   9  10
ATOM     10  N   UNL     1      47.522   3.174  14.507  0.00  0.00    +0.000 NA
ATOM     11  H   UNL     1      47.584   2.643  15.373  0.00  0.00    +0.000 HD
ATOM     12  H   UNL     1      48.481   3.360  14.218  0.00  0.00    +0.000 HD
ENDBRANCH   9  10
ENDBRANCH   7   9
ENDBRANCH   1   2
BRANCH   1  13
ATOM     13  O   UNL     1      43.828   4.389   9.465  0.00  0.00    +0.000 OA
BRANCH  13  17
ATOM     14  C   UNL     1      46.654   2.026   7.629  0.00  0.00    +0.000 A 
ATOM     15  C   UNL     1      46.601   3.391   7.348  0.00  0.00    +0.000 A 
ATOM     16  C   UNL     1      45.661   4.183   8.008  0.00  0.00    +0.000 A 
ATOM     17  C   UNL     1      44.788   3.591   8.912  0.00  0.00    +0.000 A 
ATOM     18  C   UNL     1      44.952   2.234   9.170  0.00  0.00    +0.000 A 
ATOM     19  N   UNL     1      45.850   1.441   8.550  0.00  0.00    +0.000 NA
BRANCH  14  20
ATOM     20  C   UNL     1      47.621   1.117   6.905  0.00  0.00    +0.000 C 
BRANCH  20  21
ATOM     21  N   UNL     1      48.375   1.808   5.857  0.00  0.00    +0.000 NA
ATOM     22  H   UNL     1      47.848   2.632   5.576  0.00  0.00    +0.000 HD
ATOM     23  H   UNL     1      48.396   1.197   5.039  0.00  0.00    +0.000 HD
ENDBRANCH  20  21
ENDBRANCH  14  20
ENDBRANCH  13  17
ENDBRANCH   1  13
TORSDOF 7
ENDMDL
MODEL 2
REMARK VINA RESULT:    -7.299      1.577      2.094
REMARK INTER + INTRA:         -10.386
REMARK INTER:                  -9.835
REMARK INTRA:                  -0.551
REMARK UNBOUND:                -0.528
REMARK  Name = 
REMARK  7 active torsions:
REMARK  status: ('A' for Active; 'I' for Inactive)
REMARK    1  A    between atoms: N_1  and  C_2
REMARK    2  A    between atoms: C_2  and  C_3
REMARK    3  A    between atoms: C_6  and  O_7
REMARK    4  A    between atoms: O_7  and  C_8
REMARK    5  A    between atoms: C_8  and  C_9
REMARK    6  A    between atoms: C_14  and  C_15
REMARK    7  A    between atoms: C_15  and  N_16
REMARK                            x       y       z     vdW  Elec       q    Type
REMARK                         _______ _______ _______ _____ _____    ______ ____
ROOT
ATOM      1  C   UNL     1      43.527   4.092  10.917  0.00  0.00    +0.000 C 
ENDROOT
BRANCH   1   2
ATOM      2  C   UNL     1      44.617   4.629  11.807  0.00  0.00    +0.000 A 
ATOM      3  C   UNL     1      45.386   3.739  12.576  0.00  0.00    +0.000 A 
ATOM      4  C   UNL     1      46.402   4.216  13.398  0.00  0.00    +0.000 A 
ATOM      5  C   UNL     1      46.660   5.584  13.448  0.00  0.00    +0.000 A 
ATOM      6  F   UNL     1      47.634   6.022  14.257  0.00  0.00    +0.000 F 
ATOM      7  C   UNL     1      45.931   6.493  12.674  0.00  0.00    +0.000 A 
ATOM      8  C   UNL     1      44.911   5.998  11.850  0.00  0.00    +0.000 A 
BRANCH   7   9
ATOM      9  C   UNL     1      46.196   7.969  12.748  0.00  0.00    +0.000 C 
BRANCH   9  10
ATOM     10  N   UNL     1      44.957   8.743  12.756  0.00  0.00    +0.000 NA
ATOM     11  H   UNL     1      44.189   8.130  13.024  0.00  0.00    +0.000 HD
ATOM     12  H   UNL     1      44.758   9.050  11.806  0.00  0.00    +0.000 HD
ENDBRANCH   9  10
ENDBRANCH   7   9
ENDBRANCH   1   2
BRANCH   1  13
ATOM     13  O   UNL     1      43.797   4.384   9.540  0.00  0.00    +0.000 OA
BRANCH  13  17
ATOM     14  C   UNL     1      46.593   2.010   7.672  0.00  0.00    +0.000 A 
ATOM     15  C   UNL     1      46.576   3.384   7.433  0.00  0.00    +0.000 A 
ATOM     16  C   UNL     1      45.645   4.178   8.103  0.00  0.00    +0.000 A 
ATOM     17  C   UNL     1      44.746   3.580   8.976  0.00  0.00    +0.000 A 
ATOM     18  C   UNL     1      44.874   2.213   9.195  0.00  0.00    +0.000 A 
ATOM     19  N   UNL     1      45.762   1.417   8.563  0.00  0.00    +0.000 NA
BRANCH  14  20
ATOM     20  C   UNL     1      47.548   1.101   6.934  0.00  0.00    +0.000 C 
BRANCH  20  21
ATOM     21  N   UNL     1      48.358   1.811   5.942  0.00  0.00    +0.000 NA
ATOM     22  H   UNL     1      49.298   1.421   5.960  0.00  0.00    +0.000 HD
ATOM     23  H   UNL     1      48.451   2.778   6.256  0.00  0.00    +0.000 HD
ENDBRANCH  20  21
ENDBRANCH  14  20
ENDBRANCH  13  17
ENDBRANCH   1  13
TORSDOF 7
ENDMDL
MODEL 3
REMARK VINA RESULT:    -7.010      1.054      1.148
REMARK INTER + INTRA:          -9.996
REMARK INTER:                  -9.369
REMARK INTRA:                  -0.628
REMARK UNBOUND:                -0.528
REMARK  Name = 
REMARK  7 active torsions:
REMARK  status: ('A' for Active; 'I' for Inactive)
REMARK    1  A    between atoms: N_1  and  C_2
REMARK    2  A    between atoms: C_2  and  C_3
REMARK    3  A    between atoms: C_6  and  O_7
REMARK    4  A    between atoms: O_7  and  C_8
REMARK    5  A    between atoms: C_8  and  C_9
REMARK    6  A    between atoms: C_14  and  C_15
REMARK    7  A    between atoms: C_15  and  N_16
REMARK                            x       y       z     vdW  Elec       q    Type
REMARK                         _______ _______ _______ _____ _____    ______ ____
ROOT
ATOM      1  C   UNL     1      43.738   3.807  11.397  0.00  0.00    +0.000 C 
ENDROOT
BRANCH   1   2
ATOM      2  C   UNL     1      44.511   5.037  11.795  0.00  0.00    +0.000 A 
ATOM      3  C   UNL     1      44.029   6.306  11.433  0.00  0.00    +0.000 A 
ATOM      4  C   UNL     1      44.726   7.454  11.799  0.00  0.00    +0.000 A 
ATOM      5  C   UNL     1      45.903   7.337  12.536  0.00  0.00    +0.000 A 
ATOM      6  F   UNL     1      46.565   8.455  12.865  0.00  0.00    +0.000 F 
ATOM      7  C   UNL     1      46.395   6.089  12.934  0.00  0.00    +0.000 A 
ATOM      8  C   UNL     1      45.681   4.943  12.560  0.00  0.00    +0.000 A 
BRANCH   7   9
ATOM      9  C   UNL     1      47.675   5.967  13.707  0.00  0.00    +0.000 C 
BRANCH   9  10
ATOM     10  N   UNL     1      47.491   5.219  14.949  0.00  0.00    +0.000 NA
ATOM     11  H   UNL     1      47.841   4.273  14.817  0.00  0.00    +0.000 HD
ATOM     12  H   UNL     1      46.493   5.130  15.131  0.00  0.00    +0.000 HD
ENDBRANCH   9  10
ENDBRANCH   7   9
ENDBRANCH   1   2
BRANCH   1  13
ATOM     13  O   UNL     1      43.495   3.787   9.985  0.00  0.00    +0.000 OA
BRANCH  13  17
ATOM     14  C   UNL     1      46.510   2.297   7.612  0.00  0.00    +0.000 A 
ATOM     15  C   UNL     1      46.126   3.633   7.491  0.00  0.00    +0.000 A 
ATOM     16  C   UNL     1      45.128   4.129   8.330  0.00  0.00    +0.000 A 
ATOM     17  C   UNL     1      44.527   3.279   9.249  0.00  0.00    +0.000 A 
ATOM     18  C   UNL     1      45.014   1.980   9.337  0.00  0.00    +0.000 A 
ATOM     19  N   UNL     1      45.977   1.468   8.542  0.00  0.00    +0.000 NA
BRANCH  14  20
ATOM     20  C   UNL     1      47.551   1.699   6.694  0.00  0.00    +0.000 C 
BRANCH  20  21
ATOM     21  N   UNL     1      48.597   2.653   6.322  0.00  0.00    +0.000 NA
ATOM     22  H   UNL     1      49.065   2.304   5.488  0.00  0.00    +0.000 HD
ATOM     23  H   UNL     1      49.301   2.642   7.062  0.00  0.00    +0.000 HD
ENDBRANCH  20  21
ENDBRANCH  14  20
ENDBRANCH  13  17
ENDBRANCH   1  13
TORSDOF 7
ENDMDL
MODEL 4
REMARK VINA RESULT:    -6.968      2.461      6.356
REMARK INTER + INTRA:          -9.940
REMARK INTER:                  -9.644
REMARK INTRA:                  -0.296
REMARK UNBOUND:                -0.528
REMARK  Name = 
REMARK  7 active torsions:
REMARK  status: ('A' for Active; 'I' for Inactive)
REMARK    1  A    between atoms: N_1  and  C_2
REMARK    2  A    between atoms: C_2  and  C_3
REMARK    3  A    between atoms: C_6  and  O_7
REMARK    4  A    between atoms: O_7  and  C_8
REMARK    5  A    between atoms: C_8  and  C_9
REMARK    6  A    between atoms: C_14  and  C_15
REMARK    7  A    between atoms: C_15  and  N_16
REMARK                            x       y       z     vdW  Elec       q    Type
REMARK                         _______ _______ _______ _____ _____    ______ ____
ROOT
ATOM      1  C   UNL     1      44.198   4.753   9.782  0.00  0.00    +0.000 C 
ENDROOT
BRANCH   1   2
ATOM      2  C   UNL     1      44.913   3.654   9.042  0.00  0.00    +0.000 A 
ATOM      3  C   UNL     1      44.723   2.318   9.432  0.00  0.00    +0.000 A 
ATOM      4  C   UNL     1      45.370   1.288   8.754  0.00  0.00    +0.000 A 
ATOM      5  C   UNL     1      46.202   1.591   7.679  0.00  0.00    +0.000 A 
ATOM      6  F   UNL     1      46.826   0.585   7.050  0.00  0.00    +0.000 F 
ATOM      7  C   UNL     1      46.391   2.909   7.249  0.00  0.00    +0.000 A 
ATOM      8  C   UNL     1      45.732   3.935   7.941  0.00  0.00    +0.000 A 
BRANCH   7   9
ATOM      9  C   UNL     1      47.307   3.232   6.105  0.00  0.00    +0.000 C 
BRANCH   9  10
ATOM     10  N   UNL     1      48.631   2.641   6.286  0.00  0.00    +0.000 NA
ATOM     11  H   UNL     1      49.106   2.619   5.386  0.00  0.00    +0.000 HD
ATOM     12  H   UNL     1      48.519   1.671   6.573  0.00  0.00    +0.000 HD
ENDBRANCH   9  10
ENDBRANCH   7   9
ENDBRANCH   1   2
BRANCH   1  13
ATOM     13  O   UNL     1      45.128   5.698  10.326  0.00  0.00    +0.000 OA
BRANCH  13  17
ATOM     14  C   UNL     1      46.585   4.727  14.051  0.00  0.00    +0.000 A 
ATOM     15  C   UNL     1      47.239   5.686  13.277  0.00  0.00    +0.000 A 
ATOM     16  C   UNL     1      46.709   6.029  12.034  0.00  0.00    +0.000 A 
ATOM     17  C   UNL     1      45.558   5.395  11.586  0.00  0.00    +0.000 A 
ATOM     18  C   UNL     1      44.944   4.493  12.449  0.00  0.00    +0.000 A 
ATOM     19  N   UNL     1      45.430   4.139  13.658  0.00  0.00    +0.000 NA
BRANCH  14  20
ATOM     20  C   UNL     1      47.146   4.285  15.383  0.00  0.00    +0.000 C 
BRANCH  20  21
ATOM     21  N   UNL     1      47.842   2.999  15.310  0.00  0.00    +0.000 NA
ATOM     22  H   UNL     1      47.160   2.259  15.453  0.00  0.00    +0.000 HD
ATOM     23  H   UNL     1      48.480   2.949  16.105  0.00  0.00    +0.000 HD
ENDBRANCH  20  21
ENDBRANCH  14  20
ENDBRANCH  13  17
ENDBRANCH   1  13
TORSDOF 7
ENDMDL
MODEL 5
REMARK VINA RESULT:    -6.543      2.692      6.525
REMARK INTER + INTRA:          -9.366
REMARK INTER:                  -8.816
REMARK INTRA:                  -0.550
REMARK UNBOUND:                -0.528
REMARK  Name = 
REMARK  7 active torsions:
REMARK  status: ('A' for Active; 'I' for Inactive)
REMARK    1  A    between atoms: N_1  and  C_2
REMARK    2  A    between atoms: C_2  and  C_3
REMARK    3  A    between atoms: C_6  and  O_7
REMARK    4  A    between atoms: O_7  and  C_8
REMARK    5  A    between atoms: C_8  and  C_9
REMARK    6  A    between atoms: C_14  and  C_15
REMARK    7  A    between atoms: C_15  and  N_16
REMARK                            x       y       z     vdW  Elec       q    Type
REMARK                         _______ _______ _______ _____ _____    ______ ____
ROOT
ATOM      1  C   UNL     1      44.820   5.000   9.151  0.00  0.00    +0.000 C 
ENDROOT
BRANCH   1   2
ATOM      2  C   UNL     1      45.371   3.672   8.700  0.00  0.00    +0.000 A 
ATOM      3  C   UNL     1      44.750   2.484   9.121  0.00  0.00    +0.000 A 
ATOM      4  C   UNL     1      45.241   1.249   8.708  0.00  0.00    +0.000 A 
ATOM      5  C   UNL     1      46.348   1.198   7.864  0.00  0.00    +0.000 A 
ATOM      6  F   UNL     1      46.812  -0.002   7.490  0.00  0.00    +0.000 F 
ATOM      7  C   UNL     1      46.972   2.363   7.405  0.00  0.00    +0.000 A 
ATOM      8  C   UNL     1      46.466   3.600   7.829  0.00  0.00    +0.000 A 
BRANCH   7   9
ATOM      9  C   UNL     1      48.180   2.303   6.516  0.00  0.00    +0.000 C 
BRANCH   9  10
ATOM     10  N   UNL     1      47.909   2.863   5.194  0.00  0.00    +0.000 NA
ATOM     11  H   UNL     1      48.560   3.627   5.023  0.00  0.00    +0.000 HD
ATOM     12  H   UNL     1      46.979   3.279   5.200  0.00  0.00    +0.000 HD
ENDBRANCH   9  10
ENDBRANCH   7   9
ENDBRANCH   1   2
BRANCH   1  13
ATOM     13  O   UNL     1      44.389   4.940  10.517  0.00  0.00    +0.000 OA
BRANCH  13  17
ATOM     14  C   UNL     1      47.205   5.878  13.369  0.00  0.00    +0.000 A 
ATOM     15  C   UNL     1      46.284   4.858  13.610  0.00  0.00    +0.000 A 
ATOM     16  C   UNL     1      45.362   4.529  12.617  0.00  0.00    +0.000 A 
ATOM     17  C   UNL     1      45.368   5.237  11.422  0.00  0.00    +0.000 A 
ATOM     18  C   UNL     1      46.358   6.198  11.249  0.00  0.00    +0.000 A 
ATOM     19  N   UNL     1      47.264   6.540  12.189  0.00  0.00    +0.000 NA
BRANCH  14  20
ATOM     20  C   UNL     1      48.192   6.305  14.432  0.00  0.00    +0.000 C 
BRANCH  20  21
ATOM     21  N   UNL     1      49.449   6.805  13.872  0.00  0.00    +0.000 NA
ATOM     22  H   UNL     1      49.782   6.133  13.185  0.00  0.00    +0.000 HD
ATOM     23  H   UNL     1      50.141   6.804  14.623  0.00  0.00    +0.000 HD
ENDBRANCH  20  21
ENDBRANCH  14  20
ENDBRANCH  13  17
ENDBRANCH   1  13
TORSDOF 7
ENDMDL
MODEL 6
REMARK VINA RESULT:    -5.971      3.224      6.468
REMARK INTER + INTRA:          -8.593
REMARK INTER:                  -8.076
REMARK INTRA:                  -0.517
REMARK UNBOUND:                -0.528
REMARK  Name = 
REMARK  7 active torsions:
REMARK  status: ('A' for Active; 'I' for Inactive)
REMARK    1  A    between atoms: N_1  and  C_2
REMARK    2  A    between atoms: C_2  and  C_3
REMARK    3  A    between atoms: C_6  and  O_7
REMARK    4  A    between atoms: O_7  and  C_8
REMARK    5  A    between atoms: C_8  and  C_9
REMARK    6  A    between atoms: C_14  and  C_15
REMARK    7  A    between atoms: C_15  and  N_16
REMARK                            x       y       z     vdW  Elec       q    Type
REMARK                         _______ _______ _______ _____ _____    ______ ____
ROOT
ATOM      1  C   UNL     1      45.211   6.372  11.147  0.00  0.00    +0.000 C 
ENDROOT
BRANCH   1   2
ATOM      2  C   UNL     1      45.022   5.031  10.486  0.00  0.00    +0.000 A 
ATOM      3  C   UNL     1      44.323   4.017  11.163  0.00  0.00    +0.000 A 
ATOM      4  C   UNL     1      44.132   2.775  10.565  0.00  0.00    +0.000 A 
ATOM      5  C   UNL     1      44.632   2.545   9.285  0.00  0.00    +0.000 A 
ATOM      6  F   UNL     1      44.449   1.337   8.734  0.00  0.00    +0.000 F 
ATOM      7  C   UNL     1      45.309   3.542   8.575  0.00  0.00    +0.000 A 
ATOM      8  C   UNL     1      45.492   4.789   9.189  0.00  0.00    +0.000 A 
BRANCH   7   9
ATOM      9  C   UNL     1      45.866   3.283   7.206  0.00  0.00    +0.000 C 
BRANCH   9  10
ATOM     10  N   UNL     1      46.921   4.233   6.860  0.00  0.00    +0.000 NA
ATOM     11  H   UNL     1      47.218   4.715   7.706  0.00  0.00    +0.000 HD
ATOM     12  H   UNL     1      46.530   4.947   6.248  0.00  0.00    +0.000 HD
ENDBRANCH   9  10
ENDBRANCH   7   9
ENDBRANCH   1   2
BRANCH   1  13
ATOM     13  O   UNL     1      45.569   6.220  12.526  0.00  0.00    +0.000 OA
BRANCH  13  17
ATOM     14  C   UNL     1      49.402   7.523  13.269  0.00  0.00    +0.000 A 
ATOM     15  C   UNL     1      48.679   8.062  12.205  0.00  0.00    +0.000 A 
ATOM     16  C   UNL     1      47.368   7.635  11.991  0.00  0.00    +0.000 A 
ATOM     17  C   UNL     1      46.822   6.671  12.829  0.00  0.00    +0.000 A 
ATOM     18  C   UNL     1      47.597   6.233  13.897  0.00  0.00    +0.000 A 
ATOM     19  N   UNL     1      48.867   6.625  14.132  0.00  0.00    +0.000 NA
BRANCH  14  20
ATOM     20  C   UNL     1      50.841   7.916  13.513  0.00  0.00    +0.000 C 
BRANCH  20  21
ATOM     21  N   UNL     1      51.605   8.075  12.274  0.00  0.00    +0.000 NA
ATOM     22  H   UNL     1      51.446   9.016  11.921  0.00  0.00    +0.000 HD
ATOM     23  H   UNL     1      51.202   7.444  11.581  0.00  0.00    +0.000 HD
ENDBRANCH  20  21
ENDBRANCH  14  20
ENDBRANCH  13  17
ENDBRANCH   1  13
TORSDOF 7
ENDMDL
MODEL 7
REMARK VINA RESULT:    -5.825      2.775      6.712
REMARK INTER + INTRA:          -8.395
REMARK INTER:                  -7.982
REMARK INTRA:                  -0.414
REMARK UNBOUND:                -0.528
REMARK  Name = 
REMARK  7 active torsions:
REMARK  status: ('A' for Active; 'I' for Inactive)
REMARK    1  A    between atoms: N_1  and  C_2
REMARK    2  A    between atoms: C_2  and  C_3
REMARK    3  A    between atoms: C_6  and  O_7
REMARK    4  A    between atoms: O_7  and  C_8
REMARK    5  A    between atoms: C_8  and  C_9
REMARK    6  A    between atoms: C_14  and  C_15
REMARK    7  A    between atoms: C_15  and  N_16
REMARK                            x       y       z     vdW  Elec       q    Type
REMARK                         _______ _______ _______ _____ _____    ______ ____
ROOT
ATOM      1  C   UNL     1      44.935   4.539  12.915  0.00  0.00    +0.000 C 
ENDROOT
BRANCH   1   2
ATOM      2  C   UNL     1      45.085   4.359  11.427  0.00  0.00    +0.000 A 
ATOM      3  C   UNL     1      45.478   5.449  10.632  0.00  0.00    +0.000 A 
ATOM      4  C   UNL     1      45.629   5.299   9.257  0.00  0.00    +0.000 A 
ATOM      5  C   UNL     1      45.397   4.056   8.672  0.00  0.00    +0.000 A 
ATOM      6  F   UNL     1      45.534   3.938   7.345  0.00  0.00    +0.000 F 
ATOM      7  C   UNL     1      45.030   2.945   9.439  0.00  0.00    +0.000 A 
ATOM      8  C   UNL     1      44.884   3.111  10.823  0.00  0.00    +0.000 A 
BRANCH   7   9
ATOM      9  C   UNL     1      44.758   1.614   8.802  0.00  0.00    +0.000 C 
BRANCH   9  10
ATOM     10  N   UNL     1      45.988   0.964   8.356  0.00  0.00    +0.000 NA
ATOM     11  H   UNL     1      46.184   0.177   8.971  0.00  0.00    +0.000 HD
ATOM     12  H   UNL     1      46.762   1.615   8.471  0.00  0.00    +0.000 HD
ENDBRANCH   9  10
ENDBRANCH   7   9
ENDBRANCH   1   2
BRANCH   1  13
ATOM     13  O   UNL     1      45.926   3.787  13.627  0.00  0.00    +0.000 OA
BRANCH  13  17
ATOM     14  C   UNL     1      48.656   6.082  15.683  0.00  0.00    +0.000 A 
ATOM     15  C   UNL     1      48.200   6.498  14.432  0.00  0.00    +0.000 A 
ATOM     16  C   UNL     1      47.247   5.727  13.767  0.00  0.00    +0.000 A 
ATOM     17  C   UNL     1      46.790   4.555  14.355  0.00  0.00    +0.000 A 
ATOM     18  C   UNL     1      47.259   4.248  15.628  0.00  0.00    +0.000 A 
ATOM     19  N   UNL     1      48.180   4.973  16.298  0.00  0.00    +0.000 NA
BRANCH  14  20
ATOM     20  C   UNL     1      49.724   6.856  16.421  0.00  0.00    +0.000 C 
BRANCH  20  21
ATOM     21  N   UNL     1      51.008   6.154  16.466  0.00  0.00    +0.000 NA
ATOM     22  H   UNL     1      51.150   5.694  15.570  0.00  0.00    +0.000 HD
ATOM     23  H   UNL     1      50.925   5.406  17.155  0.00  0.00    +0.000 HD
ENDBRANCH  20  21
ENDBRANCH  14  20
ENDBRANCH  13  17
ENDBRANCH   1  13
TORSDOF 7
ENDMDL
MODEL 8
REMARK VINA RESULT:    -5.770      3.831      7.960
REMARK INTER + INTRA:          -8.322
REMARK INTER:                  -7.979
REMARK INTRA:                  -0.343
REMARK UNBOUND:                -0.528
REMARK  Name = 
REMARK  7 active torsions:
REMARK  status: ('A' for Active; 'I' for Inactive)
REMARK    1  A    between atoms: N_1  and  C_2
REMARK    2  A    between atoms: C_2  and  C_3
REMARK    3  A    between atoms: C_6  and  O_7
REMARK    4  A    between atoms: O_7  and  C_8
REMARK    5  A    between atoms: C_8  and  C_9
REMARK    6  A    between atoms: C_14  and  C_15
REMARK    7  A    between atoms: C_15  and  N_16
REMARK                            x       y       z     vdW  Elec       q    Type
REMARK                         _______ _______ _______ _____ _____    ______ ____
ROOT
ATOM      1  C   UNL     1      47.238   5.120  14.126  0.00  0.00    +0.000 C 
ENDROOT
BRANCH   1   2
ATOM      2  C   UNL     1      46.080   5.198  13.165  0.00  0.00    +0.000 A 
ATOM      3  C   UNL     1      45.486   6.443  12.895  0.00  0.00    +0.000 A 
ATOM      4  C   UNL     1      44.421   6.535  12.005  0.00  0.00    +0.000 A 
ATOM      5  C   UNL     1      43.951   5.384  11.374  0.00  0.00    +0.000 A 
ATOM      6  F   UNL     1      42.915   5.495  10.532  0.00  0.00    +0.000 F 
ATOM      7  C   UNL     1      44.538   4.135  11.602  0.00  0.00    +0.000 A 
ATOM      8  C   UNL     1      45.612   4.058  12.500  0.00  0.00    +0.000 A 
BRANCH   7   9
ATOM      9  C   UNL     1      44.014   2.895  10.939  0.00  0.00    +0.000 C 
BRANCH   9  10
ATOM     10  N   UNL     1      43.047   2.196  11.782  0.00  0.00    +0.000 NA
ATOM     11  H   UNL     1      43.352   2.259  12.751  0.00  0.00    +0.000 HD
ATOM     12  H   UNL     1      43.061   1.206  11.544  0.00  0.00    +0.000 HD
ENDBRANCH   9  10
ENDBRANCH   7   9
ENDBRANCH   1   2
BRANCH   1  13
ATOM     13  O   UNL     1      47.172   3.926  14.916  0.00  0.00    +0.000 OA
BRANCH  13  17
ATOM     14  C   UNL     1      48.645   4.242  18.746  0.00  0.00    +0.000 A 
ATOM     15  C   UNL     1      48.259   2.997  18.250  0.00  0.00    +0.000 A 
ATOM     16  C   UNL     1      47.797   2.903  16.937  0.00  0.00    +0.000 A 
ATOM     17  C   UNL     1      47.714   4.053  16.163  0.00  0.00    +0.000 A 
ATOM     18  C   UNL     1      48.173   5.240  16.722  0.00  0.00    +0.000 A 
ATOM     19  N   UNL     1      48.626   5.365  17.988  0.00  0.00    +0.000 NA
BRANCH  14  20
ATOM     20  C   UNL     1      49.106   4.403  20.177  0.00  0.00    +0.000 C 
BRANCH  20  21
ATOM     21  N   UNL     1      47.994   4.486  21.126  0.00  0.00    +0.000 NA
ATOM     22  H   UNL     1      47.872   3.571  21.555  0.00  0.00    +0.000 HD
ATOM     23  H   UNL     1      47.143   4.659  20.590  0.00  0.00    +0.000 HD
ENDBRANCH  20  21
ENDBRANCH  14  20
ENDBRANCH  13  17
ENDBRANCH   1  13
TORSDOF 7
ENDMDL
MODEL 9
REMARK VINA RESULT:    -5.582      4.652      6.243
REMARK INTER + INTRA:          -8.068
REMARK INTER:                  -7.703
REMARK INTRA:                  -0.365
REMARK UNBOUND:                -0.528
REMARK  Name = 
REMARK  7 active torsions:
REMARK  status: ('A' for Active; 'I' for Inactive)
REMARK    1  A    between atoms: N_1  and  C_2
REMARK    2  A    between atoms: C_2  and  C_3
REMARK    3  A    between atoms: C_6  and  O_7
REMARK    4  A    between atoms: O_7  and  C_8
REMARK    5  A    between atoms: C_8  and  C_9
REMARK    6  A    between atoms: C_14  and  C_15
REMARK    7  A    between atoms: C_15  and  N_16
REMARK                            x       y       z     vdW  Elec       q    Type
REMARK                         _______ _______ _______ _____ _____    ______ ____
ROOT
ATOM      1  C   UNL     1      48.420   6.787  14.682  0.00  0.00    +0.000 C 
ENDROOT
BRANCH   1   2
ATOM      2  C   UNL     1      48.769   6.233  16.039  0.00  0.00    +0.000 A 
ATOM      3  C   UNL     1      49.578   6.985  16.908  0.00  0.00    +0.000 A 
ATOM      4  C   UNL     1      49.904   6.492  18.168  0.00  0.00    +0.000 A 
ATOM      5  C   UNL     1      49.414   5.250  18.568  0.00  0.00    +0.000 A 
ATOM      6  F   UNL     1      49.752   4.789  19.779  0.00  0.00    +0.000 F 
ATOM      7  C   UNL     1      48.585   4.490  17.736  0.00  0.00    +0.000 A 
ATOM      8  C   UNL     1      48.264   5.000  16.470  0.00  0.00    +0.000 A 
BRANCH   7   9
ATOM      9  C   UNL     1      48.079   3.142  18.161  0.00  0.00    +0.000 C 
BRANCH   9  10
ATOM     10  N   UNL     1      46.730   2.887  17.662  0.00  0.00    +0.000 NA
ATOM     11  H   UNL     1      46.783   2.204  16.909  0.00  0.00    +0.000 HD
ATOM     12  H   UNL     1      46.368   3.742  17.246  0.00  0.00    +0.000 HD
ENDBRANCH   9  10
ENDBRANCH   7   9
ENDBRANCH   1   2
BRANCH   1  13
ATOM     13  O   UNL     1      48.232   5.734  13.729  0.00  0.00    +0.000 OA
BRANCH  13  17
ATOM     14  C   UNL     1      44.256   5.249  12.784  0.00  0.00    +0.000 A 
ATOM     15  C   UNL     1      44.877   6.478  12.564  0.00  0.00    +0.000 A 
ATOM     16  C   UNL     1      46.235   6.613  12.855  0.00  0.00    +0.000 A 
ATOM     17  C   UNL     1      46.929   5.528  13.376  0.00  0.00    +0.000 A 
ATOM     18  C   UNL     1      46.241   4.327  13.509  0.00  0.00    +0.000 A 
ATOM     19  N   UNL     1      44.929   4.164  13.236  0.00  0.00    +0.000 NA
BRANCH  14  20
ATOM     20  C   UNL     1      42.776   5.067  12.531  0.00  0.00    +0.000 C 
BRANCH  20  21
ATOM     21  N   UNL     1      42.183   6.184  11.795  0.00  0.00    +0.000 NA
ATOM     22  H   UNL     1      41.173   6.141  11.909  0.00  0.00    +0.000 HD
ATOM     23  H   UNL     1      42.359   6.026  10.802  0.00  0.00    +0.000 HD
ENDBRANCH  20  21
ENDBRANCH  14  20
ENDBRANCH  13  17
ENDBRANCH   1  13
TORSDOF 7
ENDMDL
