MODEL 1
REMARK VINA RESULT:    -7.855      0.000      0.000
REMARK INTER + INTRA:         -12.237
REMARK INTER:                 -11.759
REMARK INTRA:                  -0.478
REMARK UNBOUND:                -0.478
REMARK  Name = 
REMARK  10 active torsions:
REMARK  status: ('A' for Active; 'I' for Inactive)
REMARK    1  A    between atoms: C_1  and  C_2
REMARK    2  A    between atoms: C_2  and  C_3
REMARK    3  A    between atoms: C_2  and  C_17
REMARK    4  A    between atoms: C_3  and  N_4
REMARK    5  A    between atoms: N_4  and  C_5
REMARK    6  A    between atoms: C_8  and  C_9
REMARK    7  A    between atoms: C_9  and  N_11
REMARK    8  A    between atoms: C_12  and  C_13
REMARK    9  A    between atoms: C_13  and  O_14
REMARK   10  A    between atoms: C_21  and  C_22
REMARK                            x       y       z     vdW  Elec       q    Type
REMARK                         _______ _______ _______ _____ _____    ______ ____
ROOT
ATOM      1  N   UNK     1      46.367   5.743  11.641  0.00  0.00    +0.000 N 
ATOM      2  H   UNK     1      47.159   6.252  11.254  0.00  0.00    +0.000 HD
ENDROOT
BRANCH   1   3
ATOM      3  C   UNK     1      46.688   5.172  12.880  0.00  0.00    +0.000 A 
ATOM      4  C   UNK     1      47.175   5.984  13.910  0.00  0.00    +0.000 A 
ATOM      5  C   UNK     1      47.517   5.435  15.147  0.00  0.00    +0.000 A 
ATOM      6  C   UNK     1      47.412   4.059  15.305  0.00  0.00    +0.000 A 
ATOM      7  N   UNK     1      47.010   3.223  14.313  0.00  0.00    +0.000 NA
ATOM      8  C   UNK     1      46.681   3.799  13.135  0.00  0.00    +0.000 A 
BRANCH   6   9
ATOM      9  C   UNK     1      47.739   3.429  16.626  0.00  0.00    +0.000 C 
ATOM     10  O   UNK     1      46.837   3.043  17.363  0.00  0.00    +0.000 OA
BRANCH   9  11
ATOM     11  N   UNK     1      49.083   3.358  16.926  0.00  0.00    +0.000 NA
ATOM     12  C   UNK     1      49.587   2.172  16.994  0.00  0.00    +0.000 C 
BRANCH  12  13
ATOM     13  C   UNK     1      51.041   1.997  17.353  0.00  0.00    +0.000 C 
BRANCH  13  14
ATOM     14  O   UNK     1      51.277   0.648  17.718  0.00  0.00    +0.000 OA
ATOM     15  H   UNK     1      50.766   0.104  17.091  0.00  0.00    +0.000 HD
ENDBRANCH  13  14
ENDBRANCH  12  13
ENDBRANCH   9  11
ENDBRANCH   6   9
ENDBRANCH   1   3
BRANCH   1  16
ATOM     16  C   UNK     1      45.146   6.543  11.582  0.00  0.00    +0.000 C 
BRANCH  16  18
ATOM     17  C   UNK     1      42.687   5.794  11.567  0.00  0.00    +0.000 C 
ATOM     18  C   UNK     1      44.071   5.670  11.011  0.00  0.00    +0.000 C 
BRANCH  18  19
ATOM     19  C   UNK     1      44.453   4.467  10.259  0.00  0.00    +0.000 A 
ATOM     20  C   UNK     1      43.921   3.222  10.615  0.00  0.00    +0.000 A 
ATOM     21  C   UNK     1      44.306   2.065   9.937  0.00  0.00    +0.000 A 
ATOM     22  C   UNK     1      45.209   2.143   8.879  0.00  0.00    +0.000 A 
ATOM     23  C   UNK     1      45.736   3.382   8.486  0.00  0.00    +0.000 A 
ATOM     24  C   UNK     1      45.360   4.538   9.194  0.00  0.00    +0.000 A 
BRANCH  23  25
ATOM     25  C   UNK     1      46.682   3.485   7.314  0.00  0.00    +0.000 C 
ATOM     26  F   UNK     1      47.416   4.631   7.304  0.00  0.00    +0.000 F 
ATOM     27  F   UNK     1      47.584   2.465   7.285  0.00  0.00    +0.000 F 
ATOM     28  F   UNK     1      46.034   3.445   6.117  0.00  0.00    +0.000 F 
ENDBRANCH  23  25
ENDBRANCH  18  19
ENDBRANCH  16  18
ENDBRANCH   1  16
TORSDOF 9
ENDMDL
MODEL 2
REMARK VINA RESULT:    -7.735      1.265      1.908
REMARK INTER + INTRA:         -12.056
REMARK INTER:                 -10.887
REMARK INTRA:                  -1.170
REMARK UNBOUND:                -0.478
REMARK  Name = 
REMARK  10 active torsions:
REMARK  status: ('A' for Active; 'I' for Inactive)
REMARK    1  A    between atoms: C_1  and  C_2
REMARK    2  A    between atoms: C_2  and  C_3
REMARK    3  A    between atoms: C_2  and  C_17
REMARK    4  A    between atoms: C_3  and  N_4
REMARK    5  A    between atoms: N_4  and  C_5
REMARK    6  A    between atoms: C_8  and  C_9
REMARK    7  A    between atoms: C_9  and  N_11
REMARK    8  A    between atoms: C_12  and  C_13
REMARK    9  A    between atoms: C_13  and  O_14
REMARK   10  A    between atoms: C_21  and  C_22
REMARK                            x       y       z     vdW  Elec       q    Type
REMARK                         _______ _______ _______ _____ _____    ______ ____
ROOT
ATOM      1  N   UNK     1      47.098   6.858  12.606  0.00  0.00    +0.000 N 
ATOM      2  H   UNK     1      47.930   7.425  12.455  0.00  0.00    +0.000 HD
ENDROOT
BRANCH   1   3
ATOM      3  C   UNK     1      47.335   5.859  13.560  0.00  0.00    +0.000 A 
ATOM      4  C   UNK     1      46.786   4.585  13.377  0.00  0.00    +0.000 A 
ATOM      5  C   UNK     1      46.994   3.579  14.322  0.00  0.00    +0.000 A 
ATOM      6  C   UNK     1      47.713   3.893  15.467  0.00  0.00    +0.000 A 
ATOM      7  N   UNK     1      48.208   5.133  15.720  0.00  0.00    +0.000 NA
ATOM      8  C   UNK     1      47.989   6.074  14.775  0.00  0.00    +0.000 A 
BRANCH   6   9
ATOM      9  C   UNK     1      47.989   2.836  16.494  0.00  0.00    +0.000 C 
ATOM     10  O   UNK     1      47.197   2.651  17.414  0.00  0.00    +0.000 OA
BRANCH   9  11
ATOM     11  N   UNK     1      49.172   2.149  16.327  0.00  0.00    +0.000 NA
ATOM     12  C   UNK     1      50.020   2.238  17.295  0.00  0.00    +0.000 C 
BRANCH  12  13
ATOM     13  C   UNK     1      51.357   1.549  17.183  0.00  0.00    +0.000 C 
BRANCH  13  14
ATOM     14  O   UNK     1      51.371   0.407  18.022  0.00  0.00    +0.000 OA
ATOM     15  H   UNK     1      50.438   0.152  18.148  0.00  0.00    +0.000 HD
ENDBRANCH  13  14
ENDBRANCH  12  13
ENDBRANCH   9  11
ENDBRANCH   6   9
ENDBRANCH   1   3
BRANCH   1  16
ATOM     16  C   UNK     1      45.918   7.695  12.808  0.00  0.00    +0.000 C 
BRANCH  16  18
ATOM     17  C   UNK     1      44.277   8.711  11.111  0.00  0.00    +0.000 C 
ATOM     18  C   UNK     1      45.042   7.524  11.605  0.00  0.00    +0.000 C 
BRANCH  18  19
ATOM     19  C   UNK     1      44.631   6.170  11.208  0.00  0.00    +0.000 A 
ATOM     20  C   UNK     1      43.653   5.492  11.946  0.00  0.00    +0.000 A 
ATOM     21  C   UNK     1      43.283   4.191  11.605  0.00  0.00    +0.000 A 
ATOM     22  C   UNK     1      43.868   3.561  10.509  0.00  0.00    +0.000 A 
ATOM     23  C   UNK     1      44.831   4.229   9.738  0.00  0.00    +0.000 A 
ATOM     24  C   UNK     1      45.216   5.531  10.107  0.00  0.00    +0.000 A 
BRANCH  23  25
ATOM     25  C   UNK     1      45.442   3.574   8.523  0.00  0.00    +0.000 C 
ATOM     26  F   UNK     1      46.468   4.284   7.978  0.00  0.00    +0.000 F 
ATOM     27  F   UNK     1      45.949   2.340   8.800  0.00  0.00    +0.000 F 
ATOM     28  F   UNK     1      44.538   3.391   7.521  0.00  0.00    +0.000 F 
ENDBRANCH  23  25
ENDBRANCH  18  19
ENDBRANCH  16  18
ENDBRANCH   1  16
TORSDOF 9
ENDMDL
MODEL 3
REMARK VINA RESULT:    -7.532      2.765      3.505
REMARK INTER + INTRA:         -11.752
REMARK INTER:                 -10.478
REMARK INTRA:                  -1.274
REMARK UNBOUND:                -0.478
REMARK  Name = 
REMARK  10 active torsions:
REMARK  status: ('A' for Active; 'I' for Inactive)
REMARK    1  A    between atoms: C_1  and  C_2
REMARK    2  A    between atoms: C_2  and  C_3
REMARK    3  A    between atoms: C_2  and  C_17
REMARK    4  A    between atoms: C_3  and  N_4
REMARK    5  A    between atoms: N_4  and  C_5
REMARK    6  A    between atoms: C_8  and  C_9
REMARK    7  A    between atoms: C_9  and  N_11
REMARK    8  A    between atoms: C_12  and  C_13
REMARK    9  A    between atoms: C_13  and  O_14
REMARK   10  A    between atoms: C_21  and  C_22
REMARK                            x       y       z     vdW  Elec       q    Type
REMARK                         _______ _______ _______ _____ _____    ______ ____
ROOT
ATOM      1  N   UNK     1      43.821   4.598  12.773  0.00  0.00    +0.000 N 
ATOM      2  H   UNK     1      43.804   3.655  13.156  0.00  0.00    +0.000 HD
ENDROOT
BRANCH   1   3
ATOM      3  C   UNK     1      45.062   5.211  12.995  0.00  0.00    +0.000 A 
ATOM      4  C   UNK     1      45.344   6.440  12.390  0.00  0.00    +0.000 A 
ATOM      5  C   UNK     1      46.579   7.061  12.583  0.00  0.00    +0.000 A 
ATOM      6  C   UNK     1      47.533   6.400  13.346  0.00  0.00    +0.000 A 
ATOM      7  N   UNK     1      47.329   5.176  13.897  0.00  0.00    +0.000 NA
ATOM      8  C   UNK     1      46.117   4.615  13.690  0.00  0.00    +0.000 A 
BRANCH   6   9
ATOM      9  C   UNK     1      48.863   7.044  13.606  0.00  0.00    +0.000 C 
ATOM     10  O   UNK     1      49.299   7.888  12.828  0.00  0.00    +0.000 OA
BRANCH   9  11
ATOM     11  N   UNK     1      49.523   6.594  14.729  0.00  0.00    +0.000 NA
ATOM     12  C   UNK     1      49.773   7.481  15.632  0.00  0.00    +0.000 C 
BRANCH  12  13
ATOM     13  C   UNK     1      50.525   7.087  16.879  0.00  0.00    +0.000 C 
BRANCH  13  14
ATOM     14  O   UNK     1      51.578   6.204  16.535  0.00  0.00    +0.000 OA
ATOM     15  H   UNK     1      52.359   6.505  17.035  0.00  0.00    +0.000 HD
ENDBRANCH  13  14
ENDBRANCH  12  13
ENDBRANCH   9  11
ENDBRANCH   6   9
ENDBRANCH   1   3
BRANCH   1  16
ATOM     16  C   UNK     1      43.310   4.622  11.405  0.00  0.00    +0.000 C 
BRANCH  16  18
ATOM     17  C   UNK     1      43.567   2.065  11.448  0.00  0.00    +0.000 C 
ATOM     18  C   UNK     1      43.775   3.365  10.736  0.00  0.00    +0.000 C 
BRANCH  18  19
ATOM     19  C   UNK     1      44.762   3.456   9.651  0.00  0.00    +0.000 A 
ATOM     20  C   UNK     1      45.184   4.710   9.194  0.00  0.00    +0.000 A 
ATOM     21  C   UNK     1      46.088   4.812   8.137  0.00  0.00    +0.000 A 
ATOM     22  C   UNK     1      46.600   3.661   7.541  0.00  0.00    +0.000 A 
ATOM     23  C   UNK     1      46.213   2.393   7.998  0.00  0.00    +0.000 A 
ATOM     24  C   UNK     1      45.280   2.303   9.048  0.00  0.00    +0.000 A 
BRANCH  23  25
ATOM     25  C   UNK     1      46.792   1.140   7.389  0.00  0.00    +0.000 C 
ATOM     26  F   UNK     1      46.599   1.046   6.045  0.00  0.00    +0.000 F 
ATOM     27  F   UNK     1      48.138   1.047   7.579  0.00  0.00    +0.000 F 
ATOM     28  F   UNK     1      46.259   0.007   7.925  0.00  0.00    +0.000 F 
ENDBRANCH  23  25
ENDBRANCH  18  19
ENDBRANCH  16  18
ENDBRANCH   1  16
TORSDOF 9
ENDMDL
MODEL 4
REMARK VINA RESULT:    -7.248      1.448      2.154
REMARK INTER + INTRA:         -11.327
REMARK INTER:                 -10.870
REMARK INTRA:                  -0.457
REMARK UNBOUND:                -0.478
REMARK  Name = 
REMARK  10 active torsions:
REMARK  status: ('A' for Active; 'I' for Inactive)
REMARK    1  A    between atoms: C_1  and  C_2
REMARK    2  A    between atoms: C_2  and  C_3
REMARK    3  A    between atoms: C_2  and  C_17
REMARK    4  A    between atoms: C_3  and  N_4
REMARK    5  A    between atoms: N_4  and  C_5
REMARK    6  A    between atoms: C_8  and  C_9
REMARK    7  A    between atoms: C_9  and  N_11
REMARK    8  A    between atoms: C_12  and  C_13
REMARK    9  A    between atoms: C_13  and  O_14
REMARK   10  A    between atoms: C_21  and  C_22
REMARK                            x       y       z     vdW  Elec       q    Type
REMARK                         _______ _______ _______ _____ _____    ______ ____
ROOT
ATOM      1  N   UNK     1      46.260   5.874  11.499  0.00  0.00    +0.000 N 
ATOM      2  H   UNK     1      47.024   6.357  11.031  0.00  0.00    +0.000 HD
ENDROOT
BRANCH   1   3
ATOM      3  C   UNK     1      46.640   5.450  12.780  0.00  0.00    +0.000 A 
ATOM      4  C   UNK     1      47.434   6.283  13.576  0.00  0.00    +0.000 A 
ATOM      5  C   UNK     1      47.838   5.876  14.849  0.00  0.00    +0.000 A 
ATOM      6  C   UNK     1      47.476   4.605  15.277  0.00  0.00    +0.000 A 
ATOM      7  N   UNK     1      46.765   3.737  14.513  0.00  0.00    +0.000 NA
ATOM      8  C   UNK     1      46.388   4.175  13.291  0.00  0.00    +0.000 A 
BRANCH   6   9
ATOM      9  C   UNK     1      47.862   4.137  16.648  0.00  0.00    +0.000 C 
ATOM     10  O   UNK     1      48.688   3.239  16.782  0.00  0.00    +0.000 OA
BRANCH   9  11
ATOM     11  N   UNK     1      47.208   4.764  17.688  0.00  0.00    +0.000 NA
ATOM     12  C   UNK     1      47.961   5.295  18.592  0.00  0.00    +0.000 C 
BRANCH  12  13
ATOM     13  C   UNK     1      47.332   5.971  19.785  0.00  0.00    +0.000 C 
BRANCH  13  14
ATOM     14  O   UNK     1      47.577   5.197  20.947  0.00  0.00    +0.000 OA
ATOM     15  H   UNK     1      48.547   5.121  21.023  0.00  0.00    +0.000 HD
ENDBRANCH  13  14
ENDBRANCH  12  13
ENDBRANCH   9  11
ENDBRANCH   6   9
ENDBRANCH   1   3
BRANCH   1  16
ATOM     16  C   UNK     1      45.015   6.630  11.398  0.00  0.00    +0.000 C 
BRANCH  16  18
ATOM     17  C   UNK     1      42.601   5.769  11.585  0.00  0.00    +0.000 C 
ATOM     18  C   UNK     1      43.952   5.676  10.949  0.00  0.00    +0.000 C 
BRANCH  18  19
ATOM     19  C   UNK     1      44.346   4.448  10.244  0.00  0.00    +0.000 A 
ATOM     20  C   UNK     1      43.843   3.210  10.662  0.00  0.00    +0.000 A 
ATOM     21  C   UNK     1      44.240   2.033  10.029  0.00  0.00    +0.000 A 
ATOM     22  C   UNK     1      45.126   2.081   8.955  0.00  0.00    +0.000 A 
ATOM     23  C   UNK     1      45.624   3.310   8.500  0.00  0.00    +0.000 A 
ATOM     24  C   UNK     1      45.236   4.489   9.163  0.00  0.00    +0.000 A 
BRANCH  23  25
ATOM     25  C   UNK     1      46.550   3.380   7.311  0.00  0.00    +0.000 C 
ATOM     26  F   UNK     1      47.553   2.460   7.346  0.00  0.00    +0.000 F 
ATOM     27  F   UNK     1      45.897   3.174   6.133  0.00  0.00    +0.000 F 
ATOM     28  F   UNK     1      47.158   4.593   7.195  0.00  0.00    +0.000 F 
ENDBRANCH  23  25
ENDBRANCH  18  19
ENDBRANCH  16  18
ENDBRANCH   1  16
TORSDOF 9
ENDMDL
MODEL 5
REMARK VINA RESULT:    -7.039      4.742      8.167
REMARK INTER + INTRA:         -11.014
REMARK INTER:                  -9.960
REMARK INTRA:                  -1.054
REMARK UNBOUND:                -0.478
REMARK  Name = 
REMARK  10 active torsions:
REMARK  status: ('A' for Active; 'I' for Inactive)
REMARK    1  A    between atoms: C_1  and  C_2
REMARK    2  A    between atoms: C_2  and  C_3
REMARK    3  A    between atoms: C_2  and  C_17
REMARK    4  A    between atoms: C_3  and  N_4
REMARK    5  A    between atoms: N_4  and  C_5
REMARK    6  A    between atoms: C_8  and  C_9
REMARK    7  A    between atoms: C_9  and  N_11
REMARK    8  A    between atoms: C_12  and  C_13
REMARK    9  A    between atoms: C_13  and  O_14
REMARK   10  A    between atoms: C_21  and  C_22
REMARK                            x       y       z     vdW  Elec       q    Type
REMARK                         _______ _______ _______ _____ _____    ______ ____
ROOT
ATOM      1  N   UNK     1      46.764   7.502  13.685  0.00  0.00    +0.000 N 
ATOM      2  H   UNK     1      46.504   8.454  13.434  0.00  0.00    +0.000 HD
ENDROOT
BRANCH   1   3
ATOM      3  C   UNK     1      46.077   6.567  12.900  0.00  0.00    +0.000 A 
ATOM      4  C   UNK     1      46.182   5.204  13.199  0.00  0.00    +0.000 A 
ATOM      5  C   UNK     1      45.519   4.252  12.421  0.00  0.00    +0.000 A 
ATOM      6  C   UNK     1      44.802   4.693  11.316  0.00  0.00    +0.000 A 
ATOM      7  N   UNK     1      44.728   5.998  10.948  0.00  0.00    +0.000 NA
ATOM      8  C   UNK     1      45.378   6.885  11.734  0.00  0.00    +0.000 A 
BRANCH   6   9
ATOM      9  C   UNK     1      44.049   3.710  10.470  0.00  0.00    +0.000 C 
ATOM     10  O   UNK     1      43.293   2.898  10.997  0.00  0.00    +0.000 OA
BRANCH   9  11
ATOM     11  N   UNK     1      44.301   3.785   9.117  0.00  0.00    +0.000 NA
ATOM     12  C   UNK     1      45.429   3.299   8.723  0.00  0.00    +0.000 C 
BRANCH  12  13
ATOM     13  C   UNK     1      45.806   3.371   7.264  0.00  0.00    +0.000 C 
BRANCH  13  14
ATOM     14  O   UNK     1      46.802   4.363   7.083  0.00  0.00    +0.000 OA
ATOM     15  H   UNK     1      46.856   4.521   6.123  0.00  0.00    +0.000 HD
ENDBRANCH  13  14
ENDBRANCH  12  13
ENDBRANCH   9  11
ENDBRANCH   6   9
ENDBRANCH   1   3
BRANCH   1  16
ATOM     16  C   UNK     1      48.216   7.355  13.766  0.00  0.00    +0.000 C 
BRANCH  16  18
ATOM     17  C   UNK     1      48.832   9.078  15.571  0.00  0.00    +0.000 C 
ATOM     18  C   UNK     1      48.613   7.650  15.179  0.00  0.00    +0.000 C 
BRANCH  18  19
ATOM     19  C   UNK     1      49.172   6.571  16.004  0.00  0.00    +0.000 A 
ATOM     20  C   UNK     1      50.492   6.655  16.463  0.00  0.00    +0.000 A 
ATOM     21  C   UNK     1      51.050   5.618  17.212  0.00  0.00    +0.000 A 
ATOM     22  C   UNK     1      50.287   4.497  17.532  0.00  0.00    +0.000 A 
ATOM     23  C   UNK     1      48.954   4.401  17.106  0.00  0.00    +0.000 A 
ATOM     24  C   UNK     1      48.411   5.441  16.330  0.00  0.00    +0.000 A 
BRANCH  23  25
ATOM     25  C   UNK     1      48.104   3.212  17.482  0.00  0.00    +0.000 C 
ATOM     26  F   UNK     1      48.385   2.091  16.762  0.00  0.00    +0.000 F 
ATOM     27  F   UNK     1      48.255   2.861  18.790  0.00  0.00    +0.000 F 
ATOM     28  F   UNK     1      46.775   3.447  17.308  0.00  0.00    +0.000 F 
ENDBRANCH  23  25
ENDBRANCH  18  19
ENDBRANCH  16  18
ENDBRANCH   1  16
TORSDOF 9
ENDMDL
MODEL 6
REMARK VINA RESULT:    -6.934      4.798      7.496
REMARK INTER + INTRA:         -10.857
REMARK INTER:                  -9.861
REMARK INTRA:                  -0.996
REMARK UNBOUND:                -0.478
REMARK  Name = 
REMARK  10 active torsions:
REMARK  status: ('A' for Active; 'I' for Inactive)
REMARK    1  A    between atoms: C_1  and  C_2
REMARK    2  A    between atoms: C_2  and  C_3
REMARK    3  A    between atoms: C_2  and  C_17
REMARK    4  A    between atoms: C_3  and  N_4
REMARK    5  A    between atoms: N_4  and  C_5
REMARK    6  A    between atoms: C_8  and  C_9
REMARK    7  A    between atoms: C_9  and  N_11
REMARK    8  A    between atoms: C_12  and  C_13
REMARK    9  A    between atoms: C_13  and  O_14
REMARK   10  A    between atoms: C_21  and  C_22
REMARK                            x       y       z     vdW  Elec       q    Type
REMARK                         _______ _______ _______ _____ _____    ______ ____
ROOT
ATOM      1  N   UNK     1      45.343   6.471  12.882  0.00  0.00    +0.000 N 
ATOM      2  H   UNK     1      44.626   7.179  12.741  0.00  0.00    +0.000 HD
ENDROOT
BRANCH   1   3
ATOM      3  C   UNK     1      45.310   5.508  11.864  0.00  0.00    +0.000 A 
ATOM      4  C   UNK     1      45.620   5.879  10.552  0.00  0.00    +0.000 A 
ATOM      5  C   UNK     1      45.578   4.940   9.519  0.00  0.00    +0.000 A 
ATOM      6  C   UNK     1      45.169   3.649   9.822  0.00  0.00    +0.000 A 
ATOM      7  N   UNK     1      44.794   3.260  11.068  0.00  0.00    +0.000 NA
ATOM      8  C   UNK     1      44.857   4.198  12.039  0.00  0.00    +0.000 A 
BRANCH   6   9
ATOM      9  C   UNK     1      45.138   2.600   8.751  0.00  0.00    +0.000 C 
ATOM     10  O   UNK     1      44.640   1.502   8.980  0.00  0.00    +0.000 OA
BRANCH   9  11
ATOM     11  N   UNK     1      45.722   2.964   7.556  0.00  0.00    +0.000 NA
ATOM     12  C   UNK     1      46.717   2.241   7.169  0.00  0.00    +0.000 C 
BRANCH  12  13
ATOM     13  C   UNK     1      47.441   2.587   5.892  0.00  0.00    +0.000 C 
BRANCH  13  14
ATOM     14  O   UNK     1      48.538   1.707   5.718  0.00  0.00    +0.000 OA
ATOM     15  H   UNK     1      48.177   0.805   5.797  0.00  0.00    +0.000 HD
ENDBRANCH  13  14
ENDBRANCH  12  13
ENDBRANCH   9  11
ENDBRANCH   6   9
ENDBRANCH   1   3
BRANCH   1  16
ATOM     16  C   UNK     1      46.639   7.080  13.170  0.00  0.00    +0.000 C 
BRANCH  16  18
ATOM     17  C   UNK     1      45.200   9.111  12.531  0.00  0.00    +0.000 C 
ATOM     18  C   UNK     1      46.555   8.517  12.753  0.00  0.00    +0.000 C 
BRANCH  18  19
ATOM     19  C   UNK     1      47.742   9.165  12.180  0.00  0.00    +0.000 A 
ATOM     20  C   UNK     1      47.695  10.517  11.822  0.00  0.00    +0.000 A 
ATOM     21  C   UNK     1      48.801  11.136  11.238  0.00  0.00    +0.000 A 
ATOM     22  C   UNK     1      49.975  10.415  11.027  0.00  0.00    +0.000 A 
ATOM     23  C   UNK     1      50.056   9.066  11.402  0.00  0.00    +0.000 A 
ATOM     24  C   UNK     1      48.926   8.447  11.966  0.00  0.00    +0.000 A 
BRANCH  23  25
ATOM     25  C   UNK     1      51.335   8.287  11.219  0.00  0.00    +0.000 C 
ATOM     26  F   UNK     1      51.144   7.032  10.726  0.00  0.00    +0.000 F 
ATOM     27  F   UNK     1      52.195   8.898  10.357  0.00  0.00    +0.000 F 
ATOM     28  F   UNK     1      52.021   8.131  12.384  0.00  0.00    +0.000 F 
ENDBRANCH  23  25
ENDBRANCH  18  19
ENDBRANCH  16  18
ENDBRANCH   1  16
TORSDOF 9
ENDMDL
MODEL 7
REMARK VINA RESULT:    -6.679      4.527      7.925
REMARK INTER + INTRA:         -10.476
REMARK INTER:                  -9.200
REMARK INTRA:                  -1.276
REMARK UNBOUND:                -0.478
REMARK  Name = 
REMARK  10 active torsions:
REMARK  status: ('A' for Active; 'I' for Inactive)
REMARK    1  A    between atoms: C_1  and  C_2
REMARK    2  A    between atoms: C_2  and  C_3
REMARK    3  A    between atoms: C_2  and  C_17
REMARK    4  A    between atoms: C_3  and  N_4
REMARK    5  A    between atoms: N_4  and  C_5
REMARK    6  A    between atoms: C_8  and  C_9
REMARK    7  A    between atoms: C_9  and  N_11
REMARK    8  A    between atoms: C_12  and  C_13
REMARK    9  A    between atoms: C_13  and  O_14
REMARK   10  A    between atoms: C_21  and  C_22
REMARK                            x       y       z     vdW  Elec       q    Type
REMARK                         _______ _______ _______ _____ _____    ______ ____
ROOT
ATOM      1  N   UNK     1      48.314   7.934  13.575  0.00  0.00    +0.000 N 
ATOM      2  H   UNK     1      49.185   7.468  13.331  0.00  0.00    +0.000 HD
ENDROOT
BRANCH   1   3
ATOM      3  C   UNK     1      47.212   7.099  13.347  0.00  0.00    +0.000 A 
ATOM      4  C   UNK     1      47.375   5.710  13.396  0.00  0.00    +0.000 A 
ATOM      5  C   UNK     1      46.295   4.858  13.156  0.00  0.00    +0.000 A 
ATOM      6  C   UNK     1      45.075   5.426  12.815  0.00  0.00    +0.000 A 
ATOM      7  N   UNK     1      44.886   6.765  12.688  0.00  0.00    +0.000 NA
ATOM      8  C   UNK     1      45.956   7.552  12.938  0.00  0.00    +0.000 A 
BRANCH   6   9
ATOM      9  C   UNK     1      43.880   4.551  12.578  0.00  0.00    +0.000 C 
ATOM     10  O   UNK     1      42.829   4.773  13.172  0.00  0.00    +0.000 OA
BRANCH   9  11
ATOM     11  N   UNK     1      44.080   3.511  11.697  0.00  0.00    +0.000 NA
ATOM     12  C   UNK     1      44.302   3.842  10.470  0.00  0.00    +0.000 C 
BRANCH  12  13
ATOM     13  C   UNK     1      44.495   2.769   9.428  0.00  0.00    +0.000 C 
BRANCH  13  14
ATOM     14  O   UNK     1      44.252   3.311   8.142  0.00  0.00    +0.000 OA
ATOM     15  H   UNK     1      44.467   2.605   7.505  0.00  0.00    +0.000 HD
ENDBRANCH  13  14
ENDBRANCH  12  13
ENDBRANCH   9  11
ENDBRANCH   6   9
ENDBRANCH   1   3
BRANCH   1  16
ATOM     16  C   UNK     1      48.402   8.562  14.892  0.00  0.00    +0.000 C 
BRANCH  16  18
ATOM     17  C   UNK     1      50.730   7.526  15.225  0.00  0.00    +0.000 C 
ATOM     18  C   UNK     1      49.332   7.728  15.718  0.00  0.00    +0.000 C 
BRANCH  18  19
ATOM     19  C   UNK     1      48.770   6.815  16.723  0.00  0.00    +0.000 A 
ATOM     20  C   UNK     1      48.405   7.302  17.984  0.00  0.00    +0.000 A 
ATOM     21  C   UNK     1      47.909   6.440  18.962  0.00  0.00    +0.000 A 
ATOM     22  C   UNK     1      47.750   5.084  18.683  0.00  0.00    +0.000 A 
ATOM     23  C   UNK     1      48.084   4.576  17.419  0.00  0.00    +0.000 A 
ATOM     24  C   UNK     1      48.607   5.451  16.449  0.00  0.00    +0.000 A 
BRANCH  23  25
ATOM     25  C   UNK     1      47.877   3.118  17.090  0.00  0.00    +0.000 C 
ATOM     26  F   UNK     1      46.817   2.558  17.737  0.00  0.00    +0.000 F 
ATOM     27  F   UNK     1      47.652   2.913  15.762  0.00  0.00    +0.000 F 
ATOM     28  F   UNK     1      48.957   2.353  17.410  0.00  0.00    +0.000 F 
ENDBRANCH  23  25
ENDBRANCH  18  19
ENDBRANCH  16  18
ENDBRANCH   1  16
TORSDOF 9
ENDMDL
MODEL 8
REMARK VINA RESULT:    -6.436      2.121      2.349
REMARK INTER + INTRA:         -10.112
REMARK INTER:                  -9.292
REMARK INTRA:                  -0.820
REMARK UNBOUND:                -0.478
REMARK  Name = 
REMARK  10 active torsions:
REMARK  status: ('A' for Active; 'I' for Inactive)
REMARK    1  A    between atoms: C_1  and  C_2
REMARK    2  A    between atoms: C_2  and  C_3
REMARK    3  A    between atoms: C_2  and  C_17
REMARK    4  A    between atoms: C_3  and  N_4
REMARK    5  A    between atoms: N_4  and  C_5
REMARK    6  A    between atoms: C_8  and  C_9
REMARK    7  A    between atoms: C_9  and  N_11
REMARK    8  A    between atoms: C_12  and  C_13
REMARK    9  A    between atoms: C_13  and  O_14
REMARK   10  A    between atoms: C_21  and  C_22
REMARK                            x       y       z     vdW  Elec       q    Type
REMARK                         _______ _______ _______ _____ _____    ______ ____
ROOT
ATOM      1  N   UNK     1      45.674   4.068  13.278  0.00  0.00    +0.000 N 
ATOM      2  H   UNK     1      46.064   3.696  12.414  0.00  0.00    +0.000 HD
ENDROOT
BRANCH   1   3
ATOM      3  C   UNK     1      46.636   4.790  13.997  0.00  0.00    +0.000 A 
ATOM      4  C   UNK     1      47.213   5.930  13.427  0.00  0.00    +0.000 A 
ATOM      5  C   UNK     1      48.185   6.656  14.118  0.00  0.00    +0.000 A 
ATOM      6  C   UNK     1      48.598   6.185  15.357  0.00  0.00    +0.000 A 
ATOM      7  N   UNK     1      48.116   5.047  15.920  0.00  0.00    +0.000 NA
ATOM      8  C   UNK     1      47.172   4.380  15.220  0.00  0.00    +0.000 A 
BRANCH   6   9
ATOM      9  C   UNK     1      49.617   6.949  16.148  0.00  0.00    +0.000 C 
ATOM     10  O   UNK     1      49.385   8.104  16.496  0.00  0.00    +0.000 OA
BRANCH   9  11
ATOM     11  N   UNK     1      50.789   6.272  16.407  0.00  0.00    +0.000 NA
ATOM     12  C   UNK     1      51.088   6.112  17.652  0.00  0.00    +0.000 C 
BRANCH  12  13
ATOM     13  C   UNK     1      52.371   5.414  18.029  0.00  0.00    +0.000 C 
BRANCH  13  14
ATOM     14  O   UNK     1      52.328   4.072  17.578  0.00  0.00    +0.000 OA
ATOM     15  H   UNK     1      51.561   3.662  18.020  0.00  0.00    +0.000 HD
ENDBRANCH  13  14
ENDBRANCH  12  13
ENDBRANCH   9  11
ENDBRANCH   6   9
ENDBRANCH   1   3
BRANCH   1  16
ATOM     16  C   UNK     1      44.395   4.732  13.038  0.00  0.00    +0.000 C 
BRANCH  16  18
ATOM     17  C   UNK     1      43.689   6.392  11.207  0.00  0.00    +0.000 C 
ATOM     18  C   UNK     1      44.357   5.109  11.589  0.00  0.00    +0.000 C 
BRANCH  18  19
ATOM     19  C   UNK     1      44.579   4.069  10.574  0.00  0.00    +0.000 A 
ATOM     20  C   UNK     1      43.904   2.846  10.669  0.00  0.00    +0.000 A 
ATOM     21  C   UNK     1      44.136   1.834   9.737  0.00  0.00    +0.000 A 
ATOM     22  C   UNK     1      45.026   2.042   8.685  0.00  0.00    +0.000 A 
ATOM     23  C   UNK     1      45.695   3.268   8.554  0.00  0.00    +0.000 A 
ATOM     24  C   UNK     1      45.472   4.272   9.515  0.00  0.00    +0.000 A 
BRANCH  23  25
ATOM     25  C   UNK     1      46.629   3.521   7.396  0.00  0.00    +0.000 C 
ATOM     26  F   UNK     1      47.168   4.772   7.393  0.00  0.00    +0.000 F 
ATOM     27  F   UNK     1      47.685   2.661   7.385  0.00  0.00    +0.000 F 
ATOM     28  F   UNK     1      46.014   3.375   6.190  0.00  0.00    +0.000 F 
ENDBRANCH  23  25
ENDBRANCH  18  19
ENDBRANCH  16  18
ENDBRANCH   1  16
TORSDOF 9
ENDMDL
MODEL 9
REMARK VINA RESULT:    -6.395      2.880      3.786
REMARK INTER + INTRA:         -10.050
REMARK INTER:                  -9.157
REMARK INTRA:                  -0.893
REMARK UNBOUND:                -0.478
REMARK  Name = 
REMARK  10 active torsions:
REMARK  status: ('A' for Active; 'I' for Inactive)
REMARK    1  A    between atoms: C_1  and  C_2
REMARK    2  A    between atoms: C_2  and  C_3
REMARK    3  A    between atoms: C_2  and  C_17
REMARK    4  A    between atoms: C_3  and  N_4
REMARK    5  A    between atoms: N_4  and  C_5
REMARK    6  A    between atoms: C_8  and  C_9
REMARK    7  A    between atoms: C_9  and  N_11
REMARK    8  A    between atoms: C_12  and  C_13
REMARK    9  A    between atoms: C_13  and  O_14
REMARK   10  A    between atoms: C_21  and  C_22
REMARK                            x       y       z     vdW  Elec       q    Type
REMARK                         _______ _______ _______ _____ _____    ______ ____
ROOT
ATOM      1  N   UNK     1      45.970   4.460  12.915  0.00  0.00    +0.000 N 
ATOM      2  H   UNK     1      46.274   4.206  11.977  0.00  0.00    +0.000 HD
ENDROOT
BRANCH   1   3
ATOM      3  C   UNK     1      46.949   5.213  13.578  0.00  0.00    +0.000 A 
ATOM      4  C   UNK     1      47.652   6.200  12.879  0.00  0.00    +0.000 A 
ATOM      5  C   UNK     1      48.643   6.951  13.514  0.00  0.00    +0.000 A 
ATOM      6  C   UNK     1      48.944   6.654  14.837  0.00  0.00    +0.000 A 
ATOM      7  N   UNK     1      48.336   5.661  15.535  0.00  0.00    +0.000 NA
ATOM      8  C   UNK     1      47.378   4.964  14.883  0.00  0.00    +0.000 A 
BRANCH   6   9
ATOM      9  C   UNK     1      49.979   7.456  15.569  0.00  0.00    +0.000 C 
ATOM     10  O   UNK     1      51.151   7.424  15.205  0.00  0.00    +0.000 OA
BRANCH   9  11
ATOM     11  N   UNK     1      49.512   8.171  16.651  0.00  0.00    +0.000 NA
ATOM     12  C   UNK     1      49.345   9.436  16.464  0.00  0.00    +0.000 C 
BRANCH  12  13
ATOM     13  C   UNK     1      48.871  10.304  17.603  0.00  0.00    +0.000 C 
BRANCH  13  14
ATOM     14  O   UNK     1      47.564  10.775  17.325  0.00  0.00    +0.000 OA
ATOM     15  H   UNK     1      47.128  10.074  16.807  0.00  0.00    +0.000 HD
ENDBRANCH  13  14
ENDBRANCH  12  13
ENDBRANCH   9  11
ENDBRANCH   6   9
ENDBRANCH   1   3
BRANCH   1  16
ATOM     16  C   UNK     1      44.615   5.007  12.901  0.00  0.00    +0.000 C 
BRANCH  16  18
ATOM     17  C   UNK     1      43.216   6.254  11.142  0.00  0.00    +0.000 C 
ATOM     18  C   UNK     1      44.233   5.205  11.466  0.00  0.00    +0.000 C 
BRANCH  18  19
ATOM     19  C   UNK     1      44.518   4.138  10.497  0.00  0.00    +0.000 A 
ATOM     20  C   UNK     1      43.897   2.890  10.629  0.00  0.00    +0.000 A 
ATOM     21  C   UNK     1      44.190   1.855   9.741  0.00  0.00    +0.000 A 
ATOM     22  C   UNK     1      45.088   2.062   8.697  0.00  0.00    +0.000 A 
ATOM     23  C   UNK     1      45.704   3.311   8.528  0.00  0.00    +0.000 A 
ATOM     24  C   UNK     1      45.420   4.340   9.445  0.00  0.00    +0.000 A 
BRANCH  23  25
ATOM     25  C   UNK     1      46.646   3.561   7.376  0.00  0.00    +0.000 C 
ATOM     26  F   UNK     1      47.219   4.796   7.398  0.00  0.00    +0.000 F 
ATOM     27  F   UNK     1      47.678   2.672   7.348  0.00  0.00    +0.000 F 
ATOM     28  F   UNK     1      46.029   3.456   6.167  0.00  0.00    +0.000 F 
ENDBRANCH  23  25
ENDBRANCH  18  19
ENDBRANCH  16  18
ENDBRANCH   1  16
TORSDOF 9
ENDMDL
