MODEL 1
REMARK VINA RESULT:    -8.522      0.000      0.000
REMARK INTER + INTRA:         -12.460
REMARK INTER:                 -11.512
REMARK INTRA:                  -0.949
REMARK UNBOUND:                -0.949
REMARK  Name = 
REMARK  6 active torsions:
REMARK  status: ('A' for Active; 'I' for Inactive)
REMARK    1  A    between atoms: C_2  and  C_4
REMARK    2  A    between atoms: N_8  and  C_9
REMARK    3  A    between atoms: C_9  and  C_10
REMARK    4  A    between atoms: C_10  and  C_13
REMARK    5  A    between atoms: C_17  and  S_18
REMARK    6  A    between atoms: S_18  and  C_19
REMARK                            x       y       z     vdW  Elec       q    Type
REMARK                         _______ _______ _______ _____ _____    ______ ____
ROOT
ATOM      1  C   UNL     1      43.296   4.416  11.039  0.00  0.00    +0.000 C 
ENDROOT
BRANCH   1   6
ATOM      2  C   UNL     1      46.501   2.645   7.451  0.00  0.00    +0.000 A 
ATOM      3  C   UNL     1      46.041   3.931   7.716  0.00  0.00    +0.000 A 
ATOM      4  C   UNL     1      45.126   4.120   8.751  0.00  0.00    +0.000 A 
ATOM      5  C   UNL     1      44.687   3.032   9.503  0.00  0.00    +0.000 A 
ATOM      6  N   UNL     1      43.795   3.145  10.535  0.00  0.00    +0.000 N 
ATOM      7  N   UNL     1      45.113   1.782   9.239  0.00  0.00    +0.000 NA
ATOM      8  C   UNL     1      45.996   1.610   8.219  0.00  0.00    +0.000 A 
ATOM      9  H   UNL     1      43.592   2.279  11.024  0.00  0.00    +0.000 HD
BRANCH   2  11
ATOM     10  N   UNL     1      47.496   3.191   5.307  0.00  0.00    +0.000 N 
ATOM     11  C   UNL     1      47.479   2.351   6.387  0.00  0.00    +0.000 C 
ATOM     12  O   UNL     1      48.265   1.420   6.479  0.00  0.00    +0.000 OA
ATOM     13  H   UNL     1      48.240   3.043   4.635  0.00  0.00    +0.000 HD
ATOM     14  H   UNL     1      47.046   4.095   5.310  0.00  0.00    +0.000 HD
ENDBRANCH   2  11
ENDBRANCH   1   6
BRANCH   1  15
ATOM     15  C   UNL     1      43.631   4.700  12.522  0.00  0.00    +0.000 C 
ATOM     16  F   UNL     1      42.651   5.483  13.061  0.00  0.00    +0.000 F 
ATOM     17  F   UNL     1      43.588   3.528  13.221  0.00  0.00    +0.000 F 
BRANCH  15  18
ATOM     18  C   UNL     1      44.996   5.363  12.580  0.00  0.00    +0.000 A 
ATOM     19  C   UNL     1      45.378   6.294  11.606  0.00  0.00    +0.000 A 
ATOM     20  C   UNL     1      46.592   6.970  11.721  0.00  0.00    +0.000 A 
ATOM     21  C   UNL     1      47.427   6.729  12.815  0.00  0.00    +0.000 A 
ATOM     22  C   UNL     1      47.058   5.812  13.805  0.00  0.00    +0.000 A 
ATOM     23  C   UNL     1      45.857   5.112  13.663  0.00  0.00    +0.000 A 
BRANCH  22  24
ATOM     24  S   UNL     1      48.171   5.429  15.136  0.00  0.00    +0.000 S 
BRANCH  24  25
ATOM     25  C   UNL     1      47.303   4.172  16.120  0.00  0.00    +0.000 C 
ATOM     26  C   UNL     1      47.158   4.432  17.617  0.00  0.00    +0.000 C 
ATOM     27  O   UNL     1      47.737   3.138  17.936  0.00  0.00    +0.000 OA
ATOM     28  C   UNL     1      48.087   2.934  16.541  0.00  0.00    +0.000 C 
ENDBRANCH  24  25
ENDBRANCH  22  24
ENDBRANCH  15  18
ENDBRANCH   1  15
TORSDOF 6
ENDMDL
MODEL 2
REMARK VINA RESULT:    -8.480      2.608      3.647
REMARK INTER + INTRA:         -12.403
REMARK INTER:                 -11.527
REMARK INTRA:                  -0.876
REMARK UNBOUND:                -0.949
REMARK  Name = 
REMARK  6 active torsions:
REMARK  status: ('A' for Active; 'I' for Inactive)
REMARK    1  A    between atoms: C_2  and  C_4
REMARK    2  A    between atoms: N_8  and  C_9
REMARK    3  A    between atoms: C_9  and  C_10
REMARK    4  A    between atoms: C_10  and  C_13
REMARK    5  A    between atoms: C_17  and  S_18
REMARK    6  A    between atoms: S_18  and  C_19
REMARK                            x       y       z     vdW  Elec       q    Type
REMARK                         _______ _______ _______ _____ _____    ______ ____
ROOT
ATOM      1  C   UNL     1      43.264   4.770  10.770  0.00  0.00    +0.000 C 
ENDROOT
BRANCH   1   6
ATOM      2  C   UNL     1      46.482   2.314   7.625  0.00  0.00    +0.000 A 
ATOM      3  C   UNL     1      45.686   1.851   8.667  0.00  0.00    +0.000 A 
ATOM      4  C   UNL     1      44.925   2.766   9.393  0.00  0.00    +0.000 A 
ATOM      5  C   UNL     1      44.966   4.121   9.070  0.00  0.00    +0.000 A 
ATOM      6  N   UNL     1      44.241   5.072   9.735  0.00  0.00    +0.000 N 
ATOM      7  N   UNL     1      45.749   4.579   8.075  0.00  0.00    +0.000 NA
ATOM      8  C   UNL     1      46.496   3.677   7.384  0.00  0.00    +0.000 A 
ATOM      9  H   UNL     1      44.334   6.016   9.371  0.00  0.00    +0.000 HD
BRANCH   2  11
ATOM     10  N   UNL     1      48.385   1.977   6.158  0.00  0.00    +0.000 N 
ATOM     11  C   UNL     1      47.311   1.420   6.796  0.00  0.00    +0.000 C 
ATOM     12  O   UNL     1      47.070   0.224   6.708  0.00  0.00    +0.000 OA
ATOM     13  H   UNL     1      49.005   1.334   5.680  0.00  0.00    +0.000 HD
ATOM     14  H   UNL     1      48.754   2.885   6.401  0.00  0.00    +0.000 HD
ENDBRANCH   2  11
ENDBRANCH   1   6
BRANCH   1  15
ATOM     15  C   UNL     1      43.273   5.744  11.972  0.00  0.00    +0.000 C 
ATOM     16  F   UNL     1      42.978   7.002  11.531  0.00  0.00    +0.000 F 
ATOM     17  F   UNL     1      42.260   5.409  12.824  0.00  0.00    +0.000 F 
BRANCH  15  18
ATOM     18  C   UNL     1      44.638   5.670  12.632  0.00  0.00    +0.000 A 
ATOM     19  C   UNL     1      45.147   4.444  13.082  0.00  0.00    +0.000 A 
ATOM     20  C   UNL     1      46.441   4.370  13.596  0.00  0.00    +0.000 A 
ATOM     21  C   UNL     1      47.238   5.516  13.656  0.00  0.00    +0.000 A 
ATOM     22  C   UNL     1      46.752   6.747  13.201  0.00  0.00    +0.000 A 
ATOM     23  C   UNL     1      45.442   6.820  12.721  0.00  0.00    +0.000 A 
BRANCH  22  24
ATOM     24  S   UNL     1      47.729   8.220  13.379  0.00  0.00    +0.000 S 
BRANCH  24  25
ATOM     25  C   UNL     1      48.609   8.387  11.798  0.00  0.00    +0.000 C 
ATOM     26  C   UNL     1      49.959   7.688  11.670  0.00  0.00    +0.000 C 
ATOM     27  O   UNL     1      50.601   8.920  11.249  0.00  0.00    +0.000 OA
ATOM     28  C   UNL     1      49.396   9.671  11.555  0.00  0.00    +0.000 C 
ENDBRANCH  24  25
ENDBRANCH  22  24
ENDBRANCH  15  18
ENDBRANCH   1  15
TORSDOF 6
ENDMDL
MODEL 3
REMARK VINA RESULT:    -8.144      1.785      2.114
REMARK INTER + INTRA:         -11.949
REMARK INTER:                 -10.916
REMARK INTRA:                  -1.034
REMARK UNBOUND:                -0.949
REMARK  Name = 
REMARK  6 active torsions:
REMARK  status: ('A' for Active; 'I' for Inactive)
REMARK    1  A    between atoms: C_2  and  C_4
REMARK    2  A    between atoms: N_8  and  C_9
REMARK    3  A    between atoms: C_9  and  C_10
REMARK    4  A    between atoms: C_10  and  C_13
REMARK    5  A    between atoms: C_17  and  S_18
REMARK    6  A    between atoms: S_18  and  C_19
REMARK                            x       y       z     vdW  Elec       q    Type
REMARK                         _______ _______ _______ _____ _____    ______ ____
ROOT
ATOM      1  C   UNL     1      43.460   3.626  11.257  0.00  0.00    +0.000 C 
ENDROOT
BRANCH   1   6
ATOM      2  C   UNL     1      46.575   2.736   7.284  0.00  0.00    +0.000 A 
ATOM      3  C   UNL     1      45.999   3.912   7.752  0.00  0.00    +0.000 A 
ATOM      4  C   UNL     1      45.144   3.853   8.853  0.00  0.00    +0.000 A 
ATOM      5  C   UNL     1      44.879   2.631   9.468  0.00  0.00    +0.000 A 
ATOM      6  N   UNL     1      44.057   2.501  10.553  0.00  0.00    +0.000 N 
ATOM      7  N   UNL     1      45.418   1.486   9.007  0.00  0.00    +0.000 NA
ATOM      8  C   UNL     1      46.240   1.556   7.927  0.00  0.00    +0.000 A 
ATOM      9  H   UNL     1      43.984   1.560  10.926  0.00  0.00    +0.000 HD
BRANCH   2  11
ATOM     10  N   UNL     1      48.808   2.399   6.398  0.00  0.00    +0.000 N 
ATOM     11  C   UNL     1      47.500   2.703   6.136  0.00  0.00    +0.000 C 
ATOM     12  O   UNL     1      47.111   2.903   4.995  0.00  0.00    +0.000 OA
ATOM     13  H   UNL     1      49.409   2.275   5.592  0.00  0.00    +0.000 HD
ATOM     14  H   UNL     1      49.110   1.990   7.271  0.00  0.00    +0.000 HD
ENDBRANCH   2  11
ENDBRANCH   1   6
BRANCH   1  15
ATOM     15  C   UNL     1      44.227   4.076  12.524  0.00  0.00    +0.000 C 
ATOM     16  F   UNL     1      43.339   4.244  13.548  0.00  0.00    +0.000 F 
ATOM     17  F   UNL     1      45.059   3.071  12.922  0.00  0.00    +0.000 F 
BRANCH  15  18
ATOM     18  C   UNL     1      44.975   5.356  12.195  0.00  0.00    +0.000 A 
ATOM     19  C   UNL     1      44.299   6.459  11.657  0.00  0.00    +0.000 A 
ATOM     20  C   UNL     1      44.974   7.661  11.450  0.00  0.00    +0.000 A 
ATOM     21  C   UNL     1      46.326   7.772  11.786  0.00  0.00    +0.000 A 
ATOM     22  C   UNL     1      47.016   6.685  12.334  0.00  0.00    +0.000 A 
ATOM     23  C   UNL     1      46.341   5.474  12.505  0.00  0.00    +0.000 A 
BRANCH  22  24
ATOM     24  S   UNL     1      48.759   6.799  12.659  0.00  0.00    +0.000 S 
BRANCH  24  25
ATOM     25  C   UNL     1      48.875   7.356  14.385  0.00  0.00    +0.000 C 
ATOM     26  C   UNL     1      50.268   7.440  15.002  0.00  0.00    +0.000 C 
ATOM     27  O   UNL     1      49.860   6.618  16.127  0.00  0.00    +0.000 OA
ATOM     28  C   UNL     1      48.590   6.336  15.481  0.00  0.00    +0.000 C 
ENDBRANCH  24  25
ENDBRANCH  22  24
ENDBRANCH  15  18
ENDBRANCH   1  15
TORSDOF 6
ENDMDL
MODEL 4
REMARK VINA RESULT:    -7.247      3.341      8.031
REMARK INTER + INTRA:         -10.737
REMARK INTER:                 -10.372
REMARK INTRA:                  -0.365
REMARK UNBOUND:                -0.949
REMARK  Name = 
REMARK  6 active torsions:
REMARK  status: ('A' for Active; 'I' for Inactive)
REMARK    1  A    between atoms: C_2  and  C_4
REMARK    2  A    between atoms: N_8  and  C_9
REMARK    3  A    between atoms: C_9  and  C_10
REMARK    4  A    between atoms: C_10  and  C_13
REMARK    5  A    between atoms: C_17  and  S_18
REMARK    6  A    between atoms: S_18  and  C_19
REMARK                            x       y       z     vdW  Elec       q    Type
REMARK                         _______ _______ _______ _____ _____    ______ ____
ROOT
ATOM      1  C   UNL     1      46.783   6.072  12.798  0.00  0.00    +0.000 C 
ENDROOT
BRANCH   1   6
ATOM      2  C   UNL     1      48.415   4.314  17.328  0.00  0.00    +0.000 A 
ATOM      3  C   UNL     1      48.528   5.567  16.736  0.00  0.00    +0.000 A 
ATOM      4  C   UNL     1      48.015   5.756  15.454  0.00  0.00    +0.000 A 
ATOM      5  C   UNL     1      47.399   4.701  14.784  0.00  0.00    +0.000 A 
ATOM      6  N   UNL     1      46.870   4.816  13.529  0.00  0.00    +0.000 N 
ATOM      7  N   UNL     1      47.305   3.479  15.344  0.00  0.00    +0.000 NA
ATOM      8  C   UNL     1      47.820   3.305  16.590  0.00  0.00    +0.000 A 
ATOM      9  H   UNL     1      46.415   3.980  13.175  0.00  0.00    +0.000 HD
BRANCH   2  11
ATOM     10  N   UNL     1      48.298   3.019  19.377  0.00  0.00    +0.000 N 
ATOM     11  C   UNL     1      48.916   4.024  18.685  0.00  0.00    +0.000 C 
ATOM     12  O   UNL     1      49.866   4.631  19.159  0.00  0.00    +0.000 OA
ATOM     13  H   UNL     1      48.718   2.759  20.261  0.00  0.00    +0.000 HD
ATOM     14  H   UNL     1      47.691   2.344  18.934  0.00  0.00    +0.000 HD
ENDBRANCH   2  11
ENDBRANCH   1   6
BRANCH   1  15
ATOM     15  C   UNL     1      45.428   6.318  12.093  0.00  0.00    +0.000 C 
ATOM     16  F   UNL     1      44.498   6.682  13.024  0.00  0.00    +0.000 F 
ATOM     17  F   UNL     1      45.549   7.391  11.258  0.00  0.00    +0.000 F 
BRANCH  15  18
ATOM     18  C   UNL     1      45.040   5.048  11.357  0.00  0.00    +0.000 A 
ATOM     19  C   UNL     1      44.269   4.064  11.990  0.00  0.00    +0.000 A 
ATOM     20  C   UNL     1      43.836   2.948  11.276  0.00  0.00    +0.000 A 
ATOM     21  C   UNL     1      44.161   2.811   9.925  0.00  0.00    +0.000 A 
ATOM     22  C   UNL     1      44.920   3.788   9.271  0.00  0.00    +0.000 A 
ATOM     23  C   UNL     1      45.381   4.886  10.003  0.00  0.00    +0.000 A 
BRANCH  22  24
ATOM     24  S   UNL     1      45.421   3.556   7.583  0.00  0.00    +0.000 S 
BRANCH  24  25
ATOM     25  C   UNL     1      46.950   2.578   7.682  0.00  0.00    +0.000 C 
ATOM     26  C   UNL     1      47.799   2.476   6.418  0.00  0.00    +0.000 C 
ATOM     27  O   UNL     1      47.806   1.026   6.494  0.00  0.00    +0.000 OA
ATOM     28  C   UNL     1      46.831   1.062   7.570  0.00  0.00    +0.000 C 
ENDBRANCH  24  25
ENDBRANCH  22  24
ENDBRANCH  15  18
ENDBRANCH   1  15
TORSDOF 6
ENDMDL
MODEL 5
REMARK VINA RESULT:    -7.219      3.992      7.117
REMARK INTER + INTRA:         -10.699
REMARK INTER:                  -9.871
REMARK INTRA:                  -0.829
REMARK UNBOUND:                -0.949
REMARK  Name = 
REMARK  6 active torsions:
REMARK  status: ('A' for Active; 'I' for Inactive)
REMARK    1  A    between atoms: C_2  and  C_4
REMARK    2  A    between atoms: N_8  and  C_9
REMARK    3  A    between atoms: C_9  and  C_10
REMARK    4  A    between atoms: C_10  and  C_13
REMARK    5  A    between atoms: C_17  and  S_18
REMARK    6  A    between atoms: S_18  and  C_19
REMARK                            x       y       z     vdW  Elec       q    Type
REMARK                         _______ _______ _______ _____ _____    ______ ____
ROOT
ATOM      1  C   UNL     1      44.271   5.801  12.854  0.00  0.00    +0.000 C 
ENDROOT
BRANCH   1   6
ATOM      2  C   UNL     1      48.771   8.139  12.104  0.00  0.00    +0.000 A 
ATOM      3  C   UNL     1      48.416   6.795  12.052  0.00  0.00    +0.000 A 
ATOM      4  C   UNL     1      47.101   6.433  12.344  0.00  0.00    +0.000 A 
ATOM      5  C   UNL     1      46.166   7.410  12.680  0.00  0.00    +0.000 A 
ATOM      6  N   UNL     1      44.859   7.127  12.972  0.00  0.00    +0.000 N 
ATOM      7  N   UNL     1      46.508   8.710  12.752  0.00  0.00    +0.000 NA
ATOM      8  C   UNL     1      47.796   9.048  12.476  0.00  0.00    +0.000 A 
ATOM      9  H   UNL     1      44.276   7.936  13.160  0.00  0.00    +0.000 HD
BRANCH   2  11
ATOM     10  N   UNL     1      51.063   7.673  11.459  0.00  0.00    +0.000 N 
ATOM     11  C   UNL     1      50.133   8.617  11.799  0.00  0.00    +0.000 C 
ATOM     12  O   UNL     1      50.412   9.807  11.815  0.00  0.00    +0.000 OA
ATOM     13  H   UNL     1      51.962   8.021  11.149  0.00  0.00    +0.000 HD
ATOM     14  H   UNL     1      50.814   6.730  11.196  0.00  0.00    +0.000 HD
ENDBRANCH   2  11
ENDBRANCH   1   6
BRANCH   1  15
ATOM     15  C   UNL     1      43.379   5.598  11.606  0.00  0.00    +0.000 C 
ATOM     16  F   UNL     1      42.106   5.312  12.008  0.00  0.00    +0.000 F 
ATOM     17  F   UNL     1      43.290   6.777  10.925  0.00  0.00    +0.000 F 
BRANCH  15  18
ATOM     18  C   UNL     1      43.982   4.485  10.768  0.00  0.00    +0.000 A 
ATOM     19  C   UNL     1      43.619   3.149  10.988  0.00  0.00    +0.000 A 
ATOM     20  C   UNL     1      44.103   2.146  10.150  0.00  0.00    +0.000 A 
ATOM     21  C   UNL     1      44.945   2.469   9.084  0.00  0.00    +0.000 A 
ATOM     22  C   UNL     1      45.311   3.797   8.841  0.00  0.00    +0.000 A 
ATOM     23  C   UNL     1      44.851   4.793   9.706  0.00  0.00    +0.000 A 
BRANCH  22  24
ATOM     24  S   UNL     1      46.467   4.190   7.550  0.00  0.00    +0.000 S 
BRANCH  24  25
ATOM     25  C   UNL     1      46.646   2.649   6.603  0.00  0.00    +0.000 C 
ATOM     26  C   UNL     1      47.658   1.627   7.113  0.00  0.00    +0.000 C 
ATOM     27  O   UNL     1      48.309   1.567   5.817  0.00  0.00    +0.000 OA
ATOM     28  C   UNL     1      47.510   2.685   5.346  0.00  0.00    +0.000 C 
ENDBRANCH  24  25
ENDBRANCH  22  24
ENDBRANCH  15  18
ENDBRANCH   1  15
TORSDOF 6
ENDMDL
MODEL 6
REMARK VINA RESULT:    -6.557      3.464      4.929
REMARK INTER + INTRA:          -9.805
REMARK INTER:                  -8.829
REMARK INTRA:                  -0.976
REMARK UNBOUND:                -0.949
REMARK  Name = 
REMARK  6 active torsions:
REMARK  status: ('A' for Active; 'I' for Inactive)
REMARK    1  A    between atoms: C_2  and  C_4
REMARK    2  A    between atoms: N_8  and  C_9
REMARK    3  A    between atoms: C_9  and  C_10
REMARK    4  A    between atoms: C_10  and  C_13
REMARK    5  A    between atoms: C_17  and  S_18
REMARK    6  A    between atoms: S_18  and  C_19
REMARK                            x       y       z     vdW  Elec       q    Type
REMARK                         _______ _______ _______ _____ _____    ______ ____
ROOT
ATOM      1  C   UNL     1      47.012   8.471  12.635  0.00  0.00    +0.000 C 
ENDROOT
BRANCH   1   6
ATOM      2  C   UNL     1      44.499   4.150  11.503  0.00  0.00    +0.000 A 
ATOM      3  C   UNL     1      45.311   4.969  10.726  0.00  0.00    +0.000 A 
ATOM      4  C   UNL     1      45.843   6.125  11.294  0.00  0.00    +0.000 A 
ATOM      5  C   UNL     1      45.561   6.446  12.620  0.00  0.00    +0.000 A 
ATOM      6  N   UNL     1      46.053   7.561  13.243  0.00  0.00    +0.000 N 
ATOM      7  N   UNL     1      44.759   5.668  13.372  0.00  0.00    +0.000 NA
ATOM      8  C   UNL     1      44.238   4.550  12.802  0.00  0.00    +0.000 A 
ATOM      9  H   UNL     1      45.802   7.653  14.222  0.00  0.00    +0.000 HD
BRANCH   2  11
ATOM     10  N   UNL     1      44.551   2.277   9.962  0.00  0.00    +0.000 N 
ATOM     11  C   UNL     1      43.903   2.901  10.992  0.00  0.00    +0.000 C 
ATOM     12  O   UNL     1      42.893   2.423  11.489  0.00  0.00    +0.000 OA
ATOM     13  H   UNL     1      44.194   1.368   9.691  0.00  0.00    +0.000 HD
ATOM     14  H   UNL     1      45.501   2.500   9.698  0.00  0.00    +0.000 HD
ENDBRANCH   2  11
ENDBRANCH   1   6
BRANCH   1  15
ATOM     15  C   UNL     1      48.493   8.168  12.969  0.00  0.00    +0.000 C 
ATOM     16  F   UNL     1      48.850   6.988  12.383  0.00  0.00    +0.000 F 
ATOM     17  F   UNL     1      49.283   9.118  12.390  0.00  0.00    +0.000 F 
BRANCH  15  18
ATOM     18  C   UNL     1      48.639   8.129  14.479  0.00  0.00    +0.000 A 
ATOM     19  C   UNL     1      48.361   9.264  15.253  0.00  0.00    +0.000 A 
ATOM     20  C   UNL     1      48.403   9.191  16.644  0.00  0.00    +0.000 A 
ATOM     21  C   UNL     1      48.714   7.983  17.273  0.00  0.00    +0.000 A 
ATOM     22  C   UNL     1      48.984   6.836  16.520  0.00  0.00    +0.000 A 
ATOM     23  C   UNL     1      48.975   6.926  15.125  0.00  0.00    +0.000 A 
BRANCH  22  24
ATOM     24  S   UNL     1      49.484   5.331  17.321  0.00  0.00    +0.000 S 
BRANCH  24  25
ATOM     25  C   UNL     1      48.373   4.057  16.652  0.00  0.00    +0.000 C 
ATOM     26  C   UNL     1      46.873   4.270  16.836  0.00  0.00    +0.000 C 
ATOM     27  O   UNL     1      46.722   2.957  17.438  0.00  0.00    +0.000 OA
ATOM     28  C   UNL     1      48.164   2.792  17.478  0.00  0.00    +0.000 C 
ENDBRANCH  24  25
ENDBRANCH  22  24
ENDBRANCH  15  18
ENDBRANCH   1  15
TORSDOF 6
ENDMDL
MODEL 7
REMARK VINA RESULT:    -6.304      3.706      5.564
REMARK INTER + INTRA:          -9.464
REMARK INTER:                  -8.837
REMARK INTRA:                  -0.627
REMARK UNBOUND:                -0.949
REMARK  Name = 
REMARK  6 active torsions:
REMARK  status: ('A' for Active; 'I' for Inactive)
REMARK    1  A    between atoms: C_2  and  C_4
REMARK    2  A    between atoms: N_8  and  C_9
REMARK    3  A    between atoms: C_9  and  C_10
REMARK    4  A    between atoms: C_10  and  C_13
REMARK    5  A    between atoms: C_17  and  S_18
REMARK    6  A    between atoms: S_18  and  C_19
REMARK                            x       y       z     vdW  Elec       q    Type
REMARK                         _______ _______ _______ _____ _____    ______ ____
ROOT
ATOM      1  C   UNL     1      48.556   7.253  13.914  0.00  0.00    +0.000 C 
ENDROOT
BRANCH   1   6
ATOM      2  C   UNL     1      44.834   4.734  11.451  0.00  0.00    +0.000 A 
ATOM      3  C   UNL     1      45.739   5.694  11.010  0.00  0.00    +0.000 A 
ATOM      4  C   UNL     1      46.633   6.248  11.925  0.00  0.00    +0.000 A 
ATOM      5  C   UNL     1      46.614   5.838  13.256  0.00  0.00    +0.000 A 
ATOM      6  N   UNL     1      47.465   6.335  14.205  0.00  0.00    +0.000 N 
ATOM      7  N   UNL     1      45.728   4.924  13.694  0.00  0.00    +0.000 NA
ATOM      8  C   UNL     1      44.853   4.401  12.794  0.00  0.00    +0.000 A 
ATOM      9  H   UNL     1      47.371   5.920  15.127  0.00  0.00    +0.000 HD
BRANCH   2  11
ATOM     10  N   UNL     1      43.871   4.465   9.240  0.00  0.00    +0.000 N 
ATOM     11  C   UNL     1      43.860   4.084  10.553  0.00  0.00    +0.000 C 
ATOM     12  O   UNL     1      43.099   3.216  10.956  0.00  0.00    +0.000 OA
ATOM     13  H   UNL     1      43.274   3.938   8.614  0.00  0.00    +0.000 HD
ATOM     14  H   UNL     1      44.635   4.982   8.827  0.00  0.00    +0.000 HD
ENDBRANCH   2  11
ENDBRANCH   1   6
BRANCH   1  15
ATOM     15  C   UNL     1      48.762   8.368  14.968  0.00  0.00    +0.000 C 
ATOM     16  F   UNL     1      49.824   9.142  14.598  0.00  0.00    +0.000 F 
ATOM     17  F   UNL     1      47.680   9.199  14.954  0.00  0.00    +0.000 F 
BRANCH  15  18
ATOM     18  C   UNL     1      48.974   7.708  16.319  0.00  0.00    +0.000 A 
ATOM     19  C   UNL     1      48.262   8.144  17.445  0.00  0.00    +0.000 A 
ATOM     20  C   UNL     1      48.390   7.470  18.658  0.00  0.00    +0.000 A 
ATOM     21  C   UNL     1      49.221   6.351  18.753  0.00  0.00    +0.000 A 
ATOM     22  C   UNL     1      49.931   5.893  17.638  0.00  0.00    +0.000 A 
ATOM     23  C   UNL     1      49.825   6.596  16.435  0.00  0.00    +0.000 A 
BRANCH  22  24
ATOM     24  S   UNL     1      51.068   4.536  17.792  0.00  0.00    +0.000 S 
BRANCH  24  25
ATOM     25  C   UNL     1      50.025   3.048  17.747  0.00  0.00    +0.000 C 
ATOM     26  C   UNL     1      50.558   1.842  16.979  0.00  0.00    +0.000 C 
ATOM     27  O   UNL     1      49.340   1.754  16.195  0.00  0.00    +0.000 OA
ATOM     28  C   UNL     1      48.876   3.016  16.744  0.00  0.00    +0.000 C 
ENDBRANCH  24  25
ENDBRANCH  22  24
ENDBRANCH  15  18
ENDBRANCH   1  15
TORSDOF 6
ENDMDL
MODEL 8
REMARK VINA RESULT:    -5.987      4.252      6.314
REMARK INTER + INTRA:          -9.036
REMARK INTER:                  -8.448
REMARK INTRA:                  -0.588
REMARK UNBOUND:                -0.949
REMARK  Name = 
REMARK  6 active torsions:
REMARK  status: ('A' for Active; 'I' for Inactive)
REMARK    1  A    between atoms: C_2  and  C_4
REMARK    2  A    between atoms: N_8  and  C_9
REMARK    3  A    between atoms: C_9  and  C_10
REMARK    4  A    between atoms: C_10  and  C_13
REMARK    5  A    between atoms: C_17  and  S_18
REMARK    6  A    between atoms: S_18  and  C_19
REMARK                            x       y       z     vdW  Elec       q    Type
REMARK                         _______ _______ _______ _____ _____    ______ ____
ROOT
ATOM      1  C   UNL     1      47.695   4.665  15.789  0.00  0.00    +0.000 C 
ENDROOT
BRANCH   1   6
ATOM      2  C   UNL     1      44.668   4.651  11.652  0.00  0.00    +0.000 A 
ATOM      3  C   UNL     1      44.976   5.659  12.560  0.00  0.00    +0.000 A 
ATOM      4  C   UNL     1      45.815   5.366  13.634  0.00  0.00    +0.000 A 
ATOM      5  C   UNL     1      46.332   4.081  13.787  0.00  0.00    +0.000 A 
ATOM      6  N   UNL     1      47.164   3.725  14.813  0.00  0.00    +0.000 N 
ATOM      7  N   UNL     1      46.022   3.096  12.923  0.00  0.00    +0.000 NA
ATOM      8  C   UNL     1      45.194   3.392  11.887  0.00  0.00    +0.000 A 
ATOM      9  H   UNL     1      47.500   2.768  14.781  0.00  0.00    +0.000 HD
BRANCH   2  11
ATOM     10  N   UNL     1      44.225   4.358   9.285  0.00  0.00    +0.000 N 
ATOM     11  C   UNL     1      43.801   4.872  10.480  0.00  0.00    +0.000 C 
ATOM     12  O   UNL     1      42.732   5.457  10.575  0.00  0.00    +0.000 OA
ATOM     13  H   UNL     1      43.573   4.423   8.512  0.00  0.00    +0.000 HD
ATOM     14  H   UNL     1      44.960   3.669   9.217  0.00  0.00    +0.000 HD
ENDBRANCH   2  11
ENDBRANCH   1   6
BRANCH   1  15
ATOM     15  C   UNL     1      47.803   4.110  17.229  0.00  0.00    +0.000 C 
ATOM     16  F   UNL     1      47.450   5.089  18.113  0.00  0.00    +0.000 F 
ATOM     17  F   UNL     1      46.880   3.119  17.395  0.00  0.00    +0.000 F 
BRANCH  15  18
ATOM     18  C   UNL     1      49.225   3.625  17.444  0.00  0.00    +0.000 A 
ATOM     19  C   UNL     1      49.560   2.281  17.230  0.00  0.00    +0.000 A 
ATOM     20  C   UNL     1      50.886   1.865  17.335  0.00  0.00    +0.000 A 
ATOM     21  C   UNL     1      51.888   2.788  17.645  0.00  0.00    +0.000 A 
ATOM     22  C   UNL     1      51.576   4.137  17.851  0.00  0.00    +0.000 A 
ATOM     23  C   UNL     1      50.239   4.539  17.780  0.00  0.00    +0.000 A 
BRANCH  22  24
ATOM     24  S   UNL     1      52.836   5.285  18.350  0.00  0.00    +0.000 S 
BRANCH  24  25
ATOM     25  C   UNL     1      52.308   5.872  19.987  0.00  0.00    +0.000 C 
ATOM     26  C   UNL     1      51.760   7.293  20.078  0.00  0.00    +0.000 C 
ATOM     27  O   UNL     1      52.695   7.626  21.138  0.00  0.00    +0.000 OA
ATOM     28  C   UNL     1      53.386   6.363  20.947  0.00  0.00    +0.000 C 
ENDBRANCH  24  25
ENDBRANCH  22  24
ENDBRANCH  15  18
ENDBRANCH   1  15
TORSDOF 6
ENDMDL
MODEL 9
REMARK VINA RESULT:    -5.807      4.573      6.171
REMARK INTER + INTRA:          -8.793
REMARK INTER:                  -8.025
REMARK INTRA:                  -0.768
REMARK UNBOUND:                -0.949
REMARK  Name = 
REMARK  6 active torsions:
REMARK  status: ('A' for Active; 'I' for Inactive)
REMARK    1  A    between atoms: C_2  and  C_4
REMARK    2  A    between atoms: N_8  and  C_9
REMARK    3  A    between atoms: C_9  and  C_10
REMARK    4  A    between atoms: C_10  and  C_13
REMARK    5  A    between atoms: C_17  and  S_18
REMARK    6  A    between atoms: S_18  and  C_19
REMARK                            x       y       z     vdW  Elec       q    Type
REMARK                         _______ _______ _______ _____ _____    ______ ____
ROOT
ATOM      1  C   UNL     1      49.252   7.783  12.730  0.00  0.00    +0.000 C 
ENDROOT
BRANCH   1   6
ATOM      2  C   UNL     1      44.518   5.816  12.737  0.00  0.00    +0.000 A 
ATOM      3  C   UNL     1      44.975   7.107  12.492  0.00  0.00    +0.000 A 
ATOM      4  C   UNL     1      46.339   7.371  12.599  0.00  0.00    +0.000 A 
ATOM      5  C   UNL     1      47.224   6.352  12.945  0.00  0.00    +0.000 A 
ATOM      6  N   UNL     1      48.574   6.538  13.063  0.00  0.00    +0.000 N 
ATOM      7  N   UNL     1      46.786   5.105  13.202  0.00  0.00    +0.000 NA
ATOM      8  C   UNL     1      45.452   4.863  13.106  0.00  0.00    +0.000 A 
ATOM      9  H   UNL     1      49.106   5.702  13.280  0.00  0.00    +0.000 HD
BRANCH   2  11
ATOM     10  N   UNL     1      42.311   6.189  11.800  0.00  0.00    +0.000 N 
ATOM     11  C   UNL     1      43.095   5.441  12.635  0.00  0.00    +0.000 C 
ATOM     12  O   UNL     1      42.642   4.481  13.242  0.00  0.00    +0.000 OA
ATOM     13  H   UNL     1      41.365   5.857  11.657  0.00  0.00    +0.000 HD
ATOM     14  H   UNL     1      42.694   6.816  11.107  0.00  0.00    +0.000 HD
ENDBRANCH   2  11
ENDBRANCH   1   6
BRANCH   1  15
ATOM     15  C   UNL     1      49.637   8.655  13.949  0.00  0.00    +0.000 C 
ATOM     16  F   UNL     1      50.398   9.706  13.525  0.00  0.00    +0.000 F 
ATOM     17  F   UNL     1      48.506   9.212  14.473  0.00  0.00    +0.000 F 
BRANCH  15  18
ATOM     18  C   UNL     1      50.371   7.777  14.947  0.00  0.00    +0.000 A 
ATOM     19  C   UNL     1      51.771   7.731  14.961  0.00  0.00    +0.000 A 
ATOM     20  C   UNL     1      52.437   6.999  15.943  0.00  0.00    +0.000 A 
ATOM     21  C   UNL     1      51.710   6.317  16.922  0.00  0.00    +0.000 A 
ATOM     22  C   UNL     1      50.312   6.360  16.932  0.00  0.00    +0.000 A 
ATOM     23  C   UNL     1      49.651   7.066  15.923  0.00  0.00    +0.000 A 
BRANCH  22  24
ATOM     24  S   UNL     1      49.391   5.403  18.112  0.00  0.00    +0.000 S 
BRANCH  24  25
ATOM     25  C   UNL     1      48.573   4.113  17.128  0.00  0.00    +0.000 C 
ATOM     26  C   UNL     1      47.119   4.351  16.731  0.00  0.00    +0.000 C 
ATOM     27  O   UNL     1      46.718   3.070  17.284  0.00  0.00    +0.000 OA
ATOM     28  C   UNL     1      48.037   2.890  17.865  0.00  0.00    +0.000 C 
ENDBRANCH  24  25
ENDBRANCH  22  24
ENDBRANCH  15  18
ENDBRANCH   1  15
TORSDOF 6
ENDMDL
