MODEL 1
REMARK VINA RESULT:    -8.981      0.000      0.000
REMARK INTER + INTRA:         -12.065
REMARK INTER:                 -11.607
REMARK INTRA:                  -0.458
REMARK UNBOUND:                -0.458
REMARK  Name = 
REMARK  5 active torsions:
REMARK  status: ('A' for Active; 'I' for Inactive)
REMARK    1  A    between atoms: C_2  and  C_4
REMARK    2  A    between atoms: C_8  and  N_9
REMARK    3  A    between atoms: N_9  and  C_10
REMARK    4  A    between atoms: C_10  and  C_11
REMARK    5  A    between atoms: C_15  and  C_16
REMARK                            x       y       z     vdW  Elec       q    Type
REMARK                         _______ _______ _______ _____ _____    ______ ____
ROOT
ATOM      1  C   UNL     1      43.481   6.611  11.013  0.00  0.00    +0.000 C 
ENDROOT
BRANCH   1   2
ATOM      2  C   UNL     1      43.727   5.123  10.892  0.00  0.00    +0.000 A 
ATOM      3  C   UNL     1      43.035   4.220  11.705  0.00  0.00    +0.000 A 
ATOM      4  C   UNL     1      43.208   2.848  11.534  0.00  0.00    +0.000 A 
ATOM      5  C   UNL     1      44.053   2.368  10.529  0.00  0.00    +0.000 A 
ATOM      6  C   UNL     1      44.767   3.241   9.688  0.00  0.00    +0.000 A 
ATOM      7  C   UNL     1      44.625   4.623   9.932  0.00  0.00    +0.000 A 
BRANCH   6   8
ATOM      8  C   UNL     1      45.528   2.732   8.518  0.00  0.00    +0.000 A 
ATOM      9  C   UNL     1      46.005   3.580   7.498  0.00  0.00    +0.000 A 
ATOM     10  C   UNL     1      46.848   3.107   6.481  0.00  0.00    +0.000 A 
ATOM     11  C   UNL     1      47.214   1.767   6.448  0.00  0.00    +0.000 A 
ATOM     12  C   UNL     1      46.722   0.910   7.417  0.00  0.00    +0.000 A 
ATOM     13  F   UNL     1      47.066  -0.381   7.392  0.00  0.00    +0.000 F 
ATOM     14  C   UNL     1      45.893   1.375   8.437  0.00  0.00    +0.000 A 
ENDBRANCH   6   8
ENDBRANCH   1   2
BRANCH   1  15
ATOM     15  N   UNL     1      43.984   7.086  12.289  0.00  0.00    +0.000 N 
ATOM     16  H   UNL     1      43.352   6.856  13.051  0.00  0.00    +0.000 HD
BRANCH  15  21
ATOM     17  C   UNL     1      46.841   5.374  13.701  0.00  0.00    +0.000 A 
ATOM     18  C   UNL     1      47.884   5.992  13.027  0.00  0.00    +0.000 A 
ATOM     19  N   UNL     1      47.669   6.968  12.117  0.00  0.00    +0.000 NA
ATOM     20  C   UNL     1      46.364   7.285  11.923  0.00  0.00    +0.000 A 
ATOM     21  C   UNL     1      45.293   6.685  12.605  0.00  0.00    +0.000 A 
ATOM     22  N   UNL     1      45.526   5.699  13.502  0.00  0.00    +0.000 NA
BRANCH  17  24
ATOM     23  N   UNL     1      47.104   4.675  16.008  0.00  0.00    +0.000 N 
ATOM     24  C   UNL     1      47.153   4.308  14.693  0.00  0.00    +0.000 C 
ATOM     25  O   UNL     1      47.437   3.164  14.359  0.00  0.00    +0.000 OA
ATOM     26  H   UNL     1      47.288   3.984  16.723  0.00  0.00    +0.000 HD
ATOM     27  H   UNL     1      46.835   5.617  16.265  0.00  0.00    +0.000 HD
ENDBRANCH  17  24
ENDBRANCH  15  21
ENDBRANCH   1  15
TORSDOF 5
ENDMDL
MODEL 2
REMARK VINA RESULT:    -8.680      4.191      6.820
REMARK INTER + INTRA:         -11.676
REMARK INTER:                 -11.086
REMARK INTRA:                  -0.590
REMARK UNBOUND:                -0.458
REMARK  Name = 
REMARK  5 active torsions:
REMARK  status: ('A' for Active; 'I' for Inactive)
REMARK    1  A    between atoms: C_2  and  C_4
REMARK    2  A    between atoms: C_8  and  N_9
REMARK    3  A    between atoms: N_9  and  C_10
REMARK    4  A    between atoms: C_10  and  C_11
REMARK    5  A    between atoms: C_15  and  C_16
REMARK                            x       y       z     vdW  Elec       q    Type
REMARK                         _______ _______ _______ _____ _____    ______ ____
ROOT
ATOM      1  C   UNL     1      43.630   3.789  11.408  0.00  0.00    +0.000 C 
ENDROOT
BRANCH   1   2
ATOM      2  C   UNL     1      44.822   4.313  12.180  0.00  0.00    +0.000 A 
ATOM      3  C   UNL     1      45.641   3.440  12.902  0.00  0.00    +0.000 A 
ATOM      4  C   UNL     1      46.780   3.919  13.544  0.00  0.00    +0.000 A 
ATOM      5  C   UNL     1      47.125   5.270  13.446  0.00  0.00    +0.000 A 
ATOM      6  C   UNL     1      46.330   6.183  12.729  0.00  0.00    +0.000 A 
ATOM      7  C   UNL     1      45.147   5.681  12.149  0.00  0.00    +0.000 A 
BRANCH   6   8
ATOM      8  C   UNL     1      46.786   7.575  12.485  0.00  0.00    +0.000 A 
ATOM      9  C   UNL     1      48.124   7.890  12.171  0.00  0.00    +0.000 A 
ATOM     10  C   UNL     1      48.508   9.186  11.797  0.00  0.00    +0.000 A 
ATOM     11  C   UNL     1      47.565  10.205  11.753  0.00  0.00    +0.000 A 
ATOM     12  C   UNL     1      46.254   9.926  12.099  0.00  0.00    +0.000 A 
ATOM     13  F   UNL     1      45.340  10.900  12.063  0.00  0.00    +0.000 F 
ATOM     14  C   UNL     1      45.863   8.637  12.461  0.00  0.00    +0.000 A 
ENDBRANCH   6   8
ENDBRANCH   1   2
BRANCH   1  15
ATOM     15  N   UNL     1      44.004   2.579  10.699  0.00  0.00    +0.000 N 
ATOM     16  H   UNL     1      43.192   2.011  10.471  0.00  0.00    +0.000 HD
BRANCH  15  21
ATOM     17  C   UNL     1      46.260   2.076   7.916  0.00  0.00    +0.000 A 
ATOM     18  C   UNL     1      46.197   3.313   7.293  0.00  0.00    +0.000 A 
ATOM     19  N   UNL     1      45.429   4.317   7.772  0.00  0.00    +0.000 NA
ATOM     20  C   UNL     1      44.736   4.013   8.898  0.00  0.00    +0.000 A 
ATOM     21  C   UNL     1      44.796   2.774   9.555  0.00  0.00    +0.000 A 
ATOM     22  N   UNL     1      45.560   1.775   9.053  0.00  0.00    +0.000 NA
BRANCH  17  24
ATOM     23  N   UNL     1      46.823  -0.271   7.670  0.00  0.00    +0.000 N 
ATOM     24  C   UNL     1      47.132   1.017   7.334  0.00  0.00    +0.000 C 
ATOM     25  O   UNL     1      48.072   1.277   6.593  0.00  0.00    +0.000 OA
ATOM     26  H   UNL     1      47.371  -1.028   7.285  0.00  0.00    +0.000 HD
ATOM     27  H   UNL     1      46.021  -0.466   8.257  0.00  0.00    +0.000 HD
ENDBRANCH  17  24
ENDBRANCH  15  21
ENDBRANCH   1  15
TORSDOF 5
ENDMDL
MODEL 3
REMARK VINA RESULT:    -8.453      1.633      2.412
REMARK INTER + INTRA:         -11.383
REMARK INTER:                 -10.636
REMARK INTRA:                  -0.747
REMARK UNBOUND:                -0.458
REMARK  Name = 
REMARK  5 active torsions:
REMARK  status: ('A' for Active; 'I' for Inactive)
REMARK    1  A    between atoms: C_2  and  C_4
REMARK    2  A    between atoms: C_8  and  N_9
REMARK    3  A    between atoms: N_9  and  C_10
REMARK    4  A    between atoms: C_10  and  C_11
REMARK    5  A    between atoms: C_15  and  C_16
REMARK                            x       y       z     vdW  Elec       q    Type
REMARK                         _______ _______ _______ _____ _____    ______ ____
ROOT
ATOM      1  C   UNL     1      46.006   6.957  12.792  0.00  0.00    +0.000 C 
ENDROOT
BRANCH   1   2
ATOM      2  C   UNL     1      45.129   5.958  12.069  0.00  0.00    +0.000 A 
ATOM      3  C   UNL     1      43.758   5.892  12.334  0.00  0.00    +0.000 A 
ATOM      4  C   UNL     1      42.945   5.026  11.608  0.00  0.00    +0.000 A 
ATOM      5  C   UNL     1      43.491   4.239  10.590  0.00  0.00    +0.000 A 
ATOM      6  C   UNL     1      44.865   4.275  10.289  0.00  0.00    +0.000 A 
ATOM      7  C   UNL     1      45.673   5.109  11.088  0.00  0.00    +0.000 A 
BRANCH   6   8
ATOM      8  C   UNL     1      45.411   3.568   9.101  0.00  0.00    +0.000 A 
ATOM      9  C   UNL     1      45.962   4.253   8.000  0.00  0.00    +0.000 A 
ATOM     10  C   UNL     1      46.609   3.573   6.957  0.00  0.00    +0.000 A 
ATOM     11  C   UNL     1      46.696   2.187   6.981  0.00  0.00    +0.000 A 
ATOM     12  C   UNL     1      46.124   1.493   8.033  0.00  0.00    +0.000 A 
ATOM     13  F   UNL     1      46.201   0.159   8.063  0.00  0.00    +0.000 F 
ATOM     14  C   UNL     1      45.491   2.163   9.079  0.00  0.00    +0.000 A 
ENDBRANCH   6   8
ENDBRANCH   1   2
BRANCH   1  15
ATOM     15  N   UNL     1      47.352   6.428  12.911  0.00  0.00    +0.000 N 
ATOM     16  H   UNL     1      48.035   7.036  12.467  0.00  0.00    +0.000 HD
BRANCH  15  21
ATOM     17  C   UNL     1      47.940   4.709  16.039  0.00  0.00    +0.000 A 
ATOM     18  C   UNL     1      48.701   5.647  16.721  0.00  0.00    +0.000 A 
ATOM     19  N   UNL     1      49.023   6.841  16.175  0.00  0.00    +0.000 NA
ATOM     20  C   UNL     1      48.545   7.038  14.920  0.00  0.00    +0.000 A 
ATOM     21  C   UNL     1      47.760   6.111  14.217  0.00  0.00    +0.000 A 
ATOM     22  N   UNL     1      47.459   4.915  14.774  0.00  0.00    +0.000 NA
BRANCH  17  24
ATOM     23  N   UNL     1      48.591   2.455  16.654  0.00  0.00    +0.000 N 
ATOM     24  C   UNL     1      47.621   3.416  16.705  0.00  0.00    +0.000 C 
ATOM     25  O   UNL     1      46.552   3.216  17.270  0.00  0.00    +0.000 OA
ATOM     26  H   UNL     1      48.432   1.566  17.108  0.00  0.00    +0.000 HD
ATOM     27  H   UNL     1      49.480   2.651  16.212  0.00  0.00    +0.000 HD
ENDBRANCH  17  24
ENDBRANCH  15  21
ENDBRANCH   1  15
TORSDOF 5
ENDMDL
MODEL 4
REMARK VINA RESULT:    -8.211      4.015      6.808
REMARK INTER + INTRA:         -11.070
REMARK INTER:                 -10.243
REMARK INTRA:                  -0.827
REMARK UNBOUND:                -0.458
REMARK  Name = 
REMARK  5 active torsions:
REMARK  status: ('A' for Active; 'I' for Inactive)
REMARK    1  A    between atoms: C_2  and  C_4
REMARK    2  A    between atoms: C_8  and  N_9
REMARK    3  A    between atoms: N_9  and  C_10
REMARK    4  A    between atoms: C_10  and  C_11
REMARK    5  A    between atoms: C_15  and  C_16
REMARK                            x       y       z     vdW  Elec       q    Type
REMARK                         _______ _______ _______ _____ _____    ______ ____
ROOT
ATOM      1  C   UNL     1      44.149   5.086  10.831  0.00  0.00    +0.000 C 
ENDROOT
BRANCH   1   2
ATOM      2  C   UNL     1      45.287   5.388  11.782  0.00  0.00    +0.000 A 
ATOM      3  C   UNL     1      45.537   4.555  12.878  0.00  0.00    +0.000 A 
ATOM      4  C   UNL     1      46.633   4.794  13.703  0.00  0.00    +0.000 A 
ATOM      5  C   UNL     1      47.506   5.850  13.422  0.00  0.00    +0.000 A 
ATOM      6  C   UNL     1      47.292   6.710  12.330  0.00  0.00    +0.000 A 
ATOM      7  C   UNL     1      46.136   6.486  11.556  0.00  0.00    +0.000 A 
BRANCH   6   8
ATOM      8  C   UNL     1      48.308   7.721  11.937  0.00  0.00    +0.000 A 
ATOM      9  C   UNL     1      48.012   9.096  11.848  0.00  0.00    +0.000 A 
ATOM     10  C   UNL     1      49.014  10.053  11.624  0.00  0.00    +0.000 A 
ATOM     11  C   UNL     1      50.333   9.651  11.459  0.00  0.00    +0.000 A 
ATOM     12  C   UNL     1      50.638   8.302  11.501  0.00  0.00    +0.000 A 
ATOM     13  F   UNL     1      51.904   7.906  11.340  0.00  0.00    +0.000 F 
ATOM     14  C   UNL     1      49.649   7.347  11.734  0.00  0.00    +0.000 A 
ENDBRANCH   6   8
ENDBRANCH   1   2
BRANCH   1  15
ATOM     15  N   UNL     1      44.634   5.129   9.463  0.00  0.00    +0.000 N 
ATOM     16  H   UNL     1      45.346   5.844   9.340  0.00  0.00    +0.000 HD
BRANCH  15  21
ATOM     17  C   UNL     1      46.433   2.595   7.611  0.00  0.00    +0.000 A 
ATOM     18  C   UNL     1      45.869   1.437   8.125  0.00  0.00    +0.000 A 
ATOM     19  N   UNL     1      44.900   1.470   9.069  0.00  0.00    +0.000 NA
ATOM     20  C   UNL     1      44.536   2.716   9.463  0.00  0.00    +0.000 A 
ATOM     21  C   UNL     1      45.081   3.902   8.946  0.00  0.00    +0.000 A 
ATOM     22  N   UNL     1      46.059   3.849   8.012  0.00  0.00    +0.000 NA
BRANCH  17  24
ATOM     23  N   UNL     1      47.340   3.273   5.467  0.00  0.00    +0.000 N 
ATOM     24  C   UNL     1      47.492   2.482   6.571  0.00  0.00    +0.000 C 
ATOM     25  O   UNL     1      48.450   1.728   6.690  0.00  0.00    +0.000 OA
ATOM     26  H   UNL     1      48.042   3.249   4.740  0.00  0.00    +0.000 HD
ATOM     27  H   UNL     1      46.559   3.914   5.402  0.00  0.00    +0.000 HD
ENDBRANCH  17  24
ENDBRANCH  15  21
ENDBRANCH   1  15
TORSDOF 5
ENDMDL
MODEL 5
REMARK VINA RESULT:    -7.799      2.243      3.173
REMARK INTER + INTRA:         -10.537
REMARK INTER:                  -9.839
REMARK INTRA:                  -0.698
REMARK UNBOUND:                -0.458
REMARK  Name = 
REMARK  5 active torsions:
REMARK  status: ('A' for Active; 'I' for Inactive)
REMARK    1  A    between atoms: C_2  and  C_4
REMARK    2  A    between atoms: C_8  and  N_9
REMARK    3  A    between atoms: N_9  and  C_10
REMARK    4  A    between atoms: C_10  and  C_11
REMARK    5  A    between atoms: C_15  and  C_16
REMARK                            x       y       z     vdW  Elec       q    Type
REMARK                         _______ _______ _______ _____ _____    ______ ____
ROOT
ATOM      1  C   UNL     1      45.847   4.595  13.843  0.00  0.00    +0.000 C 
ENDROOT
BRANCH   1   2
ATOM      2  C   UNL     1      44.995   4.430  12.603  0.00  0.00    +0.000 A 
ATOM      3  C   UNL     1      43.718   4.997  12.537  0.00  0.00    +0.000 A 
ATOM      4  C   UNL     1      42.972   4.909  11.364  0.00  0.00    +0.000 A 
ATOM      5  C   UNL     1      43.509   4.280  10.237  0.00  0.00    +0.000 A 
ATOM      6  C   UNL     1      44.790   3.698  10.259  0.00  0.00    +0.000 A 
ATOM      7  C   UNL     1      45.491   3.741  11.482  0.00  0.00    +0.000 A 
BRANCH   6   8
ATOM      8  C   UNL     1      45.422   3.182   9.017  0.00  0.00    +0.000 A 
ATOM      9  C   UNL     1      45.867   4.032   7.985  0.00  0.00    +0.000 A 
ATOM     10  C   UNL     1      46.596   3.543   6.890  0.00  0.00    +0.000 A 
ATOM     11  C   UNL     1      46.874   2.186   6.791  0.00  0.00    +0.000 A 
ATOM     12  C   UNL     1      46.409   1.329   7.773  0.00  0.00    +0.000 A 
ATOM     13  F   UNL     1      46.670   0.021   7.685  0.00  0.00    +0.000 F 
ATOM     14  C   UNL     1      45.695   1.810   8.870  0.00  0.00    +0.000 A 
ENDBRANCH   6   8
ENDBRANCH   1   2
BRANCH   1  15
ATOM     15  N   UNL     1      47.180   5.025  13.465  0.00  0.00    +0.000 N 
ATOM     16  H   UNL     1      47.444   4.668  12.550  0.00  0.00    +0.000 HD
BRANCH  15  21
ATOM     17  C   UNL     1      46.886   8.609  13.069  0.00  0.00    +0.000 A 
ATOM     18  C   UNL     1      47.953   9.051  13.837  0.00  0.00    +0.000 A 
ATOM     19  N   UNL     1      48.775   8.193  14.482  0.00  0.00    +0.000 NA
ATOM     20  C   UNL     1      48.469   6.882  14.316  0.00  0.00    +0.000 A 
ATOM     21  C   UNL     1      47.405   6.410  13.530  0.00  0.00    +0.000 A 
ATOM     22  N   UNL     1      46.584   7.284  12.903  0.00  0.00    +0.000 NA
BRANCH  17  24
ATOM     23  N   UNL     1      44.707   9.624  12.747  0.00  0.00    +0.000 N 
ATOM     24  C   UNL     1      46.024   9.612  12.383  0.00  0.00    +0.000 C 
ATOM     25  O   UNL     1      46.462  10.386  11.541  0.00  0.00    +0.000 OA
ATOM     26  H   UNL     1      44.084  10.299  12.326  0.00  0.00    +0.000 HD
ATOM     27  H   UNL     1      44.371   8.999  13.469  0.00  0.00    +0.000 HD
ENDBRANCH  17  24
ENDBRANCH  15  21
ENDBRANCH   1  15
TORSDOF 5
ENDMDL
MODEL 6
REMARK VINA RESULT:    -7.783      2.817      5.037
REMARK INTER + INTRA:         -10.517
REMARK INTER:                  -9.758
REMARK INTRA:                  -0.758
REMARK UNBOUND:                -0.458
REMARK  Name = 
REMARK  5 active torsions:
REMARK  status: ('A' for Active; 'I' for Inactive)
REMARK    1  A    between atoms: C_2  and  C_4
REMARK    2  A    between atoms: C_8  and  N_9
REMARK    3  A    between atoms: N_9  and  C_10
REMARK    4  A    between atoms: C_10  and  C_11
REMARK    5  A    between atoms: C_15  and  C_16
REMARK                            x       y       z     vdW  Elec       q    Type
REMARK                         _______ _______ _______ _____ _____    ______ ____
ROOT
ATOM      1  C   UNL     1      48.689   6.677  14.528  0.00  0.00    +0.000 C 
ENDROOT
BRANCH   1   2
ATOM      2  C   UNL     1      47.495   7.028  13.667  0.00  0.00    +0.000 A 
ATOM      3  C   UNL     1      47.064   8.353  13.555  0.00  0.00    +0.000 A 
ATOM      4  C   UNL     1      46.015   8.679  12.699  0.00  0.00    +0.000 A 
ATOM      5  C   UNL     1      45.407   7.685  11.925  0.00  0.00    +0.000 A 
ATOM      6  C   UNL     1      45.810   6.340  12.006  0.00  0.00    +0.000 A 
ATOM      7  C   UNL     1      46.827   6.031  12.933  0.00  0.00    +0.000 A 
BRANCH   6   8
ATOM      8  C   UNL     1      45.280   5.320  11.064  0.00  0.00    +0.000 A 
ATOM      9  C   UNL     1      45.626   5.300   9.698  0.00  0.00    +0.000 A 
ATOM     10  C   UNL     1      45.239   4.246   8.855  0.00  0.00    +0.000 A 
ATOM     11  C   UNL     1      44.476   3.200   9.357  0.00  0.00    +0.000 A 
ATOM     12  C   UNL     1      44.090   3.223  10.686  0.00  0.00    +0.000 A 
ATOM     13  F   UNL     1      43.354   2.222  11.177  0.00  0.00    +0.000 F 
ATOM     14  C   UNL     1      44.481   4.261  11.532  0.00  0.00    +0.000 A 
ENDBRANCH   6   8
ENDBRANCH   1   2
BRANCH   1  15
ATOM     15  N   UNL     1      48.266   6.524  15.908  0.00  0.00    +0.000 N 
ATOM     16  H   UNL     1      47.366   6.965  16.076  0.00  0.00    +0.000 HD
BRANCH  15  21
ATOM     17  C   UNL     1      49.275   3.272  17.131  0.00  0.00    +0.000 A 
ATOM     18  C   UNL     1      48.044   2.692  17.397  0.00  0.00    +0.000 A 
ATOM     19  N   UNL     1      46.881   3.348  17.178  0.00  0.00    +0.000 NA
ATOM     20  C   UNL     1      47.023   4.603  16.683  0.00  0.00    +0.000 A 
ATOM     21  C   UNL     1      48.258   5.204  16.390  0.00  0.00    +0.000 A 
ATOM     22  N   UNL     1      49.411   4.538  16.629  0.00  0.00    +0.000 NA
BRANCH  17  24
ATOM     23  N   UNL     1      51.433   3.072  18.218  0.00  0.00    +0.000 N 
ATOM     24  C   UNL     1      50.514   2.488  17.393  0.00  0.00    +0.000 C 
ATOM     25  O   UNL     1      50.706   1.382  16.903  0.00  0.00    +0.000 OA
ATOM     26  H   UNL     1      52.283   2.573  18.445  0.00  0.00    +0.000 HD
ATOM     27  H   UNL     1      51.241   3.972  18.640  0.00  0.00    +0.000 HD
ENDBRANCH  17  24
ENDBRANCH  15  21
ENDBRANCH   1  15
TORSDOF 5
ENDMDL
MODEL 7
REMARK VINA RESULT:    -7.359      2.708      4.788
REMARK INTER + INTRA:          -9.968
REMARK INTER:                  -9.215
REMARK INTRA:                  -0.753
REMARK UNBOUND:                -0.458
REMARK  Name = 
REMARK  5 active torsions:
REMARK  status: ('A' for Active; 'I' for Inactive)
REMARK    1  A    between atoms: C_2  and  C_4
REMARK    2  A    between atoms: C_8  and  N_9
REMARK    3  A    between atoms: N_9  and  C_10
REMARK    4  A    between atoms: C_10  and  C_11
REMARK    5  A    between atoms: C_15  and  C_16
REMARK                            x       y       z     vdW  Elec       q    Type
REMARK                         _______ _______ _______ _____ _____    ______ ____
ROOT
ATOM      1  C   UNL     1      48.583   7.291  13.997  0.00  0.00    +0.000 C 
ENDROOT
BRANCH   1   2
ATOM      2  C   UNL     1      47.274   7.430  13.249  0.00  0.00    +0.000 A 
ATOM      3  C   UNL     1      46.653   8.677  13.130  0.00  0.00    +0.000 A 
ATOM      4  C   UNL     1      45.491   8.811  12.374  0.00  0.00    +0.000 A 
ATOM      5  C   UNL     1      44.957   7.705  11.707  0.00  0.00    +0.000 A 
ATOM      6  C   UNL     1      45.551   6.433  11.798  0.00  0.00    +0.000 A 
ATOM      7  C   UNL     1      46.685   6.315  12.628  0.00  0.00    +0.000 A 
BRANCH   6   8
ATOM      8  C   UNL     1      45.081   5.302  10.956  0.00  0.00    +0.000 A 
ATOM      9  C   UNL     1      45.479   5.142   9.614  0.00  0.00    +0.000 A 
ATOM     10  C   UNL     1      45.150   3.992   8.880  0.00  0.00    +0.000 A 
ATOM     11  C   UNL     1      44.392   2.987   9.466  0.00  0.00    +0.000 A 
ATOM     12  C   UNL     1      43.956   3.145  10.770  0.00  0.00    +0.000 A 
ATOM     13  F   UNL     1      43.224   2.184  11.342  0.00  0.00    +0.000 F 
ATOM     14  C   UNL     1      44.289   4.279  11.509  0.00  0.00    +0.000 A 
ENDBRANCH   6   8
ENDBRANCH   1   2
BRANCH   1  15
ATOM     15  N   UNL     1      48.343   7.404  15.424  0.00  0.00    +0.000 N 
ATOM     16  H   UNL     1      47.361   7.568  15.628  0.00  0.00    +0.000 HD
BRANCH  15  21
ATOM     17  C   UNL     1      48.861   4.143  16.903  0.00  0.00    +0.000 A 
ATOM     18  C   UNL     1      49.957   4.389  17.717  0.00  0.00    +0.000 A 
ATOM     19  N   UNL     1      50.530   5.612  17.795  0.00  0.00    +0.000 NA
ATOM     20  C   UNL     1      49.949   6.561  17.019  0.00  0.00    +0.000 A 
ATOM     21  C   UNL     1      48.830   6.340  16.201  0.00  0.00    +0.000 A 
ATOM     22  N   UNL     1      48.278   5.106  16.124  0.00  0.00    +0.000 NA
BRANCH  17  24
ATOM     23  N   UNL     1      49.037   1.810  16.265  0.00  0.00    +0.000 N 
ATOM     24  C   UNL     1      48.279   2.773  16.870  0.00  0.00    +0.000 C 
ATOM     25  O   UNL     1      47.185   2.514  17.357  0.00  0.00    +0.000 OA
ATOM     26  H   UNL     1      48.696   0.859  16.234  0.00  0.00    +0.000 HD
ATOM     27  H   UNL     1      49.953   2.037  15.899  0.00  0.00    +0.000 HD
ENDBRANCH  17  24
ENDBRANCH  15  21
ENDBRANCH   1  15
TORSDOF 5
ENDMDL
MODEL 8
REMARK VINA RESULT:    -7.328      2.355      3.266
REMARK INTER + INTRA:          -9.929
REMARK INTER:                  -9.349
REMARK INTRA:                  -0.580
REMARK UNBOUND:                -0.458
REMARK  Name = 
REMARK  5 active torsions:
REMARK  status: ('A' for Active; 'I' for Inactive)
REMARK    1  A    between atoms: C_2  and  C_4
REMARK    2  A    between atoms: C_8  and  N_9
REMARK    3  A    between atoms: N_9  and  C_10
REMARK    4  A    between atoms: C_10  and  C_11
REMARK    5  A    between atoms: C_15  and  C_16
REMARK                            x       y       z     vdW  Elec       q    Type
REMARK                         _______ _______ _______ _____ _____    ______ ____
ROOT
ATOM      1  C   UNL     1      45.897   4.088  13.783  0.00  0.00    +0.000 C 
ENDROOT
BRANCH   1   2
ATOM      2  C   UNL     1      45.099   4.172  12.499  0.00  0.00    +0.000 A 
ATOM      3  C   UNL     1      43.970   4.992  12.415  0.00  0.00    +0.000 A 
ATOM      4  C   UNL     1      43.289   5.126  11.208  0.00  0.00    +0.000 A 
ATOM      5  C   UNL     1      43.748   4.462  10.067  0.00  0.00    +0.000 A 
ATOM      6  C   UNL     1      44.881   3.628  10.106  0.00  0.00    +0.000 A 
ATOM      7  C   UNL     1      45.506   3.458  11.358  0.00  0.00    +0.000 A 
BRANCH   6   8
ATOM      8  C   UNL     1      45.462   3.062   8.861  0.00  0.00    +0.000 A 
ATOM      9  C   UNL     1      45.864   3.869   7.779  0.00  0.00    +0.000 A 
ATOM     10  C   UNL     1      46.548   3.335   6.676  0.00  0.00    +0.000 A 
ATOM     11  C   UNL     1      46.824   1.975   6.621  0.00  0.00    +0.000 A 
ATOM     12  C   UNL     1      46.400   1.159   7.655  0.00  0.00    +0.000 A 
ATOM     13  F   UNL     1      46.659  -0.152   7.609  0.00  0.00    +0.000 F 
ATOM     14  C   UNL     1      45.730   1.684   8.759  0.00  0.00    +0.000 A 
ENDBRANCH   6   8
ENDBRANCH   1   2
BRANCH   1  15
ATOM     15  N   UNL     1      46.460   5.389  14.092  0.00  0.00    +0.000 N 
ATOM     16  H   UNL     1      45.740   6.058  14.352  0.00  0.00    +0.000 HD
BRANCH  15  21
ATOM     17  C   UNL     1      49.412   6.215  16.014  0.00  0.00    +0.000 A 
ATOM     18  C   UNL     1      49.342   5.273  17.029  0.00  0.00    +0.000 A 
ATOM     19  N   UNL     1      48.344   4.363  17.095  0.00  0.00    +0.000 NA
ATOM     20  C   UNL     1      47.430   4.452  16.096  0.00  0.00    +0.000 A 
ATOM     21  C   UNL     1      47.488   5.386  15.049  0.00  0.00    +0.000 A 
ATOM     22  N   UNL     1      48.487   6.298  15.008  0.00  0.00    +0.000 NA
BRANCH  17  24
ATOM     23  N   UNL     1      51.774   6.671  15.709  0.00  0.00    +0.000 N 
ATOM     24  C   UNL     1      50.543   7.184  16.004  0.00  0.00    +0.000 C 
ATOM     25  O   UNL     1      50.387   8.375  16.243  0.00  0.00    +0.000 OA
ATOM     26  H   UNL     1      52.572   7.290  15.669  0.00  0.00    +0.000 HD
ATOM     27  H   UNL     1      51.877   5.690  15.481  0.00  0.00    +0.000 HD
ENDBRANCH  17  24
ENDBRANCH  15  21
ENDBRANCH   1  15
TORSDOF 5
ENDMDL
MODEL 9
REMARK VINA RESULT:    -7.264      3.462      7.227
REMARK INTER + INTRA:          -9.846
REMARK INTER:                  -9.151
REMARK INTRA:                  -0.695
REMARK UNBOUND:                -0.458
REMARK  Name = 
REMARK  5 active torsions:
REMARK  status: ('A' for Active; 'I' for Inactive)
REMARK    1  A    between atoms: C_2  and  C_4
REMARK    2  A    between atoms: C_8  and  N_9
REMARK    3  A    between atoms: N_9  and  C_10
REMARK    4  A    between atoms: C_10  and  C_11
REMARK    5  A    between atoms: C_15  and  C_16
REMARK                            x       y       z     vdW  Elec       q    Type
REMARK                         _______ _______ _______ _____ _____    ______ ____
ROOT
ATOM      1  C   UNL     1      45.480   7.356  11.761  0.00  0.00    +0.000 C 
ENDROOT
BRANCH   1   2
ATOM      2  C   UNL     1      46.824   7.200  12.440  0.00  0.00    +0.000 A 
ATOM      3  C   UNL     1      47.950   7.866  11.949  0.00  0.00    +0.000 A 
ATOM      4  C   UNL     1      49.165   7.780  12.625  0.00  0.00    +0.000 A 
ATOM      5  C   UNL     1      49.256   7.051  13.814  0.00  0.00    +0.000 A 
ATOM      6  C   UNL     1      48.146   6.367  14.345  0.00  0.00    +0.000 A 
ATOM      7  C   UNL     1      46.950   6.415  13.600  0.00  0.00    +0.000 A 
BRANCH   6   8
ATOM      8  C   UNL     1      48.202   5.737  15.689  0.00  0.00    +0.000 A 
ATOM      9  C   UNL     1      48.846   6.347  16.785  0.00  0.00    +0.000 A 
ATOM     10  C   UNL     1      48.761   5.814  18.080  0.00  0.00    +0.000 A 
ATOM     11  C   UNL     1      48.048   4.643  18.304  0.00  0.00    +0.000 A 
ATOM     12  C   UNL     1      47.444   4.006  17.234  0.00  0.00    +0.000 A 
ATOM     13  F   UNL     1      46.758   2.877  17.439  0.00  0.00    +0.000 F 
ATOM     14  C   UNL     1      47.515   4.537  15.946  0.00  0.00    +0.000 A 
ENDBRANCH   6   8
ENDBRANCH   1   2
BRANCH   1  15
ATOM     15  N   UNL     1      44.460   6.673  12.535  0.00  0.00    +0.000 N 
ATOM     16  H   UNL     1      43.597   7.208  12.575  0.00  0.00    +0.000 HD
BRANCH  15  21
ATOM     17  C   UNL     1      44.205   3.603  10.639  0.00  0.00    +0.000 A 
ATOM     18  C   UNL     1      43.687   2.740  11.593  0.00  0.00    +0.000 A 
ATOM     19  N   UNL     1      43.413   3.149  12.853  0.00  0.00    +0.000 NA
ATOM     20  C   UNL     1      43.686   4.455  13.098  0.00  0.00    +0.000 A 
ATOM     21  C   UNL     1      44.195   5.350  12.143  0.00  0.00    +0.000 A 
ATOM     22  N   UNL     1      44.476   4.921  10.891  0.00  0.00    +0.000 NA
BRANCH  17  24
ATOM     23  N   UNL     1      44.665   1.735   9.161  0.00  0.00    +0.000 N 
ATOM     24  C   UNL     1      44.478   3.084   9.269  0.00  0.00    +0.000 C 
ATOM     25  O   UNL     1      44.532   3.818   8.289  0.00  0.00    +0.000 OA
ATOM     26  H   UNL     1      44.834   1.330   8.251  0.00  0.00    +0.000 HD
ATOM     27  H   UNL     1      44.583   1.142   9.977  0.00  0.00    +0.000 HD
ENDBRANCH  17  24
ENDBRANCH  15  21
ENDBRANCH   1  15
TORSDOF 5
ENDMDL
