MODEL 1
REMARK VINA RESULT:    -8.405      0.000      0.000
REMARK INTER + INTRA:         -13.807
REMARK INTER:                 -12.336
REMARK INTRA:                  -1.472
REMARK UNBOUND:                -1.472
REMARK  Name = 
REMARK  9 active torsions:
REMARK  status: ('A' for Active; 'I' for Inactive)
REMARK    1  A    between atoms: C_1  and  O_2
REMARK    2  A    between atoms: O_2  and  C_3
REMARK    3  A    between atoms: C_10  and  C_11
REMARK    4  A    between atoms: N_13  and  C_14
REMARK    5  A    between atoms: C_14  and  C_15
REMARK    6  A    between atoms: C_18  and  C_19
REMARK    7  A    between atoms: C_19  and  O_20
REMARK    8  A    between atoms: O_20  and  C_21
REMARK    9  A    between atoms: C_21  and  C_22
REMARK                            x       y       z     vdW  Elec       q    Type
REMARK                         _______ _______ _______ _____ _____    ______ ____
ROOT
ATOM      1  C   UNL     1      47.200   8.125  13.409  0.00  0.00    +0.000 C 
ENDROOT
BRANCH   1   2
ATOM      2  C   UNL     1      46.289   7.314  12.515  0.00  0.00    +0.000 A 
ATOM      3  C   UNL     1      46.791   6.665  11.379  0.00  0.00    +0.000 A 
ATOM      4  C   UNL     1      45.977   5.810  10.623  0.00  0.00    +0.000 A 
ATOM      5  C   UNL     1      44.633   5.604  10.962  0.00  0.00    +0.000 A 
ATOM      6  C   UNL     1      44.110   6.320  12.049  0.00  0.00    +0.000 A 
ATOM      7  C   UNL     1      44.929   7.165  12.816  0.00  0.00    +0.000 A 
BRANCH   5   8
ATOM      8  C   UNL     1      43.771   4.649  10.167  0.00  0.00    +0.000 C 
BRANCH   8   9
ATOM      9  O   UNL     1      44.577   3.590   9.650  0.00  0.00    +0.000 OA
BRANCH   9  10
ATOM     10  C   UNL     1      44.648   3.610   8.222  0.00  0.00    +0.000 C 
BRANCH  10  11
ATOM     11  C   UNL     1      45.833   2.800   7.751  0.00  0.00    +0.000 A 
ATOM     12  C   UNL     1      46.854   3.385   6.996  0.00  0.00    +0.000 A 
ATOM     13  C   UNL     1      47.922   2.600   6.589  0.00  0.00    +0.000 A 
ATOM     14  N   UNL     1      48.055   1.293   6.895  0.00  0.00    +0.000 NA
ATOM     15  C   UNL     1      47.073   0.749   7.644  0.00  0.00    +0.000 A 
ATOM     16  C   UNL     1      45.965   1.451   8.097  0.00  0.00    +0.000 A 
ENDBRANCH  10  11
ENDBRANCH   9  10
ENDBRANCH   8   9
ENDBRANCH   5   8
ENDBRANCH   1   2
BRANCH   1  19
ATOM     17  C   UNL     1      48.823   6.882  14.796  0.00  0.00    +0.000 C 
ATOM     18  O   UNL     1      49.702   6.997  13.944  0.00  0.00    +0.000 OA
ATOM     19  N   UNL     1      47.574   7.413  14.607  0.00  0.00    +0.000 N 
ATOM     20  H   UNL     1      46.875   7.331  15.328  0.00  0.00    +0.000 HD
BRANCH  17  28
ATOM     21  C   UNL     1      47.289   4.202  16.296  0.00  0.00    +0.000 A 
ATOM     22  N   UNL     1      46.922   3.140  17.042  0.00  0.00    +0.000 NA
ATOM     23  C   UNL     1      47.624   2.883  18.148  0.00  0.00    +0.000 A 
ATOM     24  N   UNL     1      48.661   3.575  18.619  0.00  0.00    +0.000 NA
ATOM     25  C   UNL     1      48.999   4.612  17.836  0.00  0.00    +0.000 A 
ATOM     26  S   UNL     1      50.292   5.620  18.282  0.00  0.00    +0.000 S 
ATOM     27  C   UNL     1      50.096   6.574  16.892  0.00  0.00    +0.000 A 
ATOM     28  C   UNL     1      49.063   6.154  16.056  0.00  0.00    +0.000 A 
ATOM     29  C   UNL     1      48.390   4.994  16.645  0.00  0.00    +0.000 A 
BRANCH  21  31
ATOM     30  C   UNL     1      47.020   3.739  14.017  0.00  0.00    +0.000 C 
ATOM     31  O   UNL     1      46.568   4.469  15.154  0.00  0.00    +0.000 OA
ENDBRANCH  21  31
ENDBRANCH  17  28
ENDBRANCH   1  19
TORSDOF 8
ENDMDL
MODEL 2
REMARK VINA RESULT:    -7.779      1.552      2.007
REMARK INTER + INTRA:         -12.890
REMARK INTER:                 -11.686
REMARK INTRA:                  -1.203
REMARK UNBOUND:                -1.472
REMARK  Name = 
REMARK  9 active torsions:
REMARK  status: ('A' for Active; 'I' for Inactive)
REMARK    1  A    between atoms: C_1  and  O_2
REMARK    2  A    between atoms: O_2  and  C_3
REMARK    3  A    between atoms: C_10  and  C_11
REMARK    4  A    between atoms: N_13  and  C_14
REMARK    5  A    between atoms: C_14  and  C_15
REMARK    6  A    between atoms: C_18  and  C_19
REMARK    7  A    between atoms: C_19  and  O_20
REMARK    8  A    between atoms: O_20  and  C_21
REMARK    9  A    between atoms: C_21  and  C_22
REMARK                            x       y       z     vdW  Elec       q    Type
REMARK                         _______ _______ _______ _____ _____    ______ ____
ROOT
ATOM      1  C   UNL     1      48.155   6.801  13.497  0.00  0.00    +0.000 C 
ENDROOT
BRANCH   1   2
ATOM      2  C   UNL     1      46.959   6.162  12.827  0.00  0.00    +0.000 A 
ATOM      3  C   UNL     1      46.337   6.777  11.732  0.00  0.00    +0.000 A 
ATOM      4  C   UNL     1      45.312   6.127  11.031  0.00  0.00    +0.000 A 
ATOM      5  C   UNL     1      44.859   4.860  11.423  0.00  0.00    +0.000 A 
ATOM      6  C   UNL     1      45.424   4.283  12.570  0.00  0.00    +0.000 A 
ATOM      7  C   UNL     1      46.462   4.927  13.264  0.00  0.00    +0.000 A 
BRANCH   5   8
ATOM      8  C   UNL     1      43.781   4.145  10.639  0.00  0.00    +0.000 C 
BRANCH   8   9
ATOM      9  O   UNL     1      44.374   3.156   9.797  0.00  0.00    +0.000 OA
BRANCH   9  10
ATOM     10  C   UNL     1      44.694   3.669   8.500  0.00  0.00    +0.000 C 
BRANCH  10  11
ATOM     11  C   UNL     1      45.811   2.860   7.885  0.00  0.00    +0.000 A 
ATOM     12  C   UNL     1      45.996   1.513   8.214  0.00  0.00    +0.000 A 
ATOM     13  C   UNL     1      47.034   0.813   7.620  0.00  0.00    +0.000 A 
ATOM     14  N   UNL     1      47.880   1.345   6.715  0.00  0.00    +0.000 NA
ATOM     15  C   UNL     1      47.675   2.639   6.389  0.00  0.00    +0.000 A 
ATOM     16  C   UNL     1      46.665   3.423   6.930  0.00  0.00    +0.000 A 
ENDBRANCH  10  11
ENDBRANCH   9  10
ENDBRANCH   8   9
ENDBRANCH   5   8
ENDBRANCH   1   2
BRANCH   1  19
ATOM     17  C   UNL     1      48.926   7.462  15.749  0.00  0.00    +0.000 C 
ATOM     18  O   UNL     1      49.839   8.140  15.282  0.00  0.00    +0.000 OA
ATOM     19  N   UNL     1      48.057   6.782  14.936  0.00  0.00    +0.000 N 
ATOM     20  H   UNL     1      47.299   6.251  15.335  0.00  0.00    +0.000 HD
BRANCH  17  28
ATOM     21  C   UNL     1      48.743   4.770  17.871  0.00  0.00    +0.000 A 
ATOM     22  N   UNL     1      48.712   3.906  18.906  0.00  0.00    +0.000 NA
ATOM     23  C   UNL     1      48.588   4.411  20.135  0.00  0.00    +0.000 A 
ATOM     24  N   UNL     1      48.475   5.697  20.467  0.00  0.00    +0.000 NA
ATOM     25  C   UNL     1      48.526   6.519  19.406  0.00  0.00    +0.000 A 
ATOM     26  S   UNL     1      48.387   8.196  19.631  0.00  0.00    +0.000 S 
ATOM     27  C   UNL     1      48.554   8.486  17.967  0.00  0.00    +0.000 A 
ATOM     28  C   UNL     1      48.728   7.333  17.204  0.00  0.00    +0.000 A 
ATOM     29  C   UNL     1      48.680   6.154  18.072  0.00  0.00    +0.000 A 
BRANCH  21  31
ATOM     30  C   UNL     1      47.861   3.302  16.274  0.00  0.00    +0.000 C 
ATOM     31  O   UNL     1      48.872   4.252  16.602  0.00  0.00    +0.000 OA
ENDBRANCH  21  31
ENDBRANCH  17  28
ENDBRANCH   1  19
TORSDOF 8
ENDMDL
MODEL 3
REMARK VINA RESULT:    -7.631      1.923      2.518
REMARK INTER + INTRA:         -12.672
REMARK INTER:                 -11.642
REMARK INTRA:                  -1.029
REMARK UNBOUND:                -1.472
REMARK  Name = 
REMARK  9 active torsions:
REMARK  status: ('A' for Active; 'I' for Inactive)
REMARK    1  A    between atoms: C_1  and  O_2
REMARK    2  A    between atoms: O_2  and  C_3
REMARK    3  A    between atoms: C_10  and  C_11
REMARK    4  A    between atoms: N_13  and  C_14
REMARK    5  A    between atoms: C_14  and  C_15
REMARK    6  A    between atoms: C_18  and  C_19
REMARK    7  A    between atoms: C_19  and  O_20
REMARK    8  A    between atoms: O_20  and  C_21
REMARK    9  A    between atoms: C_21  and  C_22
REMARK                            x       y       z     vdW  Elec       q    Type
REMARK                         _______ _______ _______ _____ _____    ______ ____
ROOT
ATOM      1  C   UNL     1      48.496   7.493  14.725  0.00  0.00    +0.000 C 
ENDROOT
BRANCH   1   2
ATOM      2  C   UNL     1      47.681   6.758  13.684  0.00  0.00    +0.000 A 
ATOM      3  C   UNL     1      47.143   5.493  13.958  0.00  0.00    +0.000 A 
ATOM      4  C   UNL     1      46.282   4.867  13.045  0.00  0.00    +0.000 A 
ATOM      5  C   UNL     1      45.962   5.472  11.822  0.00  0.00    +0.000 A 
ATOM      6  C   UNL     1      46.568   6.699  11.514  0.00  0.00    +0.000 A 
ATOM      7  C   UNL     1      47.418   7.333  12.434  0.00  0.00    +0.000 A 
BRANCH   5   8
ATOM      8  C   UNL     1      45.000   4.811  10.859  0.00  0.00    +0.000 C 
BRANCH   8   9
ATOM      9  O   UNL     1      45.572   4.785   9.551  0.00  0.00    +0.000 OA
BRANCH   9  10
ATOM     10  C   UNL     1      44.907   3.860   8.687  0.00  0.00    +0.000 C 
BRANCH  10  11
ATOM     11  C   UNL     1      45.917   2.960   8.016  0.00  0.00    +0.000 A 
ATOM     12  C   UNL     1      45.962   1.590   8.292  0.00  0.00    +0.000 A 
ATOM     13  C   UNL     1      46.906   0.805   7.648  0.00  0.00    +0.000 A 
ATOM     14  N   UNL     1      47.787   1.278   6.742  0.00  0.00    +0.000 NA
ATOM     15  C   UNL     1      47.715   2.598   6.468  0.00  0.00    +0.000 A 
ATOM     16  C   UNL     1      46.808   3.465   7.061  0.00  0.00    +0.000 A 
ENDBRANCH  10  11
ENDBRANCH   9  10
ENDBRANCH   8   9
ENDBRANCH   5   8
ENDBRANCH   1   2
BRANCH   1  19
ATOM     17  C   UNL     1      49.392   6.286  16.685  0.00  0.00    +0.000 C 
ATOM     18  O   UNL     1      48.467   6.672  17.397  0.00  0.00    +0.000 OA
ATOM     19  N   UNL     1      49.470   6.643  15.364  0.00  0.00    +0.000 N 
ATOM     20  H   UNL     1      50.222   6.296  14.790  0.00  0.00    +0.000 HD
BRANCH  17  28
ATOM     21  C   UNL     1      49.818   2.887  16.906  0.00  0.00    +0.000 A 
ATOM     22  N   UNL     1      50.255   1.618  17.040  0.00  0.00    +0.000 NA
ATOM     23  C   UNL     1      51.470   1.431  17.562  0.00  0.00    +0.000 A 
ATOM     24  N   UNL     1      52.315   2.369  17.987  0.00  0.00    +0.000 NA
ATOM     25  C   UNL     1      51.842   3.615  17.820  0.00  0.00    +0.000 A 
ATOM     26  S   UNL     1      52.775   4.945  18.315  0.00  0.00    +0.000 S 
ATOM     27  C   UNL     1      51.590   6.040  17.788  0.00  0.00    +0.000 A 
ATOM     28  C   UNL     1      50.471   5.435  17.218  0.00  0.00    +0.000 A 
ATOM     29  C   UNL     1      50.617   3.978  17.269  0.00  0.00    +0.000 A 
BRANCH  21  31
ATOM     30  C   UNL     1      47.527   3.093  17.342  0.00  0.00    +0.000 C 
ATOM     31  O   UNL     1      48.567   3.085  16.367  0.00  0.00    +0.000 OA
ENDBRANCH  21  31
ENDBRANCH  17  28
ENDBRANCH   1  19
TORSDOF 8
ENDMDL
MODEL 4
REMARK VINA RESULT:    -7.528      2.072      3.353
REMARK INTER + INTRA:         -12.520
REMARK INTER:                 -11.375
REMARK INTRA:                  -1.145
REMARK UNBOUND:                -1.472
REMARK  Name = 
REMARK  9 active torsions:
REMARK  status: ('A' for Active; 'I' for Inactive)
REMARK    1  A    between atoms: C_1  and  O_2
REMARK    2  A    between atoms: O_2  and  C_3
REMARK    3  A    between atoms: C_10  and  C_11
REMARK    4  A    between atoms: N_13  and  C_14
REMARK    5  A    between atoms: C_14  and  C_15
REMARK    6  A    between atoms: C_18  and  C_19
REMARK    7  A    between atoms: C_19  and  O_20
REMARK    8  A    between atoms: O_20  and  C_21
REMARK    9  A    between atoms: C_21  and  C_22
REMARK                            x       y       z     vdW  Elec       q    Type
REMARK                         _______ _______ _______ _____ _____    ______ ____
ROOT
ATOM      1  C   UNL     1      47.384   3.315  14.836  0.00  0.00    +0.000 C 
ENDROOT
BRANCH   1   2
ATOM      2  C   UNL     1      46.686   3.959  13.658  0.00  0.00    +0.000 A 
ATOM      3  C   UNL     1      46.972   5.280  13.290  0.00  0.00    +0.000 A 
ATOM      4  C   UNL     1      46.425   5.835  12.125  0.00  0.00    +0.000 A 
ATOM      5  C   UNL     1      45.552   5.097  11.315  0.00  0.00    +0.000 A 
ATOM      6  C   UNL     1      45.200   3.804  11.730  0.00  0.00    +0.000 A 
ATOM      7  C   UNL     1      45.760   3.243  12.889  0.00  0.00    +0.000 A 
BRANCH   5   8
ATOM      8  C   UNL     1      44.996   5.687  10.037  0.00  0.00    +0.000 C 
BRANCH   8   9
ATOM      9  O   UNL     1      45.669   5.120   8.913  0.00  0.00    +0.000 OA
BRANCH   9  10
ATOM     10  C   UNL     1      44.976   3.989   8.379  0.00  0.00    +0.000 C 
BRANCH  10  11
ATOM     11  C   UNL     1      45.961   3.010   7.785  0.00  0.00    +0.000 A 
ATOM     12  C   UNL     1      46.881   3.411   6.812  0.00  0.00    +0.000 A 
ATOM     13  C   UNL     1      47.768   2.476   6.299  0.00  0.00    +0.000 A 
ATOM     14  N   UNL     1      47.816   1.188   6.697  0.00  0.00    +0.000 NA
ATOM     15  C   UNL     1      46.937   0.822   7.654  0.00  0.00    +0.000 A 
ATOM     16  C   UNL     1      46.012   1.683   8.227  0.00  0.00    +0.000 A 
ENDBRANCH  10  11
ENDBRANCH   9  10
ENDBRANCH   8   9
ENDBRANCH   5   8
ENDBRANCH   1   2
BRANCH   1  19
ATOM     17  C   UNL     1      47.364   4.141  17.164  0.00  0.00    +0.000 C 
ATOM     18  O   UNL     1      46.696   3.180  17.542  0.00  0.00    +0.000 OA
ATOM     19  N   UNL     1      47.743   4.271  15.854  0.00  0.00    +0.000 N 
ATOM     20  H   UNL     1      48.313   5.052  15.567  0.00  0.00    +0.000 HD
BRANCH  17  28
ATOM     21  C   UNL     1      50.397   5.556  17.928  0.00  0.00    +0.000 A 
ATOM     22  N   UNL     1      51.430   6.315  18.345  0.00  0.00    +0.000 NA
ATOM     23  C   UNL     1      51.174   7.288  19.222  0.00  0.00    +0.000 A 
ATOM     24  N   UNL     1      49.993   7.597  19.756  0.00  0.00    +0.000 NA
ATOM     25  C   UNL     1      48.993   6.825  19.301  0.00  0.00    +0.000 A 
ATOM     26  S   UNL     1      47.414   7.062  19.878  0.00  0.00    +0.000 S 
ATOM     27  C   UNL     1      46.810   5.821  18.890  0.00  0.00    +0.000 A 
ATOM     28  C   UNL     1      47.776   5.206  18.096  0.00  0.00    +0.000 A 
ATOM     29  C   UNL     1      49.089   5.794  18.371  0.00  0.00    +0.000 A 
BRANCH  21  31
ATOM     30  C   UNL     1      51.222   3.387  17.619  0.00  0.00    +0.000 C 
ATOM     31  O   UNL     1      50.657   4.552  17.023  0.00  0.00    +0.000 OA
ENDBRANCH  21  31
ENDBRANCH  17  28
ENDBRANCH   1  19
TORSDOF 8
ENDMDL
MODEL 5
REMARK VINA RESULT:    -7.458      1.945      3.685
REMARK INTER + INTRA:         -12.418
REMARK INTER:                 -10.993
REMARK INTRA:                  -1.424
REMARK UNBOUND:                -1.472
REMARK  Name = 
REMARK  9 active torsions:
REMARK  status: ('A' for Active; 'I' for Inactive)
REMARK    1  A    between atoms: C_1  and  O_2
REMARK    2  A    between atoms: O_2  and  C_3
REMARK    3  A    between atoms: C_10  and  C_11
REMARK    4  A    between atoms: N_13  and  C_14
REMARK    5  A    between atoms: C_14  and  C_15
REMARK    6  A    between atoms: C_18  and  C_19
REMARK    7  A    between atoms: C_19  and  O_20
REMARK    8  A    between atoms: O_20  and  C_21
REMARK    9  A    between atoms: C_21  and  C_22
REMARK                            x       y       z     vdW  Elec       q    Type
REMARK                         _______ _______ _______ _____ _____    ______ ____
ROOT
ATOM      1  C   UNL     1      47.109   4.270  14.960  0.00  0.00    +0.000 C 
ENDROOT
BRANCH   1   2
ATOM      2  C   UNL     1      46.332   4.363  13.666  0.00  0.00    +0.000 A 
ATOM      3  C   UNL     1      46.000   3.207  12.945  0.00  0.00    +0.000 A 
ATOM      4  C   UNL     1      45.171   3.279  11.816  0.00  0.00    +0.000 A 
ATOM      5  C   UNL     1      44.678   4.509  11.360  0.00  0.00    +0.000 A 
ATOM      6  C   UNL     1      45.080   5.673  12.032  0.00  0.00    +0.000 A 
ATOM      7  C   UNL     1      45.898   5.600  13.171  0.00  0.00    +0.000 A 
BRANCH   5   8
ATOM      8  C   UNL     1      43.751   4.577  10.166  0.00  0.00    +0.000 C 
BRANCH   8   9
ATOM      9  O   UNL     1      44.202   3.675   9.155  0.00  0.00    +0.000 OA
BRANCH   9  10
ATOM     10  C   UNL     1      45.228   4.246   8.338  0.00  0.00    +0.000 C 
BRANCH  10  11
ATOM     11  C   UNL     1      46.074   3.153   7.729  0.00  0.00    +0.000 A 
ATOM     12  C   UNL     1      46.093   1.865   8.275  0.00  0.00    +0.000 A 
ATOM     13  C   UNL     1      46.884   0.895   7.678  0.00  0.00    +0.000 A 
ATOM     14  N   UNL     1      47.632   1.107   6.575  0.00  0.00    +0.000 NA
ATOM     15  C   UNL     1      47.584   2.348   6.047  0.00  0.00    +0.000 A 
ATOM     16  C   UNL     1      46.826   3.385   6.572  0.00  0.00    +0.000 A 
ENDBRANCH  10  11
ENDBRANCH   9  10
ENDBRANCH   8   9
ENDBRANCH   5   8
ENDBRANCH   1   2
BRANCH   1  19
ATOM     17  C   UNL     1      48.598   5.730  16.284  0.00  0.00    +0.000 C 
ATOM     18  O   UNL     1      49.270   4.772  16.661  0.00  0.00    +0.000 OA
ATOM     19  N   UNL     1      47.527   5.562  15.445  0.00  0.00    +0.000 N 
ATOM     20  H   UNL     1      47.004   6.362  15.126  0.00  0.00    +0.000 HD
BRANCH  17  28
ATOM     21  C   UNL     1      48.719   8.754  14.663  0.00  0.00    +0.000 A 
ATOM     22  N   UNL     1      48.758  10.048  14.287  0.00  0.00    +0.000 NA
ATOM     23  C   UNL     1      49.022  10.961  15.225  0.00  0.00    +0.000 A 
ATOM     24  N   UNL     1      49.270  10.738  16.515  0.00  0.00    +0.000 NA
ATOM     25  C   UNL     1      49.205   9.437  16.845  0.00  0.00    +0.000 A 
ATOM     26  S   UNL     1      49.505   8.956  18.445  0.00  0.00    +0.000 S 
ATOM     27  C   UNL     1      49.231   7.326  18.063  0.00  0.00    +0.000 A 
ATOM     28  C   UNL     1      48.899   7.104  16.727  0.00  0.00    +0.000 A 
ATOM     29  C   UNL     1      48.915   8.373  15.996  0.00  0.00    +0.000 A 
BRANCH  21  31
ATOM     30  C   UNL     1      49.586   7.446  12.925  0.00  0.00    +0.000 C 
ATOM     31  O   UNL     1      48.446   7.810  13.699  0.00  0.00    +0.000 OA
ENDBRANCH  21  31
ENDBRANCH  17  28
ENDBRANCH   1  19
TORSDOF 8
ENDMDL
MODEL 6
REMARK VINA RESULT:    -7.322      2.524      3.425
REMARK INTER + INTRA:         -12.218
REMARK INTER:                 -11.103
REMARK INTRA:                  -1.114
REMARK UNBOUND:                -1.472
REMARK  Name = 
REMARK  9 active torsions:
REMARK  status: ('A' for Active; 'I' for Inactive)
REMARK    1  A    between atoms: C_1  and  O_2
REMARK    2  A    between atoms: O_2  and  C_3
REMARK    3  A    between atoms: C_10  and  C_11
REMARK    4  A    between atoms: N_13  and  C_14
REMARK    5  A    between atoms: C_14  and  C_15
REMARK    6  A    between atoms: C_18  and  C_19
REMARK    7  A    between atoms: C_19  and  O_20
REMARK    8  A    between atoms: O_20  and  C_21
REMARK    9  A    between atoms: C_21  and  C_22
REMARK                            x       y       z     vdW  Elec       q    Type
REMARK                         _______ _______ _______ _____ _____    ______ ____
ROOT
ATOM      1  C   UNL     1      47.186   4.402  14.971  0.00  0.00    +0.000 C 
ENDROOT
BRANCH   1   2
ATOM      2  C   UNL     1      46.387   4.446  13.687  0.00  0.00    +0.000 A 
ATOM      3  C   UNL     1      46.044   3.265  13.015  0.00  0.00    +0.000 A 
ATOM      4  C   UNL     1      45.196   3.295  11.899  0.00  0.00    +0.000 A 
ATOM      5  C   UNL     1      44.694   4.506  11.406  0.00  0.00    +0.000 A 
ATOM      6  C   UNL     1      45.106   5.694  12.028  0.00  0.00    +0.000 A 
ATOM      7  C   UNL     1      45.943   5.664  13.155  0.00  0.00    +0.000 A 
BRANCH   5   8
ATOM      8  C   UNL     1      43.747   4.529  10.226  0.00  0.00    +0.000 C 
BRANCH   8   9
ATOM      9  O   UNL     1      44.205   3.621   9.224  0.00  0.00    +0.000 OA
BRANCH   9  10
ATOM     10  C   UNL     1      45.228   4.190   8.403  0.00  0.00    +0.000 C 
BRANCH  10  11
ATOM     11  C   UNL     1      46.046   3.095   7.762  0.00  0.00    +0.000 A 
ATOM     12  C   UNL     1      46.818   3.342   6.622  0.00  0.00    +0.000 A 
ATOM     13  C   UNL     1      47.555   2.304   6.072  0.00  0.00    +0.000 A 
ATOM     14  N   UNL     1      47.594   1.056   6.582  0.00  0.00    +0.000 NA
ATOM     15  C   UNL     1      46.863   0.840   7.696  0.00  0.00    +0.000 A 
ATOM     16  C   UNL     1      46.093   1.812   8.319  0.00  0.00    +0.000 A 
ENDBRANCH  10  11
ENDBRANCH   9  10
ENDBRANCH   8   9
ENDBRANCH   5   8
ENDBRANCH   1   2
BRANCH   1  19
ATOM     17  C   UNL     1      48.676   5.922  16.225  0.00  0.00    +0.000 C 
ATOM     18  O   UNL     1      49.372   4.985  16.613  0.00  0.00    +0.000 OA
ATOM     19  N   UNL     1      47.592   5.714  15.413  0.00  0.00    +0.000 N 
ATOM     20  H   UNL     1      47.049   6.496  15.083  0.00  0.00    +0.000 HD
BRANCH  17  28
ATOM     21  C   UNL     1      47.786   7.822  18.942  0.00  0.00    +0.000 A 
ATOM     22  N   UNL     1      47.645   8.738  19.921  0.00  0.00    +0.000 NA
ATOM     23  C   UNL     1      48.260   9.913  19.768  0.00  0.00    +0.000 A 
ATOM     24  N   UNL     1      49.002  10.302  18.733  0.00  0.00    +0.000 NA
ATOM     25  C   UNL     1      49.126   9.353  17.791  0.00  0.00    +0.000 A 
ATOM     26  S   UNL     1      50.028   9.670  16.387  0.00  0.00    +0.000 S 
ATOM     27  C   UNL     1      49.735   8.111  15.783  0.00  0.00    +0.000 A 
ATOM     28  C   UNL     1      48.962   7.312  16.624  0.00  0.00    +0.000 A 
ATOM     29  C   UNL     1      48.576   8.075  17.813  0.00  0.00    +0.000 A 
BRANCH  21  31
ATOM     30  C   UNL     1      47.909   5.673  19.862  0.00  0.00    +0.000 C 
ATOM     31  O   UNL     1      47.155   6.609  19.097  0.00  0.00    +0.000 OA
ENDBRANCH  21  31
ENDBRANCH  17  28
ENDBRANCH   1  19
TORSDOF 8
ENDMDL
MODEL 7
REMARK VINA RESULT:    -7.126      2.555      3.574
REMARK INTER + INTRA:         -11.930
REMARK INTER:                 -10.771
REMARK INTRA:                  -1.159
REMARK UNBOUND:                -1.472
REMARK  Name = 
REMARK  9 active torsions:
REMARK  status: ('A' for Active; 'I' for Inactive)
REMARK    1  A    between atoms: C_1  and  O_2
REMARK    2  A    between atoms: O_2  and  C_3
REMARK    3  A    between atoms: C_10  and  C_11
REMARK    4  A    between atoms: N_13  and  C_14
REMARK    5  A    between atoms: C_14  and  C_15
REMARK    6  A    between atoms: C_18  and  C_19
REMARK    7  A    between atoms: C_19  and  O_20
REMARK    8  A    between atoms: O_20  and  C_21
REMARK    9  A    between atoms: C_21  and  C_22
REMARK                            x       y       z     vdW  Elec       q    Type
REMARK                         _______ _______ _______ _____ _____    ______ ____
ROOT
ATOM      1  C   UNL     1      48.678   6.794  14.069  0.00  0.00    +0.000 C 
ENDROOT
BRANCH   1   2
ATOM      2  C   UNL     1      47.614   6.103  13.246  0.00  0.00    +0.000 A 
ATOM      3  C   UNL     1      47.008   4.924  13.702  0.00  0.00    +0.000 A 
ATOM      4  C   UNL     1      45.933   4.354  13.005  0.00  0.00    +0.000 A 
ATOM      5  C   UNL     1      45.457   4.927  11.818  0.00  0.00    +0.000 A 
ATOM      6  C   UNL     1      46.119   6.057  11.318  0.00  0.00    +0.000 A 
ATOM      7  C   UNL     1      47.185   6.638  12.024  0.00  0.00    +0.000 A 
BRANCH   5   8
ATOM      8  C   UNL     1      44.271   4.330  11.092  0.00  0.00    +0.000 C 
BRANCH   8   9
ATOM      9  O   UNL     1      44.695   3.204  10.322  0.00  0.00    +0.000 OA
BRANCH   9  10
ATOM     10  C   UNL     1      44.622   3.450   8.916  0.00  0.00    +0.000 C 
BRANCH  10  11
ATOM     11  C   UNL     1      45.744   2.732   8.205  0.00  0.00    +0.000 A 
ATOM     12  C   UNL     1      45.889   1.344   8.298  0.00  0.00    +0.000 A 
ATOM     13  C   UNL     1      46.934   0.731   7.624  0.00  0.00    +0.000 A 
ATOM     14  N   UNL     1      47.824   1.391   6.856  0.00  0.00    +0.000 NA
ATOM     15  C   UNL     1      47.658   2.727   6.756  0.00  0.00    +0.000 A 
ATOM     16  C   UNL     1      46.645   3.431   7.393  0.00  0.00    +0.000 A 
ENDBRANCH  10  11
ENDBRANCH   9  10
ENDBRANCH   8   9
ENDBRANCH   5   8
ENDBRANCH   1   2
BRANCH   1  19
ATOM     17  C   UNL     1      48.967   6.341  16.481  0.00  0.00    +0.000 C 
ATOM     18  O   UNL     1      49.953   5.636  16.272  0.00  0.00    +0.000 OA
ATOM     19  N   UNL     1      48.294   6.946  15.451  0.00  0.00    +0.000 N 
ATOM     20  H   UNL     1      47.504   7.541  15.644  0.00  0.00    +0.000 HD
BRANCH  17  28
ATOM     21  C   UNL     1      48.764   9.103  18.509  0.00  0.00    +0.000 A 
ATOM     22  N   UNL     1      48.502  10.030  19.453  0.00  0.00    +0.000 NA
ATOM     23  C   UNL     1      47.874   9.630  20.561  0.00  0.00    +0.000 A 
ATOM     24  N   UNL     1      47.477   8.393  20.856  0.00  0.00    +0.000 NA
ATOM     25  C   UNL     1      47.746   7.509  19.882  0.00  0.00    +0.000 A 
ATOM     26  S   UNL     1      47.325   5.876  20.084  0.00  0.00    +0.000 S 
ATOM     27  C   UNL     1      47.929   5.476  18.549  0.00  0.00    +0.000 A 
ATOM     28  C   UNL     1      48.451   6.559  17.844  0.00  0.00    +0.000 A 
ATOM     29  C   UNL     1      48.365   7.770  18.663  0.00  0.00    +0.000 A 
BRANCH  21  31
ATOM     30  C   UNL     1      48.618  10.365  16.542  0.00  0.00    +0.000 C 
ATOM     31  O   UNL     1      49.411   9.512  17.365  0.00  0.00    +0.000 OA
ENDBRANCH  21  31
ENDBRANCH  17  28
ENDBRANCH   1  19
TORSDOF 8
ENDMDL
MODEL 8
REMARK VINA RESULT:    -6.466      3.603      5.728
REMARK INTER + INTRA:         -10.962
REMARK INTER:                  -9.616
REMARK INTRA:                  -1.346
REMARK UNBOUND:                -1.472
REMARK  Name = 
REMARK  9 active torsions:
REMARK  status: ('A' for Active; 'I' for Inactive)
REMARK    1  A    between atoms: C_1  and  O_2
REMARK    2  A    between atoms: O_2  and  C_3
REMARK    3  A    between atoms: C_10  and  C_11
REMARK    4  A    between atoms: N_13  and  C_14
REMARK    5  A    between atoms: C_14  and  C_15
REMARK    6  A    between atoms: C_18  and  C_19
REMARK    7  A    between atoms: C_19  and  O_20
REMARK    8  A    between atoms: O_20  and  C_21
REMARK    9  A    between atoms: C_21  and  C_22
REMARK                            x       y       z     vdW  Elec       q    Type
REMARK                         _______ _______ _______ _____ _____    ______ ____
ROOT
ATOM      1  C   UNL     1      48.358   3.405  17.956  0.00  0.00    +0.000 C 
ENDROOT
BRANCH   1   2
ATOM      2  C   UNL     1      48.077   4.297  16.767  0.00  0.00    +0.000 A 
ATOM      3  C   UNL     1      48.704   5.544  16.642  0.00  0.00    +0.000 A 
ATOM      4  C   UNL     1      48.545   6.315  15.482  0.00  0.00    +0.000 A 
ATOM      5  C   UNL     1      47.730   5.875  14.430  0.00  0.00    +0.000 A 
ATOM      6  C   UNL     1      47.036   4.668  14.592  0.00  0.00    +0.000 A 
ATOM      7  C   UNL     1      47.207   3.889  15.748  0.00  0.00    +0.000 A 
BRANCH   5   8
ATOM      8  C   UNL     1      47.594   6.692  13.163  0.00  0.00    +0.000 C 
BRANCH   8   9
ATOM      9  O   UNL     1      46.236   6.674  12.723  0.00  0.00    +0.000 OA
BRANCH   9  10
ATOM     10  C   UNL     1      46.113   6.266  11.358  0.00  0.00    +0.000 C 
BRANCH  10  11
ATOM     11  C   UNL     1      45.144   5.113  11.247  0.00  0.00    +0.000 A 
ATOM     12  C   UNL     1      45.050   4.358  10.074  0.00  0.00    +0.000 A 
ATOM     13  C   UNL     1      44.147   3.307  10.022  0.00  0.00    +0.000 A 
ATOM     14  N   UNL     1      43.355   2.944  11.052  0.00  0.00    +0.000 NA
ATOM     15  C   UNL     1      43.475   3.667  12.185  0.00  0.00    +0.000 A 
ATOM     16  C   UNL     1      44.347   4.737  12.334  0.00  0.00    +0.000 A 
ENDBRANCH  10  11
ENDBRANCH   9  10
ENDBRANCH   8   9
ENDBRANCH   5   8
ENDBRANCH   1   2
BRANCH   1  19
ATOM     17  C   UNL     1      50.448   2.285  17.264  0.00  0.00    +0.000 C 
ATOM     18  O   UNL     1      49.890   1.742  16.312  0.00  0.00    +0.000 OA
ATOM     19  N   UNL     1      49.763   3.118  18.109  0.00  0.00    +0.000 N 
ATOM     20  H   UNL     1      50.243   3.574  18.869  0.00  0.00    +0.000 HD
BRANCH  17  28
ATOM     21  C   UNL     1      53.105   4.387  17.815  0.00  0.00    +0.000 A 
ATOM     22  N   UNL     1      54.274   4.980  18.134  0.00  0.00    +0.000 NA
ATOM     23  C   UNL     1      55.316   4.194  18.410  0.00  0.00    +0.000 A 
ATOM     24  N   UNL     1      55.343   2.861  18.396  0.00  0.00    +0.000 NA
ATOM     25  C   UNL     1      54.155   2.316  18.088  0.00  0.00    +0.000 A 
ATOM     26  S   UNL     1      53.997   0.627  18.008  0.00  0.00    +0.000 S 
ATOM     27  C   UNL     1      52.349   0.747  17.621  0.00  0.00    +0.000 A 
ATOM     28  C   UNL     1      51.875   2.056  17.552  0.00  0.00    +0.000 A 
ATOM     29  C   UNL     1      52.973   2.992  17.804  0.00  0.00    +0.000 A 
BRANCH  21  31
ATOM     30  C   UNL     1      52.336   6.249  16.623  0.00  0.00    +0.000 C 
ATOM     31  O   UNL     1      52.028   5.194  17.531  0.00  0.00    +0.000 OA
ENDBRANCH  21  31
ENDBRANCH  17  28
ENDBRANCH   1  19
TORSDOF 8
ENDMDL
MODEL 9
REMARK VINA RESULT:    -5.976      3.693      8.077
REMARK INTER + INTRA:         -10.243
REMARK INTER:                  -8.639
REMARK INTRA:                  -1.604
REMARK UNBOUND:                -1.472
REMARK  Name = 
REMARK  9 active torsions:
REMARK  status: ('A' for Active; 'I' for Inactive)
REMARK    1  A    between atoms: C_1  and  O_2
REMARK    2  A    between atoms: O_2  and  C_3
REMARK    3  A    between atoms: C_10  and  C_11
REMARK    4  A    between atoms: N_13  and  C_14
REMARK    5  A    between atoms: C_14  and  C_15
REMARK    6  A    between atoms: C_18  and  C_19
REMARK    7  A    between atoms: C_19  and  O_20
REMARK    8  A    between atoms: O_20  and  C_21
REMARK    9  A    between atoms: C_21  and  C_22
REMARK                            x       y       z     vdW  Elec       q    Type
REMARK                         _______ _______ _______ _____ _____    ______ ____
ROOT
ATOM      1  C   UNL     1      47.936   9.092  14.117  0.00  0.00    +0.000 C 
ENDROOT
BRANCH   1   2
ATOM      2  C   UNL     1      48.280   8.691  15.534  0.00  0.00    +0.000 A 
ATOM      3  C   UNL     1      48.019   9.555  16.607  0.00  0.00    +0.000 A 
ATOM      4  C   UNL     1      48.217   9.136  17.930  0.00  0.00    +0.000 A 
ATOM      5  C   UNL     1      48.712   7.856  18.216  0.00  0.00    +0.000 A 
ATOM      6  C   UNL     1      49.052   7.024  17.139  0.00  0.00    +0.000 A 
ATOM      7  C   UNL     1      48.840   7.438  15.814  0.00  0.00    +0.000 A 
BRANCH   5   8
ATOM      8  C   UNL     1      48.885   7.395  19.646  0.00  0.00    +0.000 C 
BRANCH   8   9
ATOM      9  O   UNL     1      50.141   6.730  19.788  0.00  0.00    +0.000 OA
BRANCH   9  10
ATOM     10  C   UNL     1      49.997   5.403  20.301  0.00  0.00    +0.000 C 
BRANCH  10  11
ATOM     11  C   UNL     1      49.949   4.410  19.163  0.00  0.00    +0.000 A 
ATOM     12  C   UNL     1      48.746   3.813  18.775  0.00  0.00    +0.000 A 
ATOM     13  C   UNL     1      48.753   2.911  17.722  0.00  0.00    +0.000 A 
ATOM     14  N   UNL     1      49.857   2.580  17.022  0.00  0.00    +0.000 NA
ATOM     15  C   UNL     1      51.006   3.182  17.393  0.00  0.00    +0.000 A 
ATOM     16  C   UNL     1      51.101   4.097  18.434  0.00  0.00    +0.000 A 
ENDBRANCH  10  11
ENDBRANCH   9  10
ENDBRANCH   8   9
ENDBRANCH   5   8
ENDBRANCH   1   2
BRANCH   1  19
ATOM     17  C   UNL     1      46.928   7.333  12.705  0.00  0.00    +0.000 C 
ATOM     18  O   UNL     1      48.031   6.965  12.305  0.00  0.00    +0.000 OA
ATOM     19  N   UNL     1      46.803   8.365  13.598  0.00  0.00    +0.000 N 
ATOM     20  H   UNL     1      45.893   8.636  13.935  0.00  0.00    +0.000 HD
BRANCH  17  28
ATOM     21  C   UNL     1      45.719   4.125  12.871  0.00  0.00    +0.000 A 
ATOM     22  N   UNL     1      44.998   2.985  12.871  0.00  0.00    +0.000 NA
ATOM     23  C   UNL     1      43.779   3.020  12.327  0.00  0.00    +0.000 A 
ATOM     24  N   UNL     1      43.183   4.069  11.761  0.00  0.00    +0.000 NA
ATOM     25  C   UNL     1      43.932   5.182  11.798  0.00  0.00    +0.000 A 
ATOM     26  S   UNL     1      43.343   6.620  11.112  0.00  0.00    +0.000 S 
ATOM     27  C   UNL     1      44.746   7.467  11.553  0.00  0.00    +0.000 A 
ATOM     28  C   UNL     1      45.685   6.695  12.234  0.00  0.00    +0.000 A 
ATOM     29  C   UNL     1      45.202   5.318  12.351  0.00  0.00    +0.000 A 
BRANCH  21  31
ATOM     30  C   UNL     1      46.977   4.363  14.832  0.00  0.00    +0.000 C 
ATOM     31  O   UNL     1      46.976   4.093  13.432  0.00  0.00    +0.000 OA
ENDBRANCH  21  31
ENDBRANCH  17  28
ENDBRANCH   1  19
TORSDOF 8
ENDMDL
