MODEL 1
REMARK VINA RESULT:    -8.394      0.000      0.000
REMARK INTER + INTRA:         -12.882
REMARK INTER:                 -11.829
REMARK INTRA:                  -1.053
REMARK UNBOUND:                -1.053
REMARK  Name = 
REMARK  8 active torsions:
REMARK  status: ('A' for Active; 'I' for Inactive)
REMARK    1  A    between atoms: C_1  and  C_2
REMARK    2  A    between atoms: C_2  and  N_3
REMARK    3  A    between atoms: C_2  and  C_25
REMARK    4  A    between atoms: N_3  and  C_4
REMARK    5  A    between atoms: C_4  and  C_5
REMARK    6  A    between atoms: C_8  and  C_9
REMARK    7  A    between atoms: C_9  and  N_10
REMARK    8  A    between atoms: C_11  and  C_13
REMARK                            x       y       z     vdW  Elec       q    Type
REMARK                         _______ _______ _______ _____ _____    ______ ____
ROOT
ATOM      1  C   UNL     1      44.638   5.621  11.006  0.00  0.00    +0.000 A 
ATOM      2  C   UNL     1      45.923   5.896  10.544  0.00  0.00    +0.000 A 
ATOM      3  C   UNL     1      46.739   6.748  11.286  0.00  0.00    +0.000 A 
ATOM      4  C   UNL     1      46.262   7.302  12.476  0.00  0.00    +0.000 A 
ATOM      5  C   UNL     1      44.975   6.958  12.866  0.00  0.00    +0.000 A 
ATOM      6  N   UNL     1      44.153   6.157  12.154  0.00  0.00    +0.000 NA
ENDROOT
BRANCH   1   7
ATOM      7  C   UNL     1      43.681   4.765  10.196  0.00  0.00    +0.000 C 
BRANCH   7   8
ATOM      8  N   UNL     1      44.175   4.408   8.862  0.00  0.00    +0.000 NA
ATOM      9  H   UNL     1      43.488   4.670   8.158  0.00  0.00    +0.000 HD
BRANCH   8  11
ATOM     10  C   UNL     1      44.544   2.233  10.067  0.00  0.00    +0.000 C 
ATOM     11  C   UNL     1      44.424   2.952   8.716  0.00  0.00    +0.000 C 
BRANCH  11  12
ATOM     12  C   UNL     1      45.671   2.683   7.861  0.00  0.00    +0.000 A 
ATOM     13  N   UNL     1      46.295   1.495   8.032  0.00  0.00    +0.000 NA
ATOM     14  C   UNL     1      47.361   1.259   7.240  0.00  0.00    +0.000 A 
ATOM     15  C   UNL     1      47.817   2.142   6.291  0.00  0.00    +0.000 A 
ATOM     16  C   UNL     1      47.112   3.315   6.186  0.00  0.00    +0.000 A 
ATOM     17  N   UNL     1      46.047   3.608   6.951  0.00  0.00    +0.000 NA
ENDBRANCH  11  12
ENDBRANCH   8  11
ENDBRANCH   7   8
ENDBRANCH   1   7
BRANCH   4  18
ATOM     18  C   UNL     1      47.082   8.241  13.314  0.00  0.00    +0.000 C 
BRANCH  18  19
ATOM     19  N   UNL     1      47.498   7.667  14.570  0.00  0.00    +0.000 N 
ATOM     20  C   UNL     1      48.610   6.864  14.660  0.00  0.00    +0.000 C 
ATOM     21  O   UNL     1      49.345   6.632  13.707  0.00  0.00    +0.000 OA
ATOM     22  H   UNL     1      46.774   7.552  15.273  0.00  0.00    +0.000 HD
BRANCH  20  23
ATOM     23  C   UNL     1      48.907   6.335  15.995  0.00  0.00    +0.000 A 
ATOM     24  C   UNL     1      49.827   6.988  16.804  0.00  0.00    +0.000 A 
ATOM     25  S   UNL     1      50.039   6.246  18.325  0.00  0.00    +0.000 S 
ATOM     26  C   UNL     1      48.941   5.006  17.934  0.00  0.00    +0.000 A 
ATOM     27  N   UNL     1      48.681   3.999  18.811  0.00  0.00    +0.000 NA
ATOM     28  C   UNL     1      47.854   3.110  18.370  0.00  0.00    +0.000 A 
ATOM     29  N   UNL     1      47.256   3.141  17.136  0.00  0.00    +0.000 N 
ATOM     30  C   UNL     1      47.452   4.164  16.237  0.00  0.00    +0.000 A 
ATOM     31  O   UNL     1      46.838   4.208  15.175  0.00  0.00    +0.000 OA
ATOM     32  C   UNL     1      48.398   5.170  16.674  0.00  0.00    +0.000 A 
ATOM     33  H   UNL     1      46.602   2.421  16.862  0.00  0.00    +0.000 HD
ENDBRANCH  20  23
ENDBRANCH  18  19
ENDBRANCH   4  18
TORSDOF 7
ENDMDL
MODEL 2
REMARK VINA RESULT:    -7.699      3.003      3.867
REMARK INTER + INTRA:         -11.903
REMARK INTER:                 -10.880
REMARK INTRA:                  -1.023
REMARK UNBOUND:                -1.053
REMARK  Name = 
REMARK  8 active torsions:
REMARK  status: ('A' for Active; 'I' for Inactive)
REMARK    1  A    between atoms: C_1  and  C_2
REMARK    2  A    between atoms: C_2  and  N_3
REMARK    3  A    between atoms: C_2  and  C_25
REMARK    4  A    between atoms: N_3  and  C_4
REMARK    5  A    between atoms: C_4  and  C_5
REMARK    6  A    between atoms: C_8  and  C_9
REMARK    7  A    between atoms: C_9  and  N_10
REMARK    8  A    between atoms: C_11  and  C_13
REMARK                            x       y       z     vdW  Elec       q    Type
REMARK                         _______ _______ _______ _____ _____    ______ ____
ROOT
ATOM      1  C   UNL     1      46.605   4.781  13.546  0.00  0.00    +0.000 A 
ATOM      2  C   UNL     1      47.335   5.924  13.226  0.00  0.00    +0.000 A 
ATOM      3  C   UNL     1      48.165   6.489  14.193  0.00  0.00    +0.000 A 
ATOM      4  C   UNL     1      48.258   5.900  15.456  0.00  0.00    +0.000 A 
ATOM      5  C   UNL     1      47.507   4.753  15.679  0.00  0.00    +0.000 A 
ATOM      6  N   UNL     1      46.675   4.201  14.770  0.00  0.00    +0.000 NA
ENDROOT
BRANCH   1   7
ATOM      7  C   UNL     1      45.627   4.174  12.558  0.00  0.00    +0.000 C 
BRANCH   7   8
ATOM      8  N   UNL     1      45.325   5.030  11.406  0.00  0.00    +0.000 NA
ATOM      9  H   UNL     1      44.907   5.902  11.723  0.00  0.00    +0.000 HD
BRANCH   8  11
ATOM     10  C   UNL     1      43.389   3.448  11.157  0.00  0.00    +0.000 C 
ATOM     11  C   UNL     1      44.370   4.401  10.460  0.00  0.00    +0.000 C 
BRANCH  11  12
ATOM     12  C   UNL     1      45.106   3.667   9.330  0.00  0.00    +0.000 A 
ATOM     13  N   UNL     1      45.661   4.426   8.357  0.00  0.00    +0.000 NA
ATOM     14  C   UNL     1      46.342   3.767   7.398  0.00  0.00    +0.000 A 
ATOM     15  C   UNL     1      46.501   2.402   7.376  0.00  0.00    +0.000 A 
ATOM     16  C   UNL     1      45.910   1.720   8.412  0.00  0.00    +0.000 A 
ATOM     17  N   UNL     1      45.214   2.321   9.391  0.00  0.00    +0.000 NA
ENDBRANCH  11  12
ENDBRANCH   8  11
ENDBRANCH   7   8
ENDBRANCH   1   7
BRANCH   4  18
ATOM     18  C   UNL     1      49.118   6.467  16.548  0.00  0.00    +0.000 C 
BRANCH  18  19
ATOM     19  N   UNL     1      50.174   5.574  16.961  0.00  0.00    +0.000 N 
ATOM     20  C   UNL     1      50.458   5.365  18.290  0.00  0.00    +0.000 C 
ATOM     21  O   UNL     1      49.809   5.869  19.200  0.00  0.00    +0.000 OA
ATOM     22  H   UNL     1      50.916   5.415  16.288  0.00  0.00    +0.000 HD
BRANCH  20  23
ATOM     23  C   UNL     1      51.567   4.446  18.566  0.00  0.00    +0.000 A 
ATOM     24  C   UNL     1      52.645   4.876  19.328  0.00  0.00    +0.000 A 
ATOM     25  S   UNL     1      53.832   3.675  19.561  0.00  0.00    +0.000 S 
ATOM     26  C   UNL     1      52.966   2.557  18.616  0.00  0.00    +0.000 A 
ATOM     27  N   UNL     1      53.455   1.309  18.381  0.00  0.00    +0.000 NA
ATOM     28  C   UNL     1      52.710   0.578  17.621  0.00  0.00    +0.000 A 
ATOM     29  N   UNL     1      51.514   0.978  17.081  0.00  0.00    +0.000 N 
ATOM     30  C   UNL     1      50.957   2.212  17.329  0.00  0.00    +0.000 A 
ATOM     31  O   UNL     1      49.847   2.510  16.901  0.00  0.00    +0.000 OA
ATOM     32  C   UNL     1      51.774   3.080  18.152  0.00  0.00    +0.000 A 
ATOM     33  H   UNL     1      50.971   0.347  16.509  0.00  0.00    +0.000 HD
ENDBRANCH  20  23
ENDBRANCH  18  19
ENDBRANCH   4  18
TORSDOF 7
ENDMDL
MODEL 3
REMARK VINA RESULT:    -7.459      2.451      3.239
REMARK INTER + INTRA:         -11.564
REMARK INTER:                 -10.628
REMARK INTRA:                  -0.935
REMARK UNBOUND:                -1.053
REMARK  Name = 
REMARK  8 active torsions:
REMARK  status: ('A' for Active; 'I' for Inactive)
REMARK    1  A    between atoms: C_1  and  C_2
REMARK    2  A    between atoms: C_2  and  N_3
REMARK    3  A    between atoms: C_2  and  C_25
REMARK    4  A    between atoms: N_3  and  C_4
REMARK    5  A    between atoms: C_4  and  C_5
REMARK    6  A    between atoms: C_8  and  C_9
REMARK    7  A    between atoms: C_9  and  N_10
REMARK    8  A    between atoms: C_11  and  C_13
REMARK                            x       y       z     vdW  Elec       q    Type
REMARK                         _______ _______ _______ _____ _____    ______ ____
ROOT
ATOM      1  C   UNL     1      45.787   5.776  11.774  0.00  0.00    +0.000 A 
ATOM      2  C   UNL     1      46.640   6.791  11.347  0.00  0.00    +0.000 A 
ATOM      3  C   UNL     1      47.691   7.182  12.174  0.00  0.00    +0.000 A 
ATOM      4  C   UNL     1      47.876   6.551  13.406  0.00  0.00    +0.000 A 
ATOM      5  C   UNL     1      46.986   5.539  13.741  0.00  0.00    +0.000 A 
ATOM      6  N   UNL     1      45.944   5.157  12.971  0.00  0.00    +0.000 NA
ENDROOT
BRANCH   1   7
ATOM      7  C   UNL     1      44.581   5.367  10.949  0.00  0.00    +0.000 C 
BRANCH   7   8
ATOM      8  N   UNL     1      44.885   5.069   9.545  0.00  0.00    +0.000 NA
ATOM      9  H   UNL     1      44.404   5.732   8.940  0.00  0.00    +0.000 HD
BRANCH   8  11
ATOM     10  C   UNL     1      44.089   2.823  10.343  0.00  0.00    +0.000 C 
ATOM     11  C   UNL     1      44.449   3.708   9.143  0.00  0.00    +0.000 C 
BRANCH  11  12
ATOM     12  C   UNL     1      45.512   3.017   8.276  0.00  0.00    +0.000 A 
ATOM     13  N   UNL     1      46.178   3.783   7.383  0.00  0.00    +0.000 NA
ATOM     14  C   UNL     1      47.139   3.169   6.664  0.00  0.00    +0.000 A 
ATOM     15  C   UNL     1      47.467   1.841   6.807  0.00  0.00    +0.000 A 
ATOM     16  C   UNL     1      46.742   1.150   7.745  0.00  0.00    +0.000 A 
ATOM     17  N   UNL     1      45.770   1.707   8.486  0.00  0.00    +0.000 NA
ENDBRANCH  11  12
ENDBRANCH   8  11
ENDBRANCH   7   8
ENDBRANCH   1   7
BRANCH   4  18
ATOM     18  C   UNL     1      48.977   6.937  14.352  0.00  0.00    +0.000 C 
BRANCH  18  19
ATOM     19  N   UNL     1      48.530   7.078  15.716  0.00  0.00    +0.000 N 
ATOM     20  C   UNL     1      49.088   6.342  16.735  0.00  0.00    +0.000 C 
ATOM     21  O   UNL     1      50.026   5.571  16.566  0.00  0.00    +0.000 OA
ATOM     22  H   UNL     1      47.584   7.423  15.845  0.00  0.00    +0.000 HD
BRANCH  20  23
ATOM     23  C   UNL     1      48.526   6.575  18.069  0.00  0.00    +0.000 A 
ATOM     24  C   UNL     1      48.264   5.495  18.903  0.00  0.00    +0.000 A 
ATOM     25  S   UNL     1      47.628   5.950  20.419  0.00  0.00    +0.000 S 
ATOM     26  C   UNL     1      47.643   7.597  19.994  0.00  0.00    +0.000 A 
ATOM     27  N   UNL     1      47.186   8.547  20.853  0.00  0.00    +0.000 NA
ATOM     28  C   UNL     1      47.225   9.751  20.387  0.00  0.00    +0.000 A 
ATOM     29  N   UNL     1      47.689  10.093  19.143  0.00  0.00    +0.000 N 
ATOM     30  C   UNL     1      48.205   9.173  18.259  0.00  0.00    +0.000 A 
ATOM     31  O   UNL     1      48.690   9.519  17.186  0.00  0.00    +0.000 OA
ATOM     32  C   UNL     1      48.152   7.803  18.725  0.00  0.00    +0.000 A 
ATOM     33  H   UNL     1      47.710  11.059  18.849  0.00  0.00    +0.000 HD
ENDBRANCH  20  23
ENDBRANCH  18  19
ENDBRANCH   4  18
TORSDOF 7
ENDMDL
MODEL 4
REMARK VINA RESULT:    -7.346      2.913      8.449
REMARK INTER + INTRA:         -11.405
REMARK INTER:                 -10.189
REMARK INTRA:                  -1.215
REMARK UNBOUND:                -1.053
REMARK  Name = 
REMARK  8 active torsions:
REMARK  status: ('A' for Active; 'I' for Inactive)
REMARK    1  A    between atoms: C_1  and  C_2
REMARK    2  A    between atoms: C_2  and  N_3
REMARK    3  A    between atoms: C_2  and  C_25
REMARK    4  A    between atoms: N_3  and  C_4
REMARK    5  A    between atoms: C_4  and  C_5
REMARK    6  A    between atoms: C_8  and  C_9
REMARK    7  A    between atoms: C_9  and  N_10
REMARK    8  A    between atoms: C_11  and  C_13
REMARK                            x       y       z     vdW  Elec       q    Type
REMARK                         _______ _______ _______ _____ _____    ______ ____
ROOT
ATOM      1  C   UNL     1      50.333   7.303  15.202  0.00  0.00    +0.000 A 
ATOM      2  C   UNL     1      50.706   8.131  14.145  0.00  0.00    +0.000 A 
ATOM      3  C   UNL     1      49.838   8.279  13.064  0.00  0.00    +0.000 A 
ATOM      4  C   UNL     1      48.614   7.606  13.061  0.00  0.00    +0.000 A 
ATOM      5  C   UNL     1      48.320   6.816  14.165  0.00  0.00    +0.000 A 
ATOM      6  N   UNL     1      49.153   6.634  15.213  0.00  0.00    +0.000 NA
ENDROOT
BRANCH   1   7
ATOM      7  C   UNL     1      51.274   7.044  16.364  0.00  0.00    +0.000 C 
BRANCH   7   8
ATOM      8  N   UNL     1      51.589   5.628  16.580  0.00  0.00    +0.000 NA
ATOM      9  H   UNL     1      51.168   5.065  15.844  0.00  0.00    +0.000 HD
BRANCH   8  11
ATOM     10  C   UNL     1      52.051   4.159  18.566  0.00  0.00    +0.000 C 
ATOM     11  C   UNL     1      51.072   5.119  17.875  0.00  0.00    +0.000 C 
BRANCH  11  12
ATOM     12  C   UNL     1      49.703   4.445  17.702  0.00  0.00    +0.000 A 
ATOM     13  N   UNL     1      48.633   5.067  18.246  0.00  0.00    +0.000 NA
ATOM     14  C   UNL     1      47.434   4.483  18.044  0.00  0.00    +0.000 A 
ATOM     15  C   UNL     1      47.260   3.327  17.322  0.00  0.00    +0.000 A 
ATOM     16  C   UNL     1      48.405   2.776  16.801  0.00  0.00    +0.000 A 
ATOM     17  N   UNL     1      49.626   3.308  16.974  0.00  0.00    +0.000 NA
ENDBRANCH  11  12
ENDBRANCH   8  11
ENDBRANCH   7   8
ENDBRANCH   1   7
BRANCH   4  18
ATOM     18  C   UNL     1      47.642   7.707  11.921  0.00  0.00    +0.000 C 
BRANCH  18  19
ATOM     19  N   UNL     1      46.889   6.495  11.707  0.00  0.00    +0.000 N 
ATOM     20  C   UNL     1      45.515   6.504  11.653  0.00  0.00    +0.000 C 
ATOM     21  O   UNL     1      44.850   7.532  11.724  0.00  0.00    +0.000 OA
ATOM     22  H   UNL     1      47.346   5.630  11.974  0.00  0.00    +0.000 HD
BRANCH  20  23
ATOM     23  C   UNL     1      44.878   5.200  11.446  0.00  0.00    +0.000 A 
ATOM     24  C   UNL     1      44.133   4.628  12.470  0.00  0.00    +0.000 A 
ATOM     25  S   UNL     1      43.455   3.120  12.052  0.00  0.00    +0.000 S 
ATOM     26  C   UNL     1      44.169   3.163  10.509  0.00  0.00    +0.000 A 
ATOM     27  N   UNL     1      44.009   2.134   9.633  0.00  0.00    +0.000 NA
ATOM     28  C   UNL     1      44.634   2.286   8.513  0.00  0.00    +0.000 A 
ATOM     29  N   UNL     1      45.398   3.376   8.185  0.00  0.00    +0.000 N 
ATOM     30  C   UNL     1      45.550   4.461   9.019  0.00  0.00    +0.000 A 
ATOM     31  O   UNL     1      46.170   5.458   8.664  0.00  0.00    +0.000 OA
ATOM     32  C   UNL     1      44.892   4.323  10.302  0.00  0.00    +0.000 A 
ATOM     33  H   UNL     1      45.845   3.439   7.281  0.00  0.00    +0.000 HD
ENDBRANCH  20  23
ENDBRANCH  18  19
ENDBRANCH   4  18
TORSDOF 7
ENDMDL
MODEL 5
REMARK VINA RESULT:    -7.212      1.675      2.084
REMARK INTER + INTRA:         -11.216
REMARK INTER:                 -10.215
REMARK INTRA:                  -1.001
REMARK UNBOUND:                -1.053
REMARK  Name = 
REMARK  8 active torsions:
REMARK  status: ('A' for Active; 'I' for Inactive)
REMARK    1  A    between atoms: C_1  and  C_2
REMARK    2  A    between atoms: C_2  and  N_3
REMARK    3  A    between atoms: C_2  and  C_25
REMARK    4  A    between atoms: N_3  and  C_4
REMARK    5  A    between atoms: C_4  and  C_5
REMARK    6  A    between atoms: C_8  and  C_9
REMARK    7  A    between atoms: C_9  and  N_10
REMARK    8  A    between atoms: C_11  and  C_13
REMARK                            x       y       z     vdW  Elec       q    Type
REMARK                         _______ _______ _______ _____ _____    ______ ____
ROOT
ATOM      1  C   UNL     1      45.267   6.396  11.511  0.00  0.00    +0.000 A 
ATOM      2  C   UNL     1      46.382   5.760  12.054  0.00  0.00    +0.000 A 
ATOM      3  C   UNL     1      47.223   6.479  12.901  0.00  0.00    +0.000 A 
ATOM      4  C   UNL     1      46.933   7.813  13.197  0.00  0.00    +0.000 A 
ATOM      5  C   UNL     1      45.792   8.358  12.624  0.00  0.00    +0.000 A 
ATOM      6  N   UNL     1      44.974   7.693  11.779  0.00  0.00    +0.000 NA
ENDROOT
BRANCH   1   7
ATOM      7  C   UNL     1      44.364   5.684  10.520  0.00  0.00    +0.000 C 
BRANCH   7   8
ATOM      8  N   UNL     1      45.072   5.086   9.383  0.00  0.00    +0.000 NA
ATOM      9  H   UNL     1      44.940   5.661   8.553  0.00  0.00    +0.000 HD
BRANCH   8  11
ATOM     10  C   UNL     1      44.313   2.876  10.309  0.00  0.00    +0.000 C 
ATOM     11  C   UNL     1      44.582   3.723   9.058  0.00  0.00    +0.000 C 
BRANCH  11  12
ATOM     12  C   UNL     1      45.555   2.990   8.122  0.00  0.00    +0.000 A 
ATOM     13  N   UNL     1      46.044   3.684   7.070  0.00  0.00    +0.000 NA
ATOM     14  C   UNL     1      46.931   3.039   6.286  0.00  0.00    +0.000 A 
ATOM     15  C   UNL     1      47.355   1.751   6.514  0.00  0.00    +0.000 A 
ATOM     16  C   UNL     1      46.810   1.134   7.612  0.00  0.00    +0.000 A 
ATOM     17  N   UNL     1      45.917   1.724   8.425  0.00  0.00    +0.000 NA
ENDBRANCH  11  12
ENDBRANCH   8  11
ENDBRANCH   7   8
ENDBRANCH   1   7
BRANCH   4  18
ATOM     18  C   UNL     1      47.807   8.649  14.087  0.00  0.00    +0.000 C 
BRANCH  18  19
ATOM     19  N   UNL     1      47.865   8.164  15.445  0.00  0.00    +0.000 N 
ATOM     20  C   UNL     1      48.658   8.769  16.390  0.00  0.00    +0.000 C 
ATOM     21  O   UNL     1      49.316   9.779  16.164  0.00  0.00    +0.000 OA
ATOM     22  H   UNL     1      47.625   7.188  15.583  0.00  0.00    +0.000 HD
BRANCH  20  23
ATOM     23  C   UNL     1      48.633   8.162  17.725  0.00  0.00    +0.000 A 
ATOM     24  C   UNL     1      48.464   8.968  18.844  0.00  0.00    +0.000 A 
ATOM     25  S   UNL     1      48.444   8.096  20.309  0.00  0.00    +0.000 S 
ATOM     26  C   UNL     1      48.704   6.622  19.500  0.00  0.00    +0.000 A 
ATOM     27  N   UNL     1      48.822   5.455  20.190  0.00  0.00    +0.000 NA
ATOM     28  C   UNL     1      49.050   4.421  19.451  0.00  0.00    +0.000 A 
ATOM     29  N   UNL     1      49.162   4.445  18.085  0.00  0.00    +0.000 N 
ATOM     30  C   UNL     1      49.002   5.592  17.341  0.00  0.00    +0.000 A 
ATOM     31  O   UNL     1      49.023   5.568  16.115  0.00  0.00    +0.000 OA
ATOM     32  C   UNL     1      48.776   6.786  18.130  0.00  0.00    +0.000 A 
ATOM     33  H   UNL     1      49.322   3.593  17.566  0.00  0.00    +0.000 HD
ENDBRANCH  20  23
ENDBRANCH  18  19
ENDBRANCH   4  18
TORSDOF 7
ENDMDL
MODEL 6
REMARK VINA RESULT:    -7.209      3.213      8.128
REMARK INTER + INTRA:         -11.212
REMARK INTER:                  -9.768
REMARK INTRA:                  -1.444
REMARK UNBOUND:                -1.053
REMARK  Name = 
REMARK  8 active torsions:
REMARK  status: ('A' for Active; 'I' for Inactive)
REMARK    1  A    between atoms: C_1  and  C_2
REMARK    2  A    between atoms: C_2  and  N_3
REMARK    3  A    between atoms: C_2  and  C_25
REMARK    4  A    between atoms: N_3  and  C_4
REMARK    5  A    between atoms: C_4  and  C_5
REMARK    6  A    between atoms: C_8  and  C_9
REMARK    7  A    between atoms: C_9  and  N_10
REMARK    8  A    between atoms: C_11  and  C_13
REMARK                            x       y       z     vdW  Elec       q    Type
REMARK                         _______ _______ _______ _____ _____    ______ ____
ROOT
ATOM      1  C   UNL     1      48.673   7.861  16.239  0.00  0.00    +0.000 A 
ATOM      2  C   UNL     1      48.891   6.698  15.502  0.00  0.00    +0.000 A 
ATOM      3  C   UNL     1      48.764   6.744  14.115  0.00  0.00    +0.000 A 
ATOM      4  C   UNL     1      48.430   7.948  13.489  0.00  0.00    +0.000 A 
ATOM      5  C   UNL     1      48.248   9.058  14.303  0.00  0.00    +0.000 A 
ATOM      6  N   UNL     1      48.339   9.036  15.650  0.00  0.00    +0.000 NA
ENDROOT
BRANCH   1   7
ATOM      7  C   UNL     1      48.720   7.846  17.756  0.00  0.00    +0.000 C 
BRANCH   7   8
ATOM      8  N   UNL     1      47.488   7.368  18.392  0.00  0.00    +0.000 NA
ATOM      9  H   UNL     1      47.075   8.114  18.948  0.00  0.00    +0.000 HD
BRANCH   8  11
ATOM     10  C   UNL     1      48.846   6.483  20.313  0.00  0.00    +0.000 C 
ATOM     11  C   UNL     1      47.723   6.218  19.300  0.00  0.00    +0.000 C 
BRANCH  11  12
ATOM     12  C   UNL     1      48.018   4.935  18.510  0.00  0.00    +0.000 A 
ATOM     13  N   UNL     1      47.003   4.404  17.790  0.00  0.00    +0.000 NA
ATOM     14  C   UNL     1      47.293   3.304  17.067  0.00  0.00    +0.000 A 
ATOM     15  C   UNL     1      48.540   2.726  17.022  0.00  0.00    +0.000 A 
ATOM     16  C   UNL     1      49.505   3.344  17.778  0.00  0.00    +0.000 A 
ATOM     17  N   UNL     1      49.274   4.437  18.523  0.00  0.00    +0.000 NA
ENDBRANCH  11  12
ENDBRANCH   8  11
ENDBRANCH   7   8
ENDBRANCH   1   7
BRANCH   4  18
ATOM     18  C   UNL     1      48.259   8.062  12.002  0.00  0.00    +0.000 C 
BRANCH  18  19
ATOM     19  N   UNL     1      47.548   6.948  11.423  0.00  0.00    +0.000 N 
ATOM     20  C   UNL     1      46.175   6.920  11.375  0.00  0.00    +0.000 C 
ATOM     21  O   UNL     1      45.473   7.849  11.761  0.00  0.00    +0.000 OA
ATOM     22  H   UNL     1      48.040   6.061  11.409  0.00  0.00    +0.000 HD
BRANCH  20  23
ATOM     23  C   UNL     1      45.584   5.720  10.775  0.00  0.00    +0.000 A 
ATOM     24  C   UNL     1      45.723   5.493   9.412  0.00  0.00    +0.000 A 
ATOM     25  S   UNL     1      44.988   4.046   8.888  0.00  0.00    +0.000 S 
ATOM     26  C   UNL     1      44.424   3.700  10.455  0.00  0.00    +0.000 A 
ATOM     27  N   UNL     1      43.675   2.591  10.701  0.00  0.00    +0.000 NA
ATOM     28  C   UNL     1      43.288   2.471  11.928  0.00  0.00    +0.000 A 
ATOM     29  N   UNL     1      43.588   3.354  12.932  0.00  0.00    +0.000 N 
ATOM     30  C   UNL     1      44.381   4.463  12.741  0.00  0.00    +0.000 A 
ATOM     31  O   UNL     1      44.702   5.189  13.676  0.00  0.00    +0.000 OA
ATOM     32  C   UNL     1      44.814   4.657  11.372  0.00  0.00    +0.000 A 
ATOM     33  H   UNL     1      43.268   3.190  13.876  0.00  0.00    +0.000 HD
ENDBRANCH  20  23
ENDBRANCH  18  19
ENDBRANCH   4  18
TORSDOF 7
ENDMDL
MODEL 7
REMARK VINA RESULT:    -6.378      3.567      8.069
REMARK INTER + INTRA:         -10.040
REMARK INTER:                  -8.227
REMARK INTRA:                  -1.813
REMARK UNBOUND:                -1.053
REMARK  Name = 
REMARK  8 active torsions:
REMARK  status: ('A' for Active; 'I' for Inactive)
REMARK    1  A    between atoms: C_1  and  C_2
REMARK    2  A    between atoms: C_2  and  N_3
REMARK    3  A    between atoms: C_2  and  C_25
REMARK    4  A    between atoms: N_3  and  C_4
REMARK    5  A    between atoms: C_4  and  C_5
REMARK    6  A    between atoms: C_8  and  C_9
REMARK    7  A    between atoms: C_9  and  N_10
REMARK    8  A    between atoms: C_11  and  C_13
REMARK                            x       y       z     vdW  Elec       q    Type
REMARK                         _______ _______ _______ _____ _____    ______ ____
ROOT
ATOM      1  C   UNL     1      50.891   7.224  17.459  0.00  0.00    +0.000 A 
ATOM      2  C   UNL     1      51.136   7.221  16.088  0.00  0.00    +0.000 A 
ATOM      3  C   UNL     1      50.234   7.859  15.238  0.00  0.00    +0.000 A 
ATOM      4  C   UNL     1      49.111   8.494  15.772  0.00  0.00    +0.000 A 
ATOM      5  C   UNL     1      48.957   8.461  17.151  0.00  0.00    +0.000 A 
ATOM      6  N   UNL     1      49.800   7.828  17.995  0.00  0.00    +0.000 NA
ENDROOT
BRANCH   1   7
ATOM      7  C   UNL     1      51.797   6.477  18.419  0.00  0.00    +0.000 C 
BRANCH   7   8
ATOM      8  N   UNL     1      51.092   5.571  19.332  0.00  0.00    +0.000 NA
ATOM      9  H   UNL     1      51.607   5.492  20.207  0.00  0.00    +0.000 HD
BRANCH   8  11
ATOM     10  C   UNL     1      52.075   3.833  17.807  0.00  0.00    +0.000 C 
ATOM     11  C   UNL     1      50.946   4.201  18.780  0.00  0.00    +0.000 C 
BRANCH  11  12
ATOM     12  C   UNL     1      49.582   4.016  18.101  0.00  0.00    +0.000 A 
ATOM     13  N   UNL     1      49.500   3.095  17.114  0.00  0.00    +0.000 NA
ATOM     14  C   UNL     1      48.283   2.915  16.562  0.00  0.00    +0.000 A 
ATOM     15  C   UNL     1      47.158   3.597  16.956  0.00  0.00    +0.000 A 
ATOM     16  C   UNL     1      47.340   4.503  17.972  0.00  0.00    +0.000 A 
ATOM     17  N   UNL     1      48.528   4.730  18.556  0.00  0.00    +0.000 NA
ENDBRANCH  11  12
ENDBRANCH   8  11
ENDBRANCH   7   8
ENDBRANCH   1   7
BRANCH   4  18
ATOM     18  C   UNL     1      48.091   9.184  14.912  0.00  0.00    +0.000 C 
BRANCH  18  19
ATOM     19  N   UNL     1      47.145   8.275  14.311  0.00  0.00    +0.000 N 
ATOM     20  C   UNL     1      47.011   8.177  12.946  0.00  0.00    +0.000 C 
ATOM     21  O   UNL     1      47.714   8.801  12.159  0.00  0.00    +0.000 OA
ATOM     22  H   UNL     1      46.351   8.010  14.884  0.00  0.00    +0.000 HD
BRANCH  20  23
ATOM     23  C   UNL     1      46.002   7.224  12.473  0.00  0.00    +0.000 A 
ATOM     24  C   UNL     1      44.902   7.685  11.762  0.00  0.00    +0.000 A 
ATOM     25  S   UNL     1      43.839   6.442  11.279  0.00  0.00    +0.000 S 
ATOM     26  C   UNL     1      44.791   5.256  12.041  0.00  0.00    +0.000 A 
ATOM     27  N   UNL     1      44.419   3.947  12.033  0.00  0.00    +0.000 NA
ATOM     28  C   UNL     1      45.217   3.163  12.678  0.00  0.00    +0.000 A 
ATOM     29  N   UNL     1      46.359   3.566  13.322  0.00  0.00    +0.000 N 
ATOM     30  C   UNL     1      46.799   4.870  13.316  0.00  0.00    +0.000 A 
ATOM     31  O   UNL     1      47.868   5.186  13.829  0.00  0.00    +0.000 OA
ATOM     32  C   UNL     1      45.919   5.794  12.631  0.00  0.00    +0.000 A 
ATOM     33  H   UNL     1      46.949   2.895  13.792  0.00  0.00    +0.000 HD
ENDBRANCH  20  23
ENDBRANCH  18  19
ENDBRANCH   4  18
TORSDOF 7
ENDMDL
MODEL 8
REMARK VINA RESULT:    -6.200      3.474      8.685
REMARK INTER + INTRA:          -9.791
REMARK INTER:                  -8.925
REMARK INTRA:                  -0.865
REMARK UNBOUND:                -1.053
REMARK  Name = 
REMARK  8 active torsions:
REMARK  status: ('A' for Active; 'I' for Inactive)
REMARK    1  A    between atoms: C_1  and  C_2
REMARK    2  A    between atoms: C_2  and  N_3
REMARK    3  A    between atoms: C_2  and  C_25
REMARK    4  A    between atoms: N_3  and  C_4
REMARK    5  A    between atoms: C_4  and  C_5
REMARK    6  A    between atoms: C_8  and  C_9
REMARK    7  A    between atoms: C_9  and  N_10
REMARK    8  A    between atoms: C_11  and  C_13
REMARK                            x       y       z     vdW  Elec       q    Type
REMARK                         _______ _______ _______ _____ _____    ______ ____
ROOT
ATOM      1  C   UNL     1      49.415   6.825  16.286  0.00  0.00    +0.000 A 
ATOM      2  C   UNL     1      49.703   8.109  15.828  0.00  0.00    +0.000 A 
ATOM      3  C   UNL     1      49.250   8.494  14.568  0.00  0.00    +0.000 A 
ATOM      4  C   UNL     1      48.514   7.596  13.792  0.00  0.00    +0.000 A 
ATOM      5  C   UNL     1      48.261   6.344  14.337  0.00  0.00    +0.000 A 
ATOM      6  N   UNL     1      48.710   5.936  15.543  0.00  0.00    +0.000 NA
ENDROOT
BRANCH   1   7
ATOM      7  C   UNL     1      49.952   6.328  17.615  0.00  0.00    +0.000 C 
BRANCH   7   8
ATOM      8  N   UNL     1      51.266   5.681  17.530  0.00  0.00    +0.000 NA
ATOM      9  H   UNL     1      51.299   5.073  16.714  0.00  0.00    +0.000 HD
BRANCH   8  11
ATOM     10  C   UNL     1      52.643   5.464  19.621  0.00  0.00    +0.000 C 
ATOM     11  C   UNL     1      51.569   4.843  18.717  0.00  0.00    +0.000 C 
BRANCH  11  12
ATOM     12  C   UNL     1      51.980   3.422  18.306  0.00  0.00    +0.000 A 
ATOM     13  N   UNL     1      53.191   2.984  18.718  0.00  0.00    +0.000 NA
ATOM     14  C   UNL     1      53.515   1.718  18.386  0.00  0.00    +0.000 A 
ATOM     15  C   UNL     1      52.687   0.879  17.679  0.00  0.00    +0.000 A 
ATOM     16  C   UNL     1      51.476   1.412  17.314  0.00  0.00    +0.000 A 
ATOM     17  N   UNL     1      51.101   2.667  17.611  0.00  0.00    +0.000 NA
ENDBRANCH  11  12
ENDBRANCH   8  11
ENDBRANCH   7   8
ENDBRANCH   1   7
BRANCH   4  18
ATOM     18  C   UNL     1      48.012   7.941  12.419  0.00  0.00    +0.000 C 
BRANCH  18  19
ATOM     19  N   UNL     1      47.352   6.839  11.762  0.00  0.00    +0.000 N 
ATOM     20  C   UNL     1      46.019   6.894  11.431  0.00  0.00    +0.000 C 
ATOM     21  O   UNL     1      45.325   7.888  11.616  0.00  0.00    +0.000 OA
ATOM     22  H   UNL     1      47.769   5.923  11.894  0.00  0.00    +0.000 HD
BRANCH  20  23
ATOM     23  C   UNL     1      45.475   5.698  10.781  0.00  0.00    +0.000 A 
ATOM     24  C   UNL     1      45.625   5.531   9.410  0.00  0.00    +0.000 A 
ATOM     25  S   UNL     1      44.945   4.080   8.827  0.00  0.00    +0.000 S 
ATOM     26  C   UNL     1      44.393   3.650  10.377  0.00  0.00    +0.000 A 
ATOM     27  N   UNL     1      43.686   2.504  10.577  0.00  0.00    +0.000 NA
ATOM     28  C   UNL     1      43.302   2.321  11.796  0.00  0.00    +0.000 A 
ATOM     29  N   UNL     1      43.568   3.174  12.836  0.00  0.00    +0.000 N 
ATOM     30  C   UNL     1      44.318   4.319  12.692  0.00  0.00    +0.000 A 
ATOM     31  O   UNL     1      44.611   5.018  13.656  0.00  0.00    +0.000 OA
ATOM     32  C   UNL     1      44.745   4.583  11.333  0.00  0.00    +0.000 A 
ATOM     33  H   UNL     1      43.253   2.959  13.772  0.00  0.00    +0.000 HD
ENDBRANCH  20  23
ENDBRANCH  18  19
ENDBRANCH   4  18
TORSDOF 7
ENDMDL
MODEL 9
REMARK VINA RESULT:    -5.968      3.914      6.087
REMARK INTER + INTRA:          -9.462
REMARK INTER:                  -8.644
REMARK INTRA:                  -0.819
REMARK UNBOUND:                -1.053
REMARK  Name = 
REMARK  8 active torsions:
REMARK  status: ('A' for Active; 'I' for Inactive)
REMARK    1  A    between atoms: C_1  and  C_2
REMARK    2  A    between atoms: C_2  and  N_3
REMARK    3  A    between atoms: C_2  and  C_25
REMARK    4  A    between atoms: N_3  and  C_4
REMARK    5  A    between atoms: C_4  and  C_5
REMARK    6  A    between atoms: C_8  and  C_9
REMARK    7  A    between atoms: C_9  and  N_10
REMARK    8  A    between atoms: C_11  and  C_13
REMARK                            x       y       z     vdW  Elec       q    Type
REMARK                         _______ _______ _______ _____ _____    ______ ____
ROOT
ATOM      1  C   UNL     1      44.569   7.066  12.207  0.00  0.00    +0.000 A 
ATOM      2  C   UNL     1      45.872   7.393  12.577  0.00  0.00    +0.000 A 
ATOM      3  C   UNL     1      46.637   6.450  13.262  0.00  0.00    +0.000 A 
ATOM      4  C   UNL     1      46.091   5.199  13.558  0.00  0.00    +0.000 A 
ATOM      5  C   UNL     1      44.791   4.956  13.136  0.00  0.00    +0.000 A 
ATOM      6  N   UNL     1      44.019   5.860  12.495  0.00  0.00    +0.000 NA
ENDROOT
BRANCH   1   7
ATOM      7  C   UNL     1      43.668   8.083  11.532  0.00  0.00    +0.000 C 
BRANCH   7   8
ATOM      8  N   UNL     1      44.323   8.858  10.472  0.00  0.00    +0.000 NA
ATOM      9  H   UNL     1      45.320   8.652  10.460  0.00  0.00    +0.000 HD
BRANCH   8  11
ATOM     10  C   UNL     1      45.091  10.873  11.763  0.00  0.00    +0.000 C 
ATOM     11  C   UNL     1      44.176  10.323  10.660  0.00  0.00    +0.000 C 
BRANCH  11  12
ATOM     12  C   UNL     1      42.716  10.703  10.946  0.00  0.00    +0.000 A 
ATOM     13  N   UNL     1      41.807  10.448   9.977  0.00  0.00    +0.000 NA
ATOM     14  C   UNL     1      40.524  10.747  10.264  0.00  0.00    +0.000 A 
ATOM     15  C   UNL     1      40.114  11.272  11.466  0.00  0.00    +0.000 A 
ATOM     16  C   UNL     1      41.108  11.487  12.389  0.00  0.00    +0.000 A 
ATOM     17  N   UNL     1      42.403  11.214  12.158  0.00  0.00    +0.000 NA
ENDBRANCH  11  12
ENDBRANCH   8  11
ENDBRANCH   7   8
ENDBRANCH   1   7
BRANCH   4  18
ATOM     18  C   UNL     1      46.853   4.145  14.309  0.00  0.00    +0.000 C 
BRANCH  18  19
ATOM     19  N   UNL     1      47.537   4.657  15.471  0.00  0.00    +0.000 N 
ATOM     20  C   UNL     1      47.271   4.176  16.731  0.00  0.00    +0.000 C 
ATOM     21  O   UNL     1      46.490   3.255  16.944  0.00  0.00    +0.000 OA
ATOM     22  H   UNL     1      47.912   5.597  15.394  0.00  0.00    +0.000 HD
BRANCH  20  23
ATOM     23  C   UNL     1      48.028   4.798  17.823  0.00  0.00    +0.000 A 
ATOM     24  C   UNL     1      47.444   5.809  18.575  0.00  0.00    +0.000 A 
ATOM     25  S   UNL     1      48.459   6.407  19.808  0.00  0.00    +0.000 S 
ATOM     26  C   UNL     1      49.723   5.365  19.349  0.00  0.00    +0.000 A 
ATOM     27  N   UNL     1      50.921   5.389  19.995  0.00  0.00    +0.000 NA
ATOM     28  C   UNL     1      51.799   4.569  19.520  0.00  0.00    +0.000 A 
ATOM     29  N   UNL     1      51.586   3.720  18.464  0.00  0.00    +0.000 N 
ATOM     30  C   UNL     1      50.377   3.627  17.812  0.00  0.00    +0.000 A 
ATOM     31  O   UNL     1      50.190   2.799  16.927  0.00  0.00    +0.000 OA
ATOM     32  C   UNL     1      49.369   4.552  18.290  0.00  0.00    +0.000 A 
ATOM     33  H   UNL     1      52.312   3.090  18.156  0.00  0.00    +0.000 HD
ENDBRANCH  20  23
ENDBRANCH  18  19
ENDBRANCH   4  18
TORSDOF 7
ENDMDL
