MODEL 1
REMARK VINA RESULT:    -7.771      0.000      0.000
REMARK INTER + INTRA:         -10.824
REMARK INTER:                 -10.269
REMARK INTRA:                  -0.554
REMARK UNBOUND:                -0.554
REMARK  Name = 
REMARK  6 active torsions:
REMARK  status: ('A' for Active; 'I' for Inactive)
REMARK    1  A    between atoms: N_1  and  C_2
REMARK    2  A    between atoms: C_2  and  C_3
REMARK    3  A    between atoms: C_7  and  C_8
REMARK    4  A    between atoms: C_8  and  C_9
REMARK    5  A    between atoms: C_9  and  N_10
REMARK    6  A    between atoms: C_14  and  C_15
REMARK                            x       y       z     vdW  Elec       q    Type
REMARK                         _______ _______ _______ _____ _____    ______ ____
ROOT
ATOM      1  N   UNL     1      44.990   2.901  12.448  0.00  0.00    +0.000 N 
ATOM      2  C   UNL     1      45.712   4.058  12.817  0.00  0.00    +0.000 A 
ATOM      3  C   UNL     1      46.795   3.974  13.707  0.00  0.00    +0.000 A 
ATOM      4  N   UNL     1      47.555   5.037  14.101  0.00  0.00    +0.000 NA
ATOM      5  C   UNL     1      47.170   6.229  13.566  0.00  0.00    +0.000 A 
ATOM      6  C   UNL     1      46.092   6.333  12.704  0.00  0.00    +0.000 A 
ATOM      7  N   UNL     1      45.351   5.261  12.324  0.00  0.00    +0.000 NA
ATOM      8  H   UNL     1      45.642   2.217  12.073  0.00  0.00    +0.000 HD
ENDROOT
BRANCH   5   9
ATOM      9  C   UNL     1      47.938   7.455  13.913  0.00  0.00    +0.000 C 
ATOM     10  N   UNL     1      47.209   8.556  14.278  0.00  0.00    +0.000 N 
ATOM     11  O   UNL     1      49.162   7.488  13.877  0.00  0.00    +0.000 OA
ATOM     12  H   UNL     1      46.195   8.518  14.301  0.00  0.00    +0.000 HD
ATOM     13  H   UNL     1      47.696   9.407  14.517  0.00  0.00    +0.000 HD
ENDBRANCH   5   9
BRANCH   1  14
ATOM     14  C   UNL     1      43.899   3.194  11.500  0.00  0.00    +0.000 C 
BRANCH  14  15
ATOM     15  C   UNL     1      43.960   2.282  10.265  0.00  0.00    +0.000 C 
BRANCH  15  20
ATOM     16  C   UNL     1      46.717   2.258   7.611  0.00  0.00    +0.000 A 
ATOM     17  C   UNL     1      46.794   3.620   7.291  0.00  0.00    +0.000 A 
ATOM     18  C   UNL     1      46.000   4.550   7.960  0.00  0.00    +0.000 A 
ATOM     19  C   UNL     1      45.101   4.128   8.943  0.00  0.00    +0.000 A 
ATOM     20  C   UNL     1      45.000   2.771   9.276  0.00  0.00    +0.000 A 
ATOM     21  C   UNL     1      45.826   1.848   8.615  0.00  0.00    +0.000 A 
BRANCH  16  22
ATOM     22  C   UNL     1      47.523   1.244   6.839  0.00  0.00    +0.000 C 
BRANCH  22  23
ATOM     23  N   UNL     1      48.345   1.867   5.809  0.00  0.00    +0.000 NA
ATOM     24  H   UNL     1      49.308   1.556   5.922  0.00  0.00    +0.000 HD
ATOM     25  H   UNL     1      48.346   2.875   5.958  0.00  0.00    +0.000 HD
ENDBRANCH  22  23
ENDBRANCH  16  22
ENDBRANCH  15  20
ENDBRANCH  14  15
ENDBRANCH   1  14
TORSDOF 6
ENDMDL
MODEL 2
REMARK VINA RESULT:    -7.721      2.868      6.440
REMARK INTER + INTRA:         -10.758
REMARK INTER:                 -10.176
REMARK INTRA:                  -0.582
REMARK UNBOUND:                -0.554
REMARK  Name = 
REMARK  6 active torsions:
REMARK  status: ('A' for Active; 'I' for Inactive)
REMARK    1  A    between atoms: N_1  and  C_2
REMARK    2  A    between atoms: C_2  and  C_3
REMARK    3  A    between atoms: C_7  and  C_8
REMARK    4  A    between atoms: C_8  and  C_9
REMARK    5  A    between atoms: C_9  and  N_10
REMARK    6  A    between atoms: C_14  and  C_15
REMARK                            x       y       z     vdW  Elec       q    Type
REMARK                         _______ _______ _______ _____ _____    ______ ____
ROOT
ATOM      1  N   UNL     1      43.744   3.606  10.428  0.00  0.00    +0.000 N 
ATOM      2  C   UNL     1      44.691   3.299   9.426  0.00  0.00    +0.000 A 
ATOM      3  C   UNL     1      45.131   1.980   9.234  0.00  0.00    +0.000 A 
ATOM      4  N   UNL     1      46.028   1.596   8.279  0.00  0.00    +0.000 NA
ATOM      5  C   UNL     1      46.496   2.616   7.509  0.00  0.00    +0.000 A 
ATOM      6  C   UNL     1      46.089   3.926   7.697  0.00  0.00    +0.000 A 
ATOM      7  N   UNL     1      45.194   4.285   8.652  0.00  0.00    +0.000 NA
ATOM      8  H   UNL     1      42.921   3.027  10.285  0.00  0.00    +0.000 HD
ENDROOT
BRANCH   5   9
ATOM      9  C   UNL     1      47.468   2.311   6.424  0.00  0.00    +0.000 C 
ATOM     10  N   UNL     1      47.425   3.116   5.315  0.00  0.00    +0.000 N 
ATOM     11  O   UNL     1      48.269   1.390   6.507  0.00  0.00    +0.000 OA
ATOM     12  H   UNL     1      46.754   3.876   5.255  0.00  0.00    +0.000 HD
ATOM     13  H   UNL     1      48.066   2.937   4.557  0.00  0.00    +0.000 HD
ENDBRANCH   5   9
BRANCH   1  14
ATOM     14  C   UNL     1      43.404   5.041  10.465  0.00  0.00    +0.000 C 
BRANCH  14  15
ATOM     15  C   UNL     1      43.464   5.601  11.894  0.00  0.00    +0.000 C 
BRANCH  15  20
ATOM     16  C   UNL     1      46.722   5.253  13.872  0.00  0.00    +0.000 A 
ATOM     17  C   UNL     1      47.599   6.006  13.080  0.00  0.00    +0.000 A 
ATOM     18  C   UNL     1      47.137   6.665  11.942  0.00  0.00    +0.000 A 
ATOM     19  C   UNL     1      45.794   6.562  11.568  0.00  0.00    +0.000 A 
ATOM     20  C   UNL     1      44.899   5.809  12.339  0.00  0.00    +0.000 A 
ATOM     21  C   UNL     1      45.371   5.174  13.498  0.00  0.00    +0.000 A 
BRANCH  16  22
ATOM     22  C   UNL     1      47.235   4.482  15.062  0.00  0.00    +0.000 C 
BRANCH  22  23
ATOM     23  N   UNL     1      47.588   3.111  14.715  0.00  0.00    +0.000 NA
ATOM     24  H   UNL     1      47.607   3.021  13.701  0.00  0.00    +0.000 HD
ATOM     25  H   UNL     1      46.851   2.490  15.046  0.00  0.00    +0.000 HD
ENDBRANCH  22  23
ENDBRANCH  16  22
ENDBRANCH  15  20
ENDBRANCH  14  15
ENDBRANCH   1  14
TORSDOF 6
ENDMDL
MODEL 3
REMARK VINA RESULT:    -7.479      2.915      6.787
REMARK INTER + INTRA:         -10.438
REMARK INTER:                 -10.147
REMARK INTRA:                  -0.291
REMARK UNBOUND:                -0.554
REMARK  Name = 
REMARK  6 active torsions:
REMARK  status: ('A' for Active; 'I' for Inactive)
REMARK    1  A    between atoms: N_1  and  C_2
REMARK    2  A    between atoms: C_2  and  C_3
REMARK    3  A    between atoms: C_7  and  C_8
REMARK    4  A    between atoms: C_8  and  C_9
REMARK    5  A    between atoms: C_9  and  N_10
REMARK    6  A    between atoms: C_14  and  C_15
REMARK                            x       y       z     vdW  Elec       q    Type
REMARK                         _______ _______ _______ _____ _____    ______ ____
ROOT
ATOM      1  N   UNL     1      43.880   4.843  10.101  0.00  0.00    +0.000 N 
ATOM      2  C   UNL     1      44.727   4.011   9.334  0.00  0.00    +0.000 A 
ATOM      3  C   UNL     1      45.553   4.553   8.336  0.00  0.00    +0.000 A 
ATOM      4  N   UNL     1      46.411   3.824   7.564  0.00  0.00    +0.000 NA
ATOM      5  C   UNL     1      46.400   2.488   7.825  0.00  0.00    +0.000 A 
ATOM      6  C   UNL     1      45.578   1.934   8.791  0.00  0.00    +0.000 A 
ATOM      7  N   UNL     1      44.733   2.678   9.549  0.00  0.00    +0.000 NA
ATOM      8  H   UNL     1      44.444   5.570  10.532  0.00  0.00    +0.000 HD
ENDROOT
BRANCH   5   9
ATOM      9  C   UNL     1      47.310   1.598   7.054  0.00  0.00    +0.000 C 
ATOM     10  N   UNL     1      48.321   2.206   6.357  0.00  0.00    +0.000 N 
ATOM     11  O   UNL     1      47.171   0.382   7.038  0.00  0.00    +0.000 OA
ATOM     12  H   UNL     1      48.425   3.215   6.375  0.00  0.00    +0.000 HD
ATOM     13  H   UNL     1      48.956   1.634   5.820  0.00  0.00    +0.000 HD
ENDBRANCH   5   9
BRANCH   1  14
ATOM     14  C   UNL     1      43.101   4.089  11.101  0.00  0.00    +0.000 C 
BRANCH  14  15
ATOM     15  C   UNL     1      43.192   4.732  12.493  0.00  0.00    +0.000 C 
BRANCH  15  20
ATOM     16  C   UNL     1      45.979   7.328  12.875  0.00  0.00    +0.000 A 
ATOM     17  C   UNL     1      47.029   6.527  13.345  0.00  0.00    +0.000 A 
ATOM     18  C   UNL     1      46.859   5.151  13.491  0.00  0.00    +0.000 A 
ATOM     19  C   UNL     1      45.630   4.560  13.191  0.00  0.00    +0.000 A 
ATOM     20  C   UNL     1      44.562   5.339  12.726  0.00  0.00    +0.000 A 
ATOM     21  C   UNL     1      44.755   6.720  12.556  0.00  0.00    +0.000 A 
BRANCH  16  22
ATOM     22  C   UNL     1      46.139   8.824  12.784  0.00  0.00    +0.000 C 
BRANCH  22  23
ATOM     23  N   UNL     1      44.860   9.517  12.870  0.00  0.00    +0.000 NA
ATOM     24  H   UNL     1      44.132   8.918  12.485  0.00  0.00    +0.000 HD
ATOM     25  H   UNL     1      44.896  10.345  12.278  0.00  0.00    +0.000 HD
ENDBRANCH  22  23
ENDBRANCH  16  22
ENDBRANCH  15  20
ENDBRANCH  14  15
ENDBRANCH   1  14
TORSDOF 6
ENDMDL
MODEL 4
REMARK VINA RESULT:    -7.236      2.865      6.404
REMARK INTER + INTRA:         -10.117
REMARK INTER:                  -9.528
REMARK INTRA:                  -0.589
REMARK UNBOUND:                -0.554
REMARK  Name = 
REMARK  6 active torsions:
REMARK  status: ('A' for Active; 'I' for Inactive)
REMARK    1  A    between atoms: N_1  and  C_2
REMARK    2  A    between atoms: C_2  and  C_3
REMARK    3  A    between atoms: C_7  and  C_8
REMARK    4  A    between atoms: C_8  and  C_9
REMARK    5  A    between atoms: C_9  and  N_10
REMARK    6  A    between atoms: C_14  and  C_15
REMARK                            x       y       z     vdW  Elec       q    Type
REMARK                         _______ _______ _______ _____ _____    ______ ____
ROOT
ATOM      1  N   UNL     1      43.794   3.764  10.445  0.00  0.00    +0.000 N 
ATOM      2  C   UNL     1      44.728   3.428   9.439  0.00  0.00    +0.000 A 
ATOM      3  C   UNL     1      45.117   2.094   9.238  0.00  0.00    +0.000 A 
ATOM      4  N   UNL     1      45.997   1.682   8.280  0.00  0.00    +0.000 NA
ATOM      5  C   UNL     1      46.503   2.689   7.516  0.00  0.00    +0.000 A 
ATOM      6  C   UNL     1      46.147   4.012   7.713  0.00  0.00    +0.000 A 
ATOM      7  N   UNL     1      45.267   4.399   8.672  0.00  0.00    +0.000 NA
ATOM      8  H   UNL     1      42.949   3.218  10.299  0.00  0.00    +0.000 HD
ENDROOT
BRANCH   5   9
ATOM      9  C   UNL     1      47.461   2.354   6.427  0.00  0.00    +0.000 C 
ATOM     10  N   UNL     1      47.361   3.085   5.273  0.00  0.00    +0.000 N 
ATOM     11  O   UNL     1      48.300   1.471   6.547  0.00  0.00    +0.000 OA
ATOM     12  H   UNL     1      46.659   3.814   5.183  0.00  0.00    +0.000 HD
ATOM     13  H   UNL     1      47.992   2.885   4.511  0.00  0.00    +0.000 HD
ENDBRANCH   5   9
BRANCH   1  14
ATOM     14  C   UNL     1      43.509   5.210  10.491  0.00  0.00    +0.000 C 
BRANCH  14  15
ATOM     15  C   UNL     1      43.624   5.765  11.919  0.00  0.00    +0.000 C 
BRANCH  15  20
ATOM     16  C   UNL     1      47.346   6.530  12.377  0.00  0.00    +0.000 A 
ATOM     17  C   UNL     1      47.658   5.706  13.466  0.00  0.00    +0.000 A 
ATOM     18  C   UNL     1      46.691   4.869  14.020  0.00  0.00    +0.000 A 
ATOM     19  C   UNL     1      45.391   4.862  13.507  0.00  0.00    +0.000 A 
ATOM     20  C   UNL     1      45.052   5.683  12.423  0.00  0.00    +0.000 A 
ATOM     21  C   UNL     1      46.043   6.500  11.856  0.00  0.00    +0.000 A 
BRANCH  16  22
ATOM     22  C   UNL     1      48.371   7.487  11.824  0.00  0.00    +0.000 C 
BRANCH  22  23
ATOM     23  N   UNL     1      49.727   7.128  12.223  0.00  0.00    +0.000 NA
ATOM     24  H   UNL     1      49.950   7.600  13.097  0.00  0.00    +0.000 HD
ATOM     25  H   UNL     1      50.378   7.487  11.526  0.00  0.00    +0.000 HD
ENDBRANCH  22  23
ENDBRANCH  16  22
ENDBRANCH  15  20
ENDBRANCH  14  15
ENDBRANCH   1  14
TORSDOF 6
ENDMDL
MODEL 5
REMARK VINA RESULT:    -6.990      1.739      2.509
REMARK INTER + INTRA:          -9.792
REMARK INTER:                  -9.440
REMARK INTRA:                  -0.352
REMARK UNBOUND:                -0.554
REMARK  Name = 
REMARK  6 active torsions:
REMARK  status: ('A' for Active; 'I' for Inactive)
REMARK    1  A    between atoms: N_1  and  C_2
REMARK    2  A    between atoms: C_2  and  C_3
REMARK    3  A    between atoms: C_7  and  C_8
REMARK    4  A    between atoms: C_8  and  C_9
REMARK    5  A    between atoms: C_9  and  N_10
REMARK    6  A    between atoms: C_14  and  C_15
REMARK                            x       y       z     vdW  Elec       q    Type
REMARK                         _______ _______ _______ _____ _____    ______ ____
ROOT
ATOM      1  N   UNL     1      45.689   5.623  11.047  0.00  0.00    +0.000 N 
ATOM      2  C   UNL     1      46.244   5.355  12.319  0.00  0.00    +0.000 A 
ATOM      3  C   UNL     1      47.214   6.206  12.873  0.00  0.00    +0.000 A 
ATOM      4  N   UNL     1      47.786   6.031  14.099  0.00  0.00    +0.000 NA
ATOM      5  C   UNL     1      47.351   4.926  14.767  0.00  0.00    +0.000 A 
ATOM      6  C   UNL     1      46.411   4.065  14.227  0.00  0.00    +0.000 A 
ATOM      7  N   UNL     1      45.853   4.261  13.006  0.00  0.00    +0.000 NA
ATOM      8  H   UNL     1      45.304   6.563  11.053  0.00  0.00    +0.000 HD
ENDROOT
BRANCH   5   9
ATOM      9  C   UNL     1      47.894   4.645  16.123  0.00  0.00    +0.000 C 
ATOM     10  N   UNL     1      47.790   5.649  17.049  0.00  0.00    +0.000 N 
ATOM     11  O   UNL     1      48.411   3.572  16.407  0.00  0.00    +0.000 OA
ATOM     12  H   UNL     1      47.361   6.536  16.802  0.00  0.00    +0.000 HD
ATOM     13  H   UNL     1      48.150   5.495  17.979  0.00  0.00    +0.000 HD
ENDBRANCH   5   9
BRANCH   1  14
ATOM     14  C   UNL     1      44.684   4.621  10.646  0.00  0.00    +0.000 C 
BRANCH  14  15
ATOM     15  C   UNL     1      44.463   4.617   9.126  0.00  0.00    +0.000 C 
BRANCH  15  20
ATOM     16  C   UNL     1      46.679   2.584   6.758  0.00  0.00    +0.000 A 
ATOM     17  C   UNL     1      46.632   1.321   7.364  0.00  0.00    +0.000 A 
ATOM     18  C   UNL     1      45.853   1.109   8.500  0.00  0.00    +0.000 A 
ATOM     19  C   UNL     1      45.126   2.164   9.059  0.00  0.00    +0.000 A 
ATOM     20  C   UNL     1      45.161   3.438   8.477  0.00  0.00    +0.000 A 
ATOM     21  C   UNL     1      45.928   3.630   7.316  0.00  0.00    +0.000 A 
BRANCH  16  22
ATOM     22  C   UNL     1      47.577   2.832   5.573  0.00  0.00    +0.000 C 
BRANCH  22  23
ATOM     23  N   UNL     1      48.535   1.751   5.377  0.00  0.00    +0.000 NA
ATOM     24  H   UNL     1      48.104   0.872   5.654  0.00  0.00    +0.000 HD
ATOM     25  H   UNL     1      49.324   1.897   6.005  0.00  0.00    +0.000 HD
ENDBRANCH  22  23
ENDBRANCH  16  22
ENDBRANCH  15  20
ENDBRANCH  14  15
ENDBRANCH   1  14
TORSDOF 6
ENDMDL
MODEL 6
REMARK VINA RESULT:    -6.293      4.352      7.970
REMARK INTER + INTRA:          -8.871
REMARK INTER:                  -8.565
REMARK INTRA:                  -0.306
REMARK UNBOUND:                -0.554
REMARK  Name = 
REMARK  6 active torsions:
REMARK  status: ('A' for Active; 'I' for Inactive)
REMARK    1  A    between atoms: N_1  and  C_2
REMARK    2  A    between atoms: C_2  and  C_3
REMARK    3  A    between atoms: C_7  and  C_8
REMARK    4  A    between atoms: C_8  and  C_9
REMARK    5  A    between atoms: C_9  and  N_10
REMARK    6  A    between atoms: C_14  and  C_15
REMARK                            x       y       z     vdW  Elec       q    Type
REMARK                         _______ _______ _______ _____ _____    ______ ____
ROOT
ATOM      1  N   UNL     1      46.873   5.166  14.839  0.00  0.00    +0.000 N 
ATOM      2  C   UNL     1      46.217   4.782  13.648  0.00  0.00    +0.000 A 
ATOM      3  C   UNL     1      45.806   5.745  12.712  0.00  0.00    +0.000 A 
ATOM      4  N   UNL     1      45.184   5.458  11.531  0.00  0.00    +0.000 NA
ATOM      5  C   UNL     1      44.967   4.130  11.322  0.00  0.00    +0.000 A 
ATOM      6  C   UNL     1      45.347   3.169  12.243  0.00  0.00    +0.000 A 
ATOM      7  N   UNL     1      45.967   3.477  13.410  0.00  0.00    +0.000 NA
ATOM      8  H   UNL     1      47.688   5.724  14.595  0.00  0.00    +0.000 HD
ENDROOT
BRANCH   5   9
ATOM      9  C   UNL     1      44.310   3.700  10.058  0.00  0.00    +0.000 C 
ATOM     10  N   UNL     1      44.186   4.647   9.075  0.00  0.00    +0.000 N 
ATOM     11  O   UNL     1      43.899   2.558   9.894  0.00  0.00    +0.000 OA
ATOM     12  H   UNL     1      44.528   5.591   9.223  0.00  0.00    +0.000 HD
ATOM     13  H   UNL     1      43.743   4.392   8.205  0.00  0.00    +0.000 HD
ENDBRANCH   5   9
BRANCH   1  14
ATOM     14  C   UNL     1      47.232   4.013  15.684  0.00  0.00    +0.000 C 
BRANCH  14  15
ATOM     15  C   UNL     1      47.611   4.449  17.108  0.00  0.00    +0.000 C 
BRANCH  15  20
ATOM     16  C   UNL     1      51.003   2.717  17.488  0.00  0.00    +0.000 A 
ATOM     17  C   UNL     1      51.852   3.821  17.644  0.00  0.00    +0.000 A 
ATOM     18  C   UNL     1      51.333   5.114  17.678  0.00  0.00    +0.000 A 
ATOM     19  C   UNL     1      49.959   5.323  17.533  0.00  0.00    +0.000 A 
ATOM     20  C   UNL     1      49.090   4.237  17.368  0.00  0.00    +0.000 A 
ATOM     21  C   UNL     1      49.622   2.938  17.365  0.00  0.00    +0.000 A 
BRANCH  16  22
ATOM     22  C   UNL     1      51.570   1.325  17.380  0.00  0.00    +0.000 C 
BRANCH  22  23
ATOM     23  N   UNL     1      52.606   1.077  18.374  0.00  0.00    +0.000 NA
ATOM     24  H   UNL     1      53.203   1.899  18.442  0.00  0.00    +0.000 HD
ATOM     25  H   UNL     1      53.199   0.316  18.046  0.00  0.00    +0.000 HD
ENDBRANCH  22  23
ENDBRANCH  16  22
ENDBRANCH  15  20
ENDBRANCH  14  15
ENDBRANCH   1  14
TORSDOF 6
ENDMDL
MODEL 7
REMARK VINA RESULT:    -6.154      2.890      4.871
REMARK INTER + INTRA:          -8.687
REMARK INTER:                  -8.236
REMARK INTRA:                  -0.451
REMARK UNBOUND:                -0.554
REMARK  Name = 
REMARK  6 active torsions:
REMARK  status: ('A' for Active; 'I' for Inactive)
REMARK    1  A    between atoms: N_1  and  C_2
REMARK    2  A    between atoms: C_2  and  C_3
REMARK    3  A    between atoms: C_7  and  C_8
REMARK    4  A    between atoms: C_8  and  C_9
REMARK    5  A    between atoms: C_9  and  N_10
REMARK    6  A    between atoms: C_14  and  C_15
REMARK                            x       y       z     vdW  Elec       q    Type
REMARK                         _______ _______ _______ _____ _____    ______ ____
ROOT
ATOM      1  N   UNL     1      48.405   7.119  13.739  0.00  0.00    +0.000 N 
ATOM      2  C   UNL     1      48.193   6.142  14.737  0.00  0.00    +0.000 A 
ATOM      3  C   UNL     1      48.690   6.325  16.038  0.00  0.00    +0.000 A 
ATOM      4  N   UNL     1      48.514   5.441  17.063  0.00  0.00    +0.000 NA
ATOM      5  C   UNL     1      47.815   4.323  16.724  0.00  0.00    +0.000 A 
ATOM      6  C   UNL     1      47.337   4.116  15.442  0.00  0.00    +0.000 A 
ATOM      7  N   UNL     1      47.521   5.010  14.438  0.00  0.00    +0.000 NA
ATOM      8  H   UNL     1      48.054   8.010  14.078  0.00  0.00    +0.000 HD
ENDROOT
BRANCH   5   9
ATOM      9  C   UNL     1      47.549   3.297  17.769  0.00  0.00    +0.000 C 
ATOM     10  N   UNL     1      48.411   3.265  18.834  0.00  0.00    +0.000 N 
ATOM     11  O   UNL     1      46.610   2.516  17.690  0.00  0.00    +0.000 OA
ATOM     12  H   UNL     1      49.188   3.916  18.888  0.00  0.00    +0.000 HD
ATOM     13  H   UNL     1      48.264   2.581  19.561  0.00  0.00    +0.000 HD
ENDBRANCH   5   9
BRANCH   1  14
ATOM     14  C   UNL     1      47.800   6.747  12.446  0.00  0.00    +0.000 C 
BRANCH  14  15
ATOM     15  C   UNL     1      46.430   7.413  12.249  0.00  0.00    +0.000 C 
BRANCH  15  20
ATOM     16  C   UNL     1      44.450   4.762  10.326  0.00  0.00    +0.000 A 
ATOM     17  C   UNL     1      43.548   4.334  11.309  0.00  0.00    +0.000 A 
ATOM     18  C   UNL     1      43.540   4.929  12.570  0.00  0.00    +0.000 A 
ATOM     19  C   UNL     1      44.451   5.945  12.872  0.00  0.00    +0.000 A 
ATOM     20  C   UNL     1      45.368   6.385  11.908  0.00  0.00    +0.000 A 
ATOM     21  C   UNL     1      45.346   5.797  10.633  0.00  0.00    +0.000 A 
BRANCH  16  22
ATOM     22  C   UNL     1      44.506   4.071   8.987  0.00  0.00    +0.000 C 
BRANCH  22  23
ATOM     23  N   UNL     1      45.654   4.500   8.198  0.00  0.00    +0.000 NA
ATOM     24  H   UNL     1      45.673   3.973   7.327  0.00  0.00    +0.000 HD
ATOM     25  H   UNL     1      46.506   4.257   8.701  0.00  0.00    +0.000 HD
ENDBRANCH  22  23
ENDBRANCH  16  22
ENDBRANCH  15  20
ENDBRANCH  14  15
ENDBRANCH   1  14
TORSDOF 6
ENDMDL
MODEL 8
REMARK VINA RESULT:    -5.962      3.475      4.821
REMARK INTER + INTRA:          -8.434
REMARK INTER:                  -8.117
REMARK INTRA:                  -0.317
REMARK UNBOUND:                -0.554
REMARK  Name = 
REMARK  6 active torsions:
REMARK  status: ('A' for Active; 'I' for Inactive)
REMARK    1  A    between atoms: N_1  and  C_2
REMARK    2  A    between atoms: C_2  and  C_3
REMARK    3  A    between atoms: C_7  and  C_8
REMARK    4  A    between atoms: C_8  and  C_9
REMARK    5  A    between atoms: C_9  and  N_10
REMARK    6  A    between atoms: C_14  and  C_15
REMARK                            x       y       z     vdW  Elec       q    Type
REMARK                         _______ _______ _______ _____ _____    ______ ____
ROOT
ATOM      1  N   UNL     1      47.095   3.629  14.549  0.00  0.00    +0.000 N 
ATOM      2  C   UNL     1      47.628   3.894  15.830  0.00  0.00    +0.000 A 
ATOM      3  C   UNL     1      47.695   2.883  16.803  0.00  0.00    +0.000 A 
ATOM      4  N   UNL     1      48.210   3.050  18.056  0.00  0.00    +0.000 NA
ATOM      5  C   UNL     1      48.655   4.311  18.314  0.00  0.00    +0.000 A 
ATOM      6  C   UNL     1      48.577   5.324  17.375  0.00  0.00    +0.000 A 
ATOM      7  N   UNL     1      48.063   5.135  16.133  0.00  0.00    +0.000 NA
ATOM      8  H   UNL     1      47.601   2.846  14.142  0.00  0.00    +0.000 HD
ENDROOT
BRANCH   5   9
ATOM      9  C   UNL     1      49.253   4.603  19.645  0.00  0.00    +0.000 C 
ATOM     10  N   UNL     1      48.641   4.037  20.732  0.00  0.00    +0.000 N 
ATOM     11  O   UNL     1      50.242   5.313  19.772  0.00  0.00    +0.000 OA
ATOM     12  H   UNL     1      47.819   3.452  20.616  0.00  0.00    +0.000 HD
ATOM     13  H   UNL     1      49.017   4.216  21.652  0.00  0.00    +0.000 HD
ENDBRANCH   5   9
BRANCH   1  14
ATOM     14  C   UNL     1      47.120   4.813  13.670  0.00  0.00    +0.000 C 
BRANCH  14  15
ATOM     15  C   UNL     1      45.712   5.390  13.457  0.00  0.00    +0.000 C 
BRANCH  15  20
ATOM     16  C   UNL     1      44.592   4.023  10.063  0.00  0.00    +0.000 A 
ATOM     17  C   UNL     1      43.707   3.011  10.459  0.00  0.00    +0.000 A 
ATOM     18  C   UNL     1      43.431   2.801  11.809  0.00  0.00    +0.000 A 
ATOM     19  C   UNL     1      44.055   3.585  12.783  0.00  0.00    +0.000 A 
ATOM     20  C   UNL     1      44.949   4.598  12.413  0.00  0.00    +0.000 A 
ATOM     21  C   UNL     1      45.196   4.818  11.048  0.00  0.00    +0.000 A 
BRANCH  16  22
ATOM     22  C   UNL     1      44.945   4.204   8.608  0.00  0.00    +0.000 C 
BRANCH  22  23
ATOM     23  N   UNL     1      46.064   5.120   8.426  0.00  0.00    +0.000 NA
ATOM     24  H   UNL     1      46.786   4.655   7.879  0.00  0.00    +0.000 HD
ATOM     25  H   UNL     1      46.474   5.319   9.337  0.00  0.00    +0.000 HD
ENDBRANCH  22  23
ENDBRANCH  16  22
ENDBRANCH  15  20
ENDBRANCH  14  15
ENDBRANCH   1  14
TORSDOF 6
ENDMDL
MODEL 9
REMARK VINA RESULT:    -5.914      3.831      7.723
REMARK INTER + INTRA:          -8.370
REMARK INTER:                  -7.861
REMARK INTRA:                  -0.509
REMARK UNBOUND:                -0.554
REMARK  Name = 
REMARK  6 active torsions:
REMARK  status: ('A' for Active; 'I' for Inactive)
REMARK    1  A    between atoms: N_1  and  C_2
REMARK    2  A    between atoms: C_2  and  C_3
REMARK    3  A    between atoms: C_7  and  C_8
REMARK    4  A    between atoms: C_8  and  C_9
REMARK    5  A    between atoms: C_9  and  N_10
REMARK    6  A    between atoms: C_14  and  C_15
REMARK                            x       y       z     vdW  Elec       q    Type
REMARK                         _______ _______ _______ _____ _____    ______ ____
ROOT
ATOM      1  N   UNL     1      47.304   7.654  13.423  0.00  0.00    +0.000 N 
ATOM      2  C   UNL     1      46.446   6.607  13.019  0.00  0.00    +0.000 A 
ATOM      3  C   UNL     1      45.205   6.884  12.422  0.00  0.00    +0.000 A 
ATOM      4  N   UNL     1      44.327   5.934  11.988  0.00  0.00    +0.000 NA
ATOM      5  C   UNL     1      44.741   4.654  12.195  0.00  0.00    +0.000 A 
ATOM      6  C   UNL     1      45.951   4.361  12.801  0.00  0.00    +0.000 A 
ATOM      7  N   UNL     1      46.811   5.323  13.223  0.00  0.00    +0.000 NA
ATOM      8  H   UNL     1      47.477   8.258  12.624  0.00  0.00    +0.000 HD
ENDROOT
BRANCH   5   9
ATOM      9  C   UNL     1      43.870   3.534  11.745  0.00  0.00    +0.000 C 
ATOM     10  N   UNL     1      43.730   2.479  12.607  0.00  0.00    +0.000 N 
ATOM     11  O   UNL     1      43.302   3.547  10.661  0.00  0.00    +0.000 OA
ATOM     12  H   UNL     1      44.208   2.477  13.503  0.00  0.00    +0.000 HD
ATOM     13  H   UNL     1      43.149   1.700  12.336  0.00  0.00    +0.000 HD
ENDBRANCH   5   9
BRANCH   1  14
ATOM     14  C   UNL     1      48.559   7.160  14.019  0.00  0.00    +0.000 C 
BRANCH  14  15
ATOM     15  C   UNL     1      48.649   7.499  15.514  0.00  0.00    +0.000 C 
BRANCH  15  20
ATOM     16  C   UNL     1      48.819   4.054  17.174  0.00  0.00    +0.000 A 
ATOM     17  C   UNL     1      50.152   4.030  17.606  0.00  0.00    +0.000 A 
ATOM     18  C   UNL     1      50.980   5.134  17.411  0.00  0.00    +0.000 A 
ATOM     19  C   UNL     1      50.492   6.270  16.760  0.00  0.00    +0.000 A 
ATOM     20  C   UNL     1      49.166   6.317  16.312  0.00  0.00    +0.000 A 
ATOM     21  C   UNL     1      48.334   5.209  16.540  0.00  0.00    +0.000 A 
BRANCH  16  22
ATOM     22  C   UNL     1      47.944   2.835  17.320  0.00  0.00    +0.000 C 
BRANCH  22  23
ATOM     23  N   UNL     1      46.555   3.187  17.589  0.00  0.00    +0.000 NA
ATOM     24  H   UNL     1      46.357   4.093  17.168  0.00  0.00    +0.000 HD
ATOM     25  H   UNL     1      46.436   3.303  18.594  0.00  0.00    +0.000 HD
ENDBRANCH  22  23
ENDBRANCH  16  22
ENDBRANCH  15  20
ENDBRANCH  14  15
ENDBRANCH   1  14
TORSDOF 6
ENDMDL
