MODEL 1
REMARK VINA RESULT:    -7.239      0.000      0.000
REMARK INTER + INTRA:          -9.365
REMARK INTER:                  -8.932
REMARK INTRA:                  -0.433
REMARK UNBOUND:                -0.433
REMARK  Name = 
REMARK  5 active torsions:
REMARK  status: ('A' for Active; 'I' for Inactive)
REMARK    1  A    between atoms: C_1  and  C_2
REMARK    2  A    between atoms: C_2  and  C_3
REMARK    3  A    between atoms: C_2  and  C_14
REMARK    4  A    between atoms: C_3  and  N_4
REMARK    5  A    between atoms: C_9  and  C_10
REMARK                            x       y       z     vdW  Elec       q    Type
REMARK                         _______ _______ _______ _____ _____    ______ ____
ROOT
ATOM      1  N   UNL     1      45.609   5.004  11.092  0.00  0.00    +0.000 N 
ATOM      2  C   UNL     1      45.732   6.267  11.654  0.00  0.00    +0.000 A 
ATOM      3  N   UNL     1      46.663   6.386  12.611  0.00  0.00    +0.000 NA
ATOM      4  C   UNL     1      46.797   7.586  13.210  0.00  0.00    +0.000 A 
ATOM      5  C   UNL     1      46.039   8.676  12.886  0.00  0.00    +0.000 A 
ATOM      6  C   UNL     1      45.126   8.457  11.882  0.00  0.00    +0.000 A 
ATOM      7  N   UNL     1      44.955   7.273  11.245  0.00  0.00    +0.000 NA
ATOM      8  H   UNL     1      46.463   4.524  11.342  0.00  0.00    +0.000 HD
ENDROOT
BRANCH   6   9
ATOM      9  C   UNL     1      44.240   9.577  11.435  0.00  0.00    +0.000 C 
ATOM     10  N   UNL     1      43.378   9.272  10.419  0.00  0.00    +0.000 N 
ATOM     11  O   UNL     1      44.279  10.689  11.941  0.00  0.00    +0.000 OA
ATOM     12  H   UNL     1      43.334   8.319  10.069  0.00  0.00    +0.000 HD
ATOM     13  H   UNL     1      42.712   9.961  10.104  0.00  0.00    +0.000 HD
ENDBRANCH   6   9
BRANCH   1  14
ATOM     14  C   UNL     1      45.282   5.009   9.685  0.00  0.00    +0.000 C 
BRANCH  14  16
ATOM     15  C   UNL     1      44.013   2.856  10.365  0.00  0.00    +0.000 C 
ATOM     16  C   UNL     1      44.684   3.678   9.299  0.00  0.00    +0.000 C 
BRANCH  16  17
ATOM     17  C   UNL     1      45.363   2.952   8.142  0.00  0.00    +0.000 C 
ATOM     18  C   UNL     1      45.981   1.599   8.546  0.00  0.00    +0.000 C 
ATOM     19  C   UNL     1      46.754   0.947   7.398  0.00  0.00    +0.000 C 
ATOM     20  C   UNL     1      47.808   1.893   6.835  0.00  0.00    +0.000 C 
ATOM     21  C   UNL     1      47.166   3.186   6.347  0.00  0.00    +0.000 C 
ATOM     22  C   UNL     1      46.392   3.876   7.466  0.00  0.00    +0.000 C 
ENDBRANCH  16  17
ENDBRANCH  14  16
ENDBRANCH   1  14
TORSDOF 4
ENDMDL
MODEL 2
REMARK VINA RESULT:    -7.042      1.755      2.456
REMARK INTER + INTRA:          -9.122
REMARK INTER:                  -9.409
REMARK INTRA:                   0.287
REMARK UNBOUND:                -0.433
REMARK  Name = 
REMARK  5 active torsions:
REMARK  status: ('A' for Active; 'I' for Inactive)
REMARK    1  A    between atoms: C_1  and  C_2
REMARK    2  A    between atoms: C_2  and  C_3
REMARK    3  A    between atoms: C_2  and  C_14
REMARK    4  A    between atoms: C_3  and  N_4
REMARK    5  A    between atoms: C_9  and  C_10
REMARK                            x       y       z     vdW  Elec       q    Type
REMARK                         _______ _______ _______ _____ _____    ______ ____
ROOT
ATOM      1  N   UNL     1      44.324   2.899  11.205  0.00  0.00    +0.000 N 
ATOM      2  C   UNL     1      45.109   3.699  12.024  0.00  0.00    +0.000 A 
ATOM      3  N   UNL     1      45.993   3.049  12.794  0.00  0.00    +0.000 NA
ATOM      4  C   UNL     1      46.754   3.780  13.631  0.00  0.00    +0.000 A 
ATOM      5  C   UNL     1      46.672   5.142  13.724  0.00  0.00    +0.000 A 
ATOM      6  C   UNL     1      45.750   5.716  12.882  0.00  0.00    +0.000 A 
ATOM      7  N   UNL     1      44.964   5.026  12.020  0.00  0.00    +0.000 NA
ATOM      8  H   UNL     1      44.807   2.010  11.171  0.00  0.00    +0.000 HD
ENDROOT
BRANCH   6   9
ATOM      9  C   UNL     1      45.571   7.201  12.889  0.00  0.00    +0.000 C 
ATOM     10  N   UNL     1      44.418   7.655  12.310  0.00  0.00    +0.000 N 
ATOM     11  O   UNL     1      46.393   7.961  13.379  0.00  0.00    +0.000 OA
ATOM     12  H   UNL     1      43.732   6.988  11.971  0.00  0.00    +0.000 HD
ATOM     13  H   UNL     1      44.203   8.641  12.329  0.00  0.00    +0.000 HD
ENDBRANCH   6   9
BRANCH   1  14
ATOM     14  C   UNL     1      44.007   3.488   9.926  0.00  0.00    +0.000 C 
BRANCH  14  16
ATOM     15  C   UNL     1      45.742   5.242   9.136  0.00  0.00    +0.000 C 
ATOM     16  C   UNL     1      45.282   3.810   9.186  0.00  0.00    +0.000 C 
BRANCH  16  17
ATOM     17  C   UNL     1      45.621   2.897   8.012  0.00  0.00    +0.000 C 
ATOM     18  C   UNL     1      46.318   1.589   8.434  0.00  0.00    +0.000 C 
ATOM     19  C   UNL     1      46.750   0.746   7.233  0.00  0.00    +0.000 C 
ATOM     20  C   UNL     1      47.617   1.554   6.276  0.00  0.00    +0.000 C 
ATOM     21  C   UNL     1      46.874   2.791   5.789  0.00  0.00    +0.000 C 
ATOM     22  C   UNL     1      46.433   3.668   6.957  0.00  0.00    +0.000 C 
ENDBRANCH  16  17
ENDBRANCH  14  16
ENDBRANCH   1  14
TORSDOF 4
ENDMDL
MODEL 3
REMARK VINA RESULT:    -7.030      2.327      2.809
REMARK INTER + INTRA:          -9.107
REMARK INTER:                  -8.584
REMARK INTRA:                  -0.523
REMARK UNBOUND:                -0.433
REMARK  Name = 
REMARK  5 active torsions:
REMARK  status: ('A' for Active; 'I' for Inactive)
REMARK    1  A    between atoms: C_1  and  C_2
REMARK    2  A    between atoms: C_2  and  C_3
REMARK    3  A    between atoms: C_2  and  C_14
REMARK    4  A    between atoms: C_3  and  N_4
REMARK    5  A    between atoms: C_9  and  C_10
REMARK                            x       y       z     vdW  Elec       q    Type
REMARK                         _______ _______ _______ _____ _____    ______ ____
ROOT
ATOM      1  N   UNL     1      44.460   4.729  11.561  0.00  0.00    +0.000 N 
ATOM      2  C   UNL     1      45.544   5.054  12.365  0.00  0.00    +0.000 A 
ATOM      3  N   UNL     1      45.575   4.457  13.564  0.00  0.00    +0.000 NA
ATOM      4  C   UNL     1      46.591   4.767  14.393  0.00  0.00    +0.000 A 
ATOM      5  C   UNL     1      47.585   5.648  14.067  0.00  0.00    +0.000 A 
ATOM      6  C   UNL     1      47.473   6.192  12.810  0.00  0.00    +0.000 A 
ATOM      7  N   UNL     1      46.475   5.910  11.937  0.00  0.00    +0.000 NA
ATOM      8  H   UNL     1      44.082   3.881  11.964  0.00  0.00    +0.000 HD
ENDROOT
BRANCH   6   9
ATOM      9  C   UNL     1      48.505   7.167  12.336  0.00  0.00    +0.000 C 
ATOM     10  N   UNL     1      49.748   7.017  12.887  0.00  0.00    +0.000 N 
ATOM     11  O   UNL     1      48.260   8.036  11.513  0.00  0.00    +0.000 OA
ATOM     12  H   UNL     1      49.925   6.243  13.519  0.00  0.00    +0.000 HD
ATOM     13  H   UNL     1      50.507   7.602  12.573  0.00  0.00    +0.000 HD
ENDBRANCH   6   9
BRANCH   1  14
ATOM     14  C   UNL     1      44.761   4.672  10.150  0.00  0.00    +0.000 C 
BRANCH  14  16
ATOM     15  C   UNL     1      43.965   2.245  10.582  0.00  0.00    +0.000 C 
ATOM     16  C   UNL     1      44.412   3.305   9.613  0.00  0.00    +0.000 C 
BRANCH  16  17
ATOM     17  C   UNL     1      45.160   2.871   8.356  0.00  0.00    +0.000 C 
ATOM     18  C   UNL     1      45.941   1.554   8.532  0.00  0.00    +0.000 C 
ATOM     19  C   UNL     1      46.774   1.202   7.298  0.00  0.00    +0.000 C 
ATOM     20  C   UNL     1      47.699   2.350   6.911  0.00  0.00    +0.000 C 
ATOM     21  C   UNL     1      46.900   3.618   6.642  0.00  0.00    +0.000 C 
ATOM     22  C   UNL     1      46.062   4.013   7.854  0.00  0.00    +0.000 C 
ENDBRANCH  16  17
ENDBRANCH  14  16
ENDBRANCH   1  14
TORSDOF 4
ENDMDL
MODEL 4
REMARK VINA RESULT:    -6.905      3.599      4.932
REMARK INTER + INTRA:          -8.952
REMARK INTER:                  -8.658
REMARK INTRA:                  -0.294
REMARK UNBOUND:                -0.433
REMARK  Name = 
REMARK  5 active torsions:
REMARK  status: ('A' for Active; 'I' for Inactive)
REMARK    1  A    between atoms: C_1  and  C_2
REMARK    2  A    between atoms: C_2  and  C_3
REMARK    3  A    between atoms: C_2  and  C_14
REMARK    4  A    between atoms: C_3  and  N_4
REMARK    5  A    between atoms: C_9  and  C_10
REMARK                            x       y       z     vdW  Elec       q    Type
REMARK                         _______ _______ _______ _____ _____    ______ ____
ROOT
ATOM      1  N   UNL     1      46.225   5.076  12.568  0.00  0.00    +0.000 N 
ATOM      2  C   UNL     1      46.904   5.198  13.773  0.00  0.00    +0.000 A 
ATOM      3  N   UNL     1      47.629   6.316  13.918  0.00  0.00    +0.000 NA
ATOM      4  C   UNL     1      48.333   6.463  15.057  0.00  0.00    +0.000 A 
ATOM      5  C   UNL     1      48.336   5.537  16.064  0.00  0.00    +0.000 A 
ATOM      6  C   UNL     1      47.548   4.437  15.827  0.00  0.00    +0.000 A 
ATOM      7  N   UNL     1      46.818   4.243  14.702  0.00  0.00    +0.000 NA
ATOM      8  H   UNL     1      46.208   6.012  12.184  0.00  0.00    +0.000 HD
ENDROOT
BRANCH   6   9
ATOM      9  C   UNL     1      47.466   3.355  16.858  0.00  0.00    +0.000 C 
ATOM     10  N   UNL     1      48.652   2.747  17.164  0.00  0.00    +0.000 N 
ATOM     11  O   UNL     1      46.415   3.035  17.394  0.00  0.00    +0.000 OA
ATOM     12  H   UNL     1      49.511   3.085  16.742  0.00  0.00    +0.000 HD
ATOM     13  H   UNL     1      48.682   2.048  17.891  0.00  0.00    +0.000 HD
ENDBRANCH   6   9
BRANCH   1  14
ATOM     14  C   UNL     1      44.943   4.419  12.672  0.00  0.00    +0.000 C 
BRANCH  14  16
ATOM     15  C   UNL     1      42.708   5.476  11.901  0.00  0.00    +0.000 C 
ATOM     16  C   UNL     1      44.044   4.881  11.551  0.00  0.00    +0.000 C 
BRANCH  16  17
ATOM     17  C   UNL     1      44.181   4.128  10.232  0.00  0.00    +0.000 C 
ATOM     18  C   UNL     1      44.401   2.612  10.412  0.00  0.00    +0.000 C 
ATOM     19  C   UNL     1      44.650   1.899   9.082  0.00  0.00    +0.000 C 
ATOM     20  C   UNL     1      45.802   2.542   8.319  0.00  0.00    +0.000 C 
ATOM     21  C   UNL     1      45.522   4.016   8.061  0.00  0.00    +0.000 C 
ATOM     22  C   UNL     1      45.278   4.770   9.364  0.00  0.00    +0.000 C 
ENDBRANCH  16  17
ENDBRANCH  14  16
ENDBRANCH   1  14
TORSDOF 4
ENDMDL
MODEL 5
REMARK VINA RESULT:    -6.544      1.471      2.304
REMARK INTER + INTRA:          -8.507
REMARK INTER:                  -7.917
REMARK INTRA:                  -0.591
REMARK UNBOUND:                -0.433
REMARK  Name = 
REMARK  5 active torsions:
REMARK  status: ('A' for Active; 'I' for Inactive)
REMARK    1  A    between atoms: C_1  and  C_2
REMARK    2  A    between atoms: C_2  and  C_3
REMARK    3  A    between atoms: C_2  and  C_14
REMARK    4  A    between atoms: C_3  and  N_4
REMARK    5  A    between atoms: C_9  and  C_10
REMARK                            x       y       z     vdW  Elec       q    Type
REMARK                         _______ _______ _______ _____ _____    ______ ____
ROOT
ATOM      1  N   UNL     1      44.378   4.434  13.157  0.00  0.00    +0.000 N 
ATOM      2  C   UNL     1      45.291   5.479  13.140  0.00  0.00    +0.000 A 
ATOM      3  N   UNL     1      46.510   5.191  13.617  0.00  0.00    +0.000 NA
ATOM      4  C   UNL     1      47.421   6.183  13.652  0.00  0.00    +0.000 A 
ATOM      5  C   UNL     1      47.163   7.455  13.221  0.00  0.00    +0.000 A 
ATOM      6  C   UNL     1      45.892   7.644  12.734  0.00  0.00    +0.000 A 
ATOM      7  N   UNL     1      44.942   6.680  12.673  0.00  0.00    +0.000 NA
ATOM      8  H   UNL     1      44.940   3.600  13.267  0.00  0.00    +0.000 HD
ENDROOT
BRANCH   6   9
ATOM      9  C   UNL     1      45.492   8.995  12.229  0.00  0.00    +0.000 C 
ATOM     10  N   UNL     1      44.198   9.098  11.797  0.00  0.00    +0.000 N 
ATOM     11  O   UNL     1      46.262   9.943  12.204  0.00  0.00    +0.000 OA
ATOM     12  H   UNL     1      43.573   8.303  11.893  0.00  0.00    +0.000 HD
ATOM     13  H   UNL     1      43.841   9.992  11.496  0.00  0.00    +0.000 HD
ENDBRANCH   6   9
BRANCH   1  14
ATOM     14  C   UNL     1      43.460   4.428  12.042  0.00  0.00    +0.000 C 
BRANCH  14  16
ATOM     15  C   UNL     1      43.333   1.856  11.770  0.00  0.00    +0.000 C 
ATOM     16  C   UNL     1      43.695   3.199  11.199  0.00  0.00    +0.000 C 
BRANCH  16  17
ATOM     17  C   UNL     1      44.854   3.280  10.210  0.00  0.00    +0.000 C 
ATOM     18  C   UNL     1      44.920   4.621   9.452  0.00  0.00    +0.000 C 
ATOM     19  C   UNL     1      46.017   4.633   8.387  0.00  0.00    +0.000 C 
ATOM     20  C   UNL     1      45.868   3.458   7.427  0.00  0.00    +0.000 C 
ATOM     21  C   UNL     1      45.907   2.136   8.184  0.00  0.00    +0.000 C 
ATOM     22  C   UNL     1      44.819   2.077   9.251  0.00  0.00    +0.000 C 
ENDBRANCH  16  17
ENDBRANCH  14  16
ENDBRANCH   1  14
TORSDOF 4
ENDMDL
MODEL 6
REMARK VINA RESULT:    -6.457      4.908      7.105
REMARK INTER + INTRA:          -8.400
REMARK INTER:                  -7.924
REMARK INTRA:                  -0.475
REMARK UNBOUND:                -0.433
REMARK  Name = 
REMARK  5 active torsions:
REMARK  status: ('A' for Active; 'I' for Inactive)
REMARK    1  A    between atoms: C_1  and  C_2
REMARK    2  A    between atoms: C_2  and  C_3
REMARK    3  A    between atoms: C_2  and  C_14
REMARK    4  A    between atoms: C_3  and  N_4
REMARK    5  A    between atoms: C_9  and  C_10
REMARK                            x       y       z     vdW  Elec       q    Type
REMARK                         _______ _______ _______ _____ _____    ______ ____
ROOT
ATOM      1  N   UNL     1      46.786   5.157  15.086  0.00  0.00    +0.000 N 
ATOM      2  C   UNL     1      47.455   4.459  16.083  0.00  0.00    +0.000 A 
ATOM      3  N   UNL     1      46.742   3.506  16.699  0.00  0.00    +0.000 NA
ATOM      4  C   UNL     1      47.339   2.824  17.696  0.00  0.00    +0.000 A 
ATOM      5  C   UNL     1      48.626   3.053  18.099  0.00  0.00    +0.000 A 
ATOM      6  C   UNL     1      49.276   4.036  17.393  0.00  0.00    +0.000 A 
ATOM      7  N   UNL     1      48.724   4.748  16.381  0.00  0.00    +0.000 NA
ATOM      8  H   UNL     1      45.985   4.582  14.859  0.00  0.00    +0.000 HD
ENDROOT
BRANCH   6   9
ATOM      9  C   UNL     1      50.692   4.375  17.738  0.00  0.00    +0.000 C 
ATOM     10  N   UNL     1      51.103   3.976  18.980  0.00  0.00    +0.000 N 
ATOM     11  O   UNL     1      51.434   4.966  16.968  0.00  0.00    +0.000 OA
ATOM     12  H   UNL     1      50.475   3.433  19.565  0.00  0.00    +0.000 HD
ATOM     13  H   UNL     1      52.062   4.120  19.259  0.00  0.00    +0.000 HD
ENDBRANCH   6   9
BRANCH   1  14
ATOM     14  C   UNL     1      47.617   5.545  13.971  0.00  0.00    +0.000 C 
BRANCH  14  16
ATOM     15  C   UNL     1      46.991   6.821  11.806  0.00  0.00    +0.000 C 
ATOM     16  C   UNL     1      46.774   5.649  12.724  0.00  0.00    +0.000 C 
BRANCH  16  17
ATOM     17  C   UNL     1      45.376   5.044  12.810  0.00  0.00    +0.000 C 
ATOM     18  C   UNL     1      45.281   3.632  12.199  0.00  0.00    +0.000 C 
ATOM     19  C   UNL     1      43.849   3.096  12.193  0.00  0.00    +0.000 C 
ATOM     20  C   UNL     1      42.899   4.067  11.501  0.00  0.00    +0.000 C 
ATOM     21  C   UNL     1      42.930   5.429  12.182  0.00  0.00    +0.000 C 
ATOM     22  C   UNL     1      44.342   6.007  12.200  0.00  0.00    +0.000 C 
ENDBRANCH  16  17
ENDBRANCH  14  16
ENDBRANCH   1  14
TORSDOF 4
ENDMDL
MODEL 7
REMARK VINA RESULT:    -6.433      4.287      5.786
REMARK INTER + INTRA:          -8.370
REMARK INTER:                  -7.966
REMARK INTRA:                  -0.404
REMARK UNBOUND:                -0.433
REMARK  Name = 
REMARK  5 active torsions:
REMARK  status: ('A' for Active; 'I' for Inactive)
REMARK    1  A    between atoms: C_1  and  C_2
REMARK    2  A    between atoms: C_2  and  C_3
REMARK    3  A    between atoms: C_2  and  C_14
REMARK    4  A    between atoms: C_3  and  N_4
REMARK    5  A    between atoms: C_9  and  C_10
REMARK                            x       y       z     vdW  Elec       q    Type
REMARK                         _______ _______ _______ _____ _____    ______ ____
ROOT
ATOM      1  N   UNL     1      46.550   3.769  14.090  0.00  0.00    +0.000 N 
ATOM      2  C   UNL     1      47.255   3.714  15.284  0.00  0.00    +0.000 A 
ATOM      3  N   UNL     1      48.023   2.628  15.453  0.00  0.00    +0.000 NA
ATOM      4  C   UNL     1      48.700   2.513  16.612  0.00  0.00    +0.000 A 
ATOM      5  C   UNL     1      48.646   3.447  17.610  0.00  0.00    +0.000 A 
ATOM      6  C   UNL     1      47.847   4.530  17.333  0.00  0.00    +0.000 A 
ATOM      7  N   UNL     1      47.149   4.696  16.183  0.00  0.00    +0.000 NA
ATOM      8  H   UNL     1      47.008   3.098  13.487  0.00  0.00    +0.000 HD
ENDROOT
BRANCH   6   9
ATOM      9  C   UNL     1      47.711   5.622  18.347  0.00  0.00    +0.000 C 
ATOM     10  N   UNL     1      46.770   5.408  19.316  0.00  0.00    +0.000 N 
ATOM     11  O   UNL     1      48.391   6.637  18.317  0.00  0.00    +0.000 OA
ATOM     12  H   UNL     1      46.270   4.524  19.341  0.00  0.00    +0.000 HD
ATOM     13  H   UNL     1      46.662   6.075  20.065  0.00  0.00    +0.000 HD
ENDBRANCH   6   9
BRANCH   1  14
ATOM     14  C   UNL     1      46.403   5.099  13.548  0.00  0.00    +0.000 C 
BRANCH  14  16
ATOM     15  C   UNL     1      43.851   5.144  13.106  0.00  0.00    +0.000 C 
ATOM     16  C   UNL     1      45.255   5.123  12.568  0.00  0.00    +0.000 C 
BRANCH  16  17
ATOM     17  C   UNL     1      45.509   4.441  11.227  0.00  0.00    +0.000 C 
ATOM     18  C   UNL     1      45.611   5.428  10.047  0.00  0.00    +0.000 C 
ATOM     19  C   UNL     1      45.748   4.714   8.702  0.00  0.00    +0.000 C 
ATOM     20  C   UNL     1      44.621   3.711   8.492  0.00  0.00    +0.000 C 
ATOM     21  C   UNL     1      44.599   2.682   9.614  0.00  0.00    +0.000 C 
ATOM     22  C   UNL     1      44.452   3.351  10.977  0.00  0.00    +0.000 C 
ENDBRANCH  16  17
ENDBRANCH  14  16
ENDBRANCH   1  14
TORSDOF 4
ENDMDL
MODEL 8
REMARK VINA RESULT:    -6.173      2.758      3.954
REMARK INTER + INTRA:          -8.049
REMARK INTER:                  -7.824
REMARK INTRA:                  -0.225
REMARK UNBOUND:                -0.433
REMARK  Name = 
REMARK  5 active torsions:
REMARK  status: ('A' for Active; 'I' for Inactive)
REMARK    1  A    between atoms: C_1  and  C_2
REMARK    2  A    between atoms: C_2  and  C_3
REMARK    3  A    between atoms: C_2  and  C_14
REMARK    4  A    between atoms: C_3  and  N_4
REMARK    5  A    between atoms: C_9  and  C_10
REMARK                            x       y       z     vdW  Elec       q    Type
REMARK                         _______ _______ _______ _____ _____    ______ ____
ROOT
ATOM      1  N   UNL     1      46.429   6.261  11.452  0.00  0.00    +0.000 N 
ATOM      2  C   UNL     1      47.135   6.802  12.518  0.00  0.00    +0.000 A 
ATOM      3  N   UNL     1      47.475   8.092  12.392  0.00  0.00    +0.000 NA
ATOM      4  C   UNL     1      48.191   8.652  13.387  0.00  0.00    +0.000 A 
ATOM      5  C   UNL     1      48.575   7.973  14.510  0.00  0.00    +0.000 A 
ATOM      6  C   UNL     1      48.162   6.663  14.553  0.00  0.00    +0.000 A 
ATOM      7  N   UNL     1      47.438   6.055  13.582  0.00  0.00    +0.000 NA
ATOM      8  H   UNL     1      46.082   7.061  10.938  0.00  0.00    +0.000 HD
ENDROOT
BRANCH   6   9
ATOM      9  C   UNL     1      48.518   5.818  15.735  0.00  0.00    +0.000 C 
ATOM     10  N   UNL     1      47.491   5.081  16.258  0.00  0.00    +0.000 N 
ATOM     11  O   UNL     1      49.646   5.782  16.204  0.00  0.00    +0.000 OA
ATOM     12  H   UNL     1      46.584   5.091  15.800  0.00  0.00    +0.000 HD
ATOM     13  H   UNL     1      47.670   4.445  17.020  0.00  0.00    +0.000 HD
ENDBRANCH   6   9
BRANCH   1  14
ATOM     14  C   UNL     1      45.438   5.282  11.830  0.00  0.00    +0.000 C 
BRANCH  14  16
ATOM     15  C   UNL     1      42.945   5.737  11.298  0.00  0.00    +0.000 C 
ATOM     16  C   UNL     1      44.305   5.296  10.834  0.00  0.00    +0.000 C 
BRANCH  16  17
ATOM     17  C   UNL     1      44.391   4.266   9.712  0.00  0.00    +0.000 C 
ATOM     18  C   UNL     1      44.483   2.813  10.220  0.00  0.00    +0.000 C 
ATOM     19  C   UNL     1      44.684   1.811   9.083  0.00  0.00    +0.000 C 
ATOM     20  C   UNL     1      45.892   2.179   8.230  0.00  0.00    +0.000 C 
ATOM     21  C   UNL     1      45.737   3.580   7.653  0.00  0.00    +0.000 C 
ATOM     22  C   UNL     1      45.544   4.616   8.756  0.00  0.00    +0.000 C 
ENDBRANCH  16  17
ENDBRANCH  14  16
ENDBRANCH   1  14
TORSDOF 4
ENDMDL
MODEL 9
REMARK VINA RESULT:    -6.035      3.122      6.445
REMARK INTER + INTRA:          -7.879
REMARK INTER:                  -7.390
REMARK INTRA:                  -0.489
REMARK UNBOUND:                -0.433
REMARK  Name = 
REMARK  5 active torsions:
REMARK  status: ('A' for Active; 'I' for Inactive)
REMARK    1  A    between atoms: C_1  and  C_2
REMARK    2  A    between atoms: C_2  and  C_3
REMARK    3  A    between atoms: C_2  and  C_14
REMARK    4  A    between atoms: C_3  and  N_4
REMARK    5  A    between atoms: C_9  and  C_10
REMARK                            x       y       z     vdW  Elec       q    Type
REMARK                         _______ _______ _______ _____ _____    ______ ____
ROOT
ATOM      1  N   UNL     1      45.592   7.020  10.826  0.00  0.00    +0.000 N 
ATOM      2  C   UNL     1      45.251   5.716  10.493  0.00  0.00    +0.000 A 
ATOM      3  N   UNL     1      45.625   5.315   9.270  0.00  0.00    +0.000 NA
ATOM      4  C   UNL     1      45.287   4.068   8.888  0.00  0.00    +0.000 A 
ATOM      5  C   UNL     1      44.593   3.200   9.686  0.00  0.00    +0.000 A 
ATOM      6  C   UNL     1      44.273   3.699  10.925  0.00  0.00    +0.000 A 
ATOM      7  N   UNL     1      44.592   4.942  11.359  0.00  0.00    +0.000 NA
ATOM      8  H   UNL     1      46.307   7.280  10.160  0.00  0.00    +0.000 HD
ENDROOT
BRANCH   6   9
ATOM      9  C   UNL     1      43.517   2.841  11.890  0.00  0.00    +0.000 C 
ATOM     10  N   UNL     1      43.666   3.172  13.209  0.00  0.00    +0.000 N 
ATOM     11  O   UNL     1      42.813   1.909  11.532  0.00  0.00    +0.000 OA
ATOM     12  H   UNL     1      44.210   3.992  13.461  0.00  0.00    +0.000 HD
ATOM     13  H   UNL     1      43.142   2.673  13.912  0.00  0.00    +0.000 HD
ENDBRANCH   6   9
BRANCH   1  14
ATOM     14  C   UNL     1      45.932   7.209  12.217  0.00  0.00    +0.000 C 
BRANCH  14  16
ATOM     15  C   UNL     1      47.830   6.328  13.743  0.00  0.00    +0.000 C 
ATOM     16  C   UNL     1      47.396   6.908  12.425  0.00  0.00    +0.000 C 
BRANCH  16  17
ATOM     17  C   UNL     1      48.375   7.798  11.665  0.00  0.00    +0.000 C 
ATOM     18  C   UNL     1      49.853   7.448  11.929  0.00  0.00    +0.000 C 
ATOM     19  C   UNL     1      50.813   8.426  11.250  0.00  0.00    +0.000 C 
ATOM     20  C   UNL     1      50.503   9.865  11.643  0.00  0.00    +0.000 C 
ATOM     21  C   UNL     1      49.068  10.226  11.282  0.00  0.00    +0.000 C 
ATOM     22  C   UNL     1      48.075   9.280  11.949  0.00  0.00    +0.000 C 
ENDBRANCH  16  17
ENDBRANCH  14  16
ENDBRANCH   1  14
TORSDOF 4
ENDMDL
