MODEL 1
REMARK VINA RESULT:    -8.926      0.000      0.000
REMARK INTER + INTRA:         -12.170
REMARK INTER:                 -11.013
REMARK INTRA:                  -1.157
REMARK UNBOUND:                -1.157
REMARK  Name = 
REMARK  4 active torsions:
REMARK  status: ('A' for Active; 'I' for Inactive)
REMARK    1  A    between atoms: C_2  and  C_4
REMARK    2  A    between atoms: N_8  and  C_9
REMARK    3  A    between atoms: C_9  and  C_10
REMARK    4  A    between atoms: C_14  and  C_15
REMARK                            x       y       z     vdW  Elec       q    Type
REMARK                         _______ _______ _______ _____ _____    ______ ____
ROOT
ATOM      1  C   UNL     1      43.788   4.882  11.352  0.00  0.00    +0.000 C 
ATOM      2  C   UNL     1      42.446   5.129  12.030  0.00  0.00    +0.000 C 
ATOM      3  C   UNL     1      42.965   6.114  11.034  0.00  0.00    +0.000 C 
ENDROOT
BRANCH   1   8
ATOM      4  C   UNL     1      46.580   2.794   7.493  0.00  0.00    +0.000 A 
ATOM      5  C   UNL     1      46.185   4.121   7.642  0.00  0.00    +0.000 A 
ATOM      6  C   UNL     1      45.290   4.456   8.665  0.00  0.00    +0.000 A 
ATOM      7  C   UNL     1      44.807   3.464   9.508  0.00  0.00    +0.000 A 
ATOM      8  N   UNL     1      43.823   3.694  10.477  0.00  0.00    +0.000 N 
ATOM      9  N   UNL     1      45.187   2.174   9.374  0.00  0.00    +0.000 NA
ATOM     10  C   UNL     1      46.056   1.865   8.376  0.00  0.00    +0.000 A 
ATOM     11  H   UNL     1      43.731   2.802  10.964  0.00  0.00    +0.000 HD
BRANCH   4  13
ATOM     12  N   UNL     1      47.375   2.964   5.200  0.00  0.00    +0.000 N 
ATOM     13  C   UNL     1      47.475   2.333   6.411  0.00  0.00    +0.000 C 
ATOM     14  O   UNL     1      48.297   1.446   6.594  0.00  0.00    +0.000 OA
ATOM     15  H   UNL     1      48.053   2.698   4.497  0.00  0.00    +0.000 HD
ATOM     16  H   UNL     1      46.897   3.845   5.078  0.00  0.00    +0.000 HD
ENDBRANCH   4  13
ENDBRANCH   1   8
BRANCH   1  17
ATOM     17  C   UNL     1      45.063   5.044  12.174  0.00  0.00    +0.000 A 
ATOM     18  C   UNL     1      45.558   4.010  12.984  0.00  0.00    +0.000 A 
ATOM     19  C   UNL     1      46.796   4.114  13.615  0.00  0.00    +0.000 A 
ATOM     20  C   UNL     1      47.581   5.251  13.425  0.00  0.00    +0.000 A 
ATOM     21  C   UNL     1      47.142   6.311  12.617  0.00  0.00    +0.000 A 
ATOM     22  C   UNL     1      45.862   6.198  12.039  0.00  0.00    +0.000 A 
BRANCH  21  23
ATOM     23  C   UNL     1      48.021   7.449  12.293  0.00  0.00    +0.000 A 
ATOM     24  C   UNL     1      49.394   7.272  12.058  0.00  0.00    +0.000 A 
ATOM     25  C   UNL     1      50.199   8.345  11.680  0.00  0.00    +0.000 A 
ATOM     26  C   UNL     1      49.611   9.587  11.541  0.00  0.00    +0.000 A 
ATOM     27  N   UNL     1      48.299   9.819  11.762  0.00  0.00    +0.000 NA
ATOM     28  C   UNL     1      47.547   8.753  12.136  0.00  0.00    +0.000 A 
ENDBRANCH  21  23
ENDBRANCH   1  17
TORSDOF 4
ENDMDL
MODEL 2
REMARK VINA RESULT:    -8.523      1.970      3.289
REMARK INTER + INTRA:         -11.672
REMARK INTER:                 -11.133
REMARK INTRA:                  -0.540
REMARK UNBOUND:                -1.157
REMARK  Name = 
REMARK  4 active torsions:
REMARK  status: ('A' for Active; 'I' for Inactive)
REMARK    1  A    between atoms: C_2  and  C_4
REMARK    2  A    between atoms: N_8  and  C_9
REMARK    3  A    between atoms: C_9  and  C_10
REMARK    4  A    between atoms: C_14  and  C_15
REMARK                            x       y       z     vdW  Elec       q    Type
REMARK                         _______ _______ _______ _____ _____    ______ ____
ROOT
ATOM      1  C   UNL     1      43.847   5.071  11.435  0.00  0.00    +0.000 C 
ATOM      2  C   UNL     1      42.708   5.237  12.434  0.00  0.00    +0.000 C 
ATOM      3  C   UNL     1      42.820   6.173  11.275  0.00  0.00    +0.000 C 
ENDROOT
BRANCH   1   8
ATOM      4  C   UNL     1      46.463   2.523   7.731  0.00  0.00    +0.000 A 
ATOM      5  C   UNL     1      46.144   3.878   7.776  0.00  0.00    +0.000 A 
ATOM      6  C   UNL     1      45.284   4.345   8.776  0.00  0.00    +0.000 A 
ATOM      7  C   UNL     1      44.758   3.453   9.702  0.00  0.00    +0.000 A 
ATOM      8  N   UNL     1      43.803   3.816  10.658  0.00  0.00    +0.000 N 
ATOM      9  N   UNL     1      45.064   2.137   9.669  0.00  0.00    +0.000 NA
ATOM     10  C   UNL     1      45.900   1.699   8.692  0.00  0.00    +0.000 A 
ATOM     11  H   UNL     1      43.668   2.973  11.217  0.00  0.00    +0.000 HD
BRANCH   4  13
ATOM     12  N   UNL     1      48.396   2.652   6.261  0.00  0.00    +0.000 N 
ATOM     13  C   UNL     1      47.314   1.926   6.682  0.00  0.00    +0.000 C 
ATOM     14  O   UNL     1      47.085   0.814   6.227  0.00  0.00    +0.000 OA
ATOM     15  H   UNL     1      49.018   2.193   5.606  0.00  0.00    +0.000 HD
ATOM     16  H   UNL     1      48.757   3.445   6.770  0.00  0.00    +0.000 HD
ENDBRANCH   4  13
ENDBRANCH   1   8
BRANCH   1  17
ATOM     17  C   UNL     1      45.262   5.443  11.870  0.00  0.00    +0.000 A 
ATOM     18  C   UNL     1      46.004   6.431  11.206  0.00  0.00    +0.000 A 
ATOM     19  C   UNL     1      47.233   6.866  11.697  0.00  0.00    +0.000 A 
ATOM     20  C   UNL     1      47.735   6.337  12.886  0.00  0.00    +0.000 A 
ATOM     21  C   UNL     1      47.030   5.354  13.598  0.00  0.00    +0.000 A 
ATOM     22  C   UNL     1      45.818   4.897  13.045  0.00  0.00    +0.000 A 
BRANCH  21  23
ATOM     23  C   UNL     1      47.477   4.894  14.925  0.00  0.00    +0.000 A 
ATOM     24  C   UNL     1      47.217   3.589  15.376  0.00  0.00    +0.000 A 
ATOM     25  C   UNL     1      47.709   3.144  16.601  0.00  0.00    +0.000 A 
ATOM     26  C   UNL     1      48.461   4.019  17.361  0.00  0.00    +0.000 A 
ATOM     27  N   UNL     1      48.735   5.286  16.984  0.00  0.00    +0.000 NA
ATOM     28  C   UNL     1      48.233   5.689  15.789  0.00  0.00    +0.000 A 
ENDBRANCH  21  23
ENDBRANCH   1  17
TORSDOF 4
ENDMDL
MODEL 3
REMARK VINA RESULT:    -6.678      4.315      8.243
REMARK INTER + INTRA:          -9.396
REMARK INTER:                  -8.397
REMARK INTRA:                  -0.999
REMARK UNBOUND:                -1.157
REMARK  Name = 
REMARK  4 active torsions:
REMARK  status: ('A' for Active; 'I' for Inactive)
REMARK    1  A    between atoms: C_2  and  C_4
REMARK    2  A    between atoms: N_8  and  C_9
REMARK    3  A    between atoms: C_9  and  C_10
REMARK    4  A    between atoms: C_14  and  C_15
REMARK                            x       y       z     vdW  Elec       q    Type
REMARK                         _______ _______ _______ _____ _____    ______ ____
ROOT
ATOM      1  C   UNL     1      49.037   7.927  12.614  0.00  0.00    +0.000 C 
ATOM      2  C   UNL     1      49.962   8.079  11.411  0.00  0.00    +0.000 C 
ATOM      3  C   UNL     1      49.698   9.253  12.295  0.00  0.00    +0.000 C 
ENDROOT
BRANCH   1   8
ATOM      4  C   UNL     1      48.422   6.858  17.667  0.00  0.00    +0.000 A 
ATOM      5  C   UNL     1      48.527   8.109  17.063  0.00  0.00    +0.000 A 
ATOM      6  C   UNL     1      48.860   8.187  15.706  0.00  0.00    +0.000 A 
ATOM      7  C   UNL     1      49.087   7.021  14.986  0.00  0.00    +0.000 A 
ATOM      8  N   UNL     1      49.538   7.015  13.661  0.00  0.00    +0.000 N 
ATOM      9  N   UNL     1      48.985   5.803  15.561  0.00  0.00    +0.000 NA
ATOM     10  C   UNL     1      48.660   5.744  16.880  0.00  0.00    +0.000 A 
ATOM     11  H   UNL     1      49.546   6.029  13.399  0.00  0.00    +0.000 HD
BRANCH   4  13
ATOM     12  N   UNL     1      47.270   5.669  19.448  0.00  0.00    +0.000 N 
ATOM     13  C   UNL     1      48.132   6.675  19.103  0.00  0.00    +0.000 C 
ATOM     14  O   UNL     1      48.664   7.370  19.957  0.00  0.00    +0.000 OA
ATOM     15  H   UNL     1      47.149   5.499  20.439  0.00  0.00    +0.000 HD
ATOM     16  H   UNL     1      47.007   4.929  18.813  0.00  0.00    +0.000 HD
ENDBRANCH   4  13
ENDBRANCH   1   8
BRANCH   1  17
ATOM     17  C   UNL     1      47.539   7.776  12.370  0.00  0.00    +0.000 A 
ATOM     18  C   UNL     1      46.642   8.831  12.596  0.00  0.00    +0.000 A 
ATOM     19  C   UNL     1      45.300   8.731  12.233  0.00  0.00    +0.000 A 
ATOM     20  C   UNL     1      44.832   7.576  11.607  0.00  0.00    +0.000 A 
ATOM     21  C   UNL     1      45.687   6.494  11.346  0.00  0.00    +0.000 A 
ATOM     22  C   UNL     1      47.024   6.606  11.776  0.00  0.00    +0.000 A 
BRANCH  21  23
ATOM     23  C   UNL     1      45.240   5.331  10.558  0.00  0.00    +0.000 A 
ATOM     24  C   UNL     1      45.649   5.145   9.227  0.00  0.00    +0.000 A 
ATOM     25  C   UNL     1      45.279   4.004   8.518  0.00  0.00    +0.000 A 
ATOM     26  C   UNL     1      44.500   3.060   9.158  0.00  0.00    +0.000 A 
ATOM     27  N   UNL     1      44.070   3.189  10.431  0.00  0.00    +0.000 NA
ATOM     28  C   UNL     1      44.442   4.316  11.089  0.00  0.00    +0.000 A 
ENDBRANCH  21  23
ENDBRANCH   1  17
TORSDOF 4
ENDMDL
MODEL 4
REMARK VINA RESULT:    -6.531      3.663      7.492
REMARK INTER + INTRA:          -9.215
REMARK INTER:                  -9.172
REMARK INTRA:                  -0.043
REMARK UNBOUND:                -1.157
REMARK  Name = 
REMARK  4 active torsions:
REMARK  status: ('A' for Active; 'I' for Inactive)
REMARK    1  A    between atoms: C_2  and  C_4
REMARK    2  A    between atoms: N_8  and  C_9
REMARK    3  A    between atoms: C_9  and  C_10
REMARK    4  A    between atoms: C_14  and  C_15
REMARK                            x       y       z     vdW  Elec       q    Type
REMARK                         _______ _______ _______ _____ _____    ______ ____
ROOT
ATOM      1  C   UNL     1      48.392   7.687  12.770  0.00  0.00    +0.000 C 
ATOM      2  C   UNL     1      49.528   7.032  11.992  0.00  0.00    +0.000 C 
ATOM      3  C   UNL     1      49.337   8.511  11.919  0.00  0.00    +0.000 C 
ENDROOT
BRANCH   1   8
ATOM      4  C   UNL     1      47.982   4.223  16.628  0.00  0.00    +0.000 A 
ATOM      5  C   UNL     1      47.131   4.396  15.539  0.00  0.00    +0.000 A 
ATOM      6  C   UNL     1      47.316   5.498  14.696  0.00  0.00    +0.000 A 
ATOM      7  C   UNL     1      48.338   6.402  14.960  0.00  0.00    +0.000 A 
ATOM      8  N   UNL     1      48.517   7.587  14.238  0.00  0.00    +0.000 N 
ATOM      9  N   UNL     1      49.170   6.240  16.011  0.00  0.00    +0.000 NA
ATOM     10  C   UNL     1      48.978   5.166  16.821  0.00  0.00    +0.000 A 
ATOM     11  H   UNL     1      49.370   7.993  14.622  0.00  0.00    +0.000 HD
BRANCH   4  13
ATOM     12  N   UNL     1      48.897   2.863  18.425  0.00  0.00    +0.000 N 
ATOM     13  C   UNL     1      47.832   3.126  17.606  0.00  0.00    +0.000 C 
ATOM     14  O   UNL     1      46.788   2.497  17.706  0.00  0.00    +0.000 OA
ATOM     15  H   UNL     1      48.748   2.168  19.147  0.00  0.00    +0.000 HD
ATOM     16  H   UNL     1      49.669   3.502  18.544  0.00  0.00    +0.000 HD
ENDBRANCH   4  13
ENDBRANCH   1   8
BRANCH   1  17
ATOM     17  C   UNL     1      46.960   7.481  12.287  0.00  0.00    +0.000 A 
ATOM     18  C   UNL     1      46.005   8.508  12.340  0.00  0.00    +0.000 A 
ATOM     19  C   UNL     1      44.746   8.356  11.764  0.00  0.00    +0.000 A 
ATOM     20  C   UNL     1      44.423   7.176  11.095  0.00  0.00    +0.000 A 
ATOM     21  C   UNL     1      45.343   6.119  11.001  0.00  0.00    +0.000 A 
ATOM     22  C   UNL     1      46.586   6.284  11.642  0.00  0.00    +0.000 A 
BRANCH  21  23
ATOM     23  C   UNL     1      45.068   4.929  10.176  0.00  0.00    +0.000 A 
ATOM     24  C   UNL     1      45.593   4.797   8.880  0.00  0.00    +0.000 A 
ATOM     25  C   UNL     1      45.387   3.635   8.139  0.00  0.00    +0.000 A 
ATOM     26  C   UNL     1      44.654   2.615   8.713  0.00  0.00    +0.000 A 
ATOM     27  N   UNL     1      44.117   2.689   9.950  0.00  0.00    +0.000 NA
ATOM     28  C   UNL     1      44.331   3.838  10.640  0.00  0.00    +0.000 A 
ENDBRANCH  21  23
ENDBRANCH   1  17
TORSDOF 4
ENDMDL
MODEL 5
REMARK VINA RESULT:    -6.259      2.651      6.610
REMARK INTER + INTRA:          -8.880
REMARK INTER:                  -8.286
REMARK INTRA:                  -0.594
REMARK UNBOUND:                -1.157
REMARK  Name = 
REMARK  4 active torsions:
REMARK  status: ('A' for Active; 'I' for Inactive)
REMARK    1  A    between atoms: C_2  and  C_4
REMARK    2  A    between atoms: N_8  and  C_9
REMARK    3  A    between atoms: C_9  and  C_10
REMARK    4  A    between atoms: C_14  and  C_15
REMARK                            x       y       z     vdW  Elec       q    Type
REMARK                         _______ _______ _______ _____ _____    ______ ____
ROOT
ATOM      1  C   UNL     1      44.100   5.531  11.365  0.00  0.00    +0.000 C 
ATOM      2  C   UNL     1      42.691   6.112  11.366  0.00  0.00    +0.000 C 
ATOM      3  C   UNL     1      43.316   5.682  12.653  0.00  0.00    +0.000 C 
ENDROOT
BRANCH   1   8
ATOM      4  C   UNL     1      48.647   7.466  12.986  0.00  0.00    +0.000 A 
ATOM      5  C   UNL     1      47.489   7.263  13.732  0.00  0.00    +0.000 A 
ATOM      6  C   UNL     1      46.310   6.890  13.076  0.00  0.00    +0.000 A 
ATOM      7  C   UNL     1      46.312   6.734  11.695  0.00  0.00    +0.000 A 
ATOM      8  N   UNL     1      45.154   6.479  10.952  0.00  0.00    +0.000 N 
ATOM      9  N   UNL     1      47.431   6.926  10.964  0.00  0.00    +0.000 NA
ATOM     10  C   UNL     1      48.567   7.288  11.615  0.00  0.00    +0.000 A 
ATOM     11  H   UNL     1      45.486   6.357   9.996  0.00  0.00    +0.000 HD
BRANCH   4  13
ATOM     12  N   UNL     1      49.984   8.011  14.944  0.00  0.00    +0.000 N 
ATOM     13  C   UNL     1      49.923   7.916  13.579  0.00  0.00    +0.000 C 
ATOM     14  O   UNL     1      50.900   8.162  12.886  0.00  0.00    +0.000 OA
ATOM     15  H   UNL     1      50.889   8.235  15.339  0.00  0.00    +0.000 HD
ATOM     16  H   UNL     1      49.298   7.591  15.554  0.00  0.00    +0.000 HD
ENDBRANCH   4  13
ENDBRANCH   1   8
BRANCH   1  17
ATOM     17  C   UNL     1      44.313   4.131  10.796  0.00  0.00    +0.000 A 
ATOM     18  C   UNL     1      43.528   3.040  11.201  0.00  0.00    +0.000 A 
ATOM     19  C   UNL     1      43.632   1.801  10.573  0.00  0.00    +0.000 A 
ATOM     20  C   UNL     1      44.509   1.635   9.501  0.00  0.00    +0.000 A 
ATOM     21  C   UNL     1      45.310   2.694   9.046  0.00  0.00    +0.000 A 
ATOM     22  C   UNL     1      45.221   3.917   9.740  0.00  0.00    +0.000 A 
BRANCH  21  23
ATOM     23  C   UNL     1      46.131   2.572   7.828  0.00  0.00    +0.000 A 
ATOM     24  C   UNL     1      46.155   3.585   6.855  0.00  0.00    +0.000 A 
ATOM     25  C   UNL     1      46.992   3.491   5.745  0.00  0.00    +0.000 A 
ATOM     26  C   UNL     1      47.797   2.375   5.626  0.00  0.00    +0.000 A 
ATOM     27  N   UNL     1      47.809   1.366   6.523  0.00  0.00    +0.000 NA
ATOM     28  C   UNL     1      46.976   1.487   7.588  0.00  0.00    +0.000 A 
ENDBRANCH  21  23
ENDBRANCH   1  17
TORSDOF 4
ENDMDL
MODEL 6
REMARK VINA RESULT:    -6.206      1.350      2.303
REMARK INTER + INTRA:          -8.814
REMARK INTER:                  -8.867
REMARK INTRA:                   0.052
REMARK UNBOUND:                -1.157
REMARK  Name = 
REMARK  4 active torsions:
REMARK  status: ('A' for Active; 'I' for Inactive)
REMARK    1  A    between atoms: C_2  and  C_4
REMARK    2  A    between atoms: N_8  and  C_9
REMARK    3  A    between atoms: C_9  and  C_10
REMARK    4  A    between atoms: C_14  and  C_15
REMARK                            x       y       z     vdW  Elec       q    Type
REMARK                         _______ _______ _______ _____ _____    ______ ____
ROOT
ATOM      1  C   UNL     1      44.069   4.158  11.798  0.00  0.00    +0.000 C 
ATOM      2  C   UNL     1      44.860   3.436  12.883  0.00  0.00    +0.000 C 
ATOM      3  C   UNL     1      43.421   3.767  13.111  0.00  0.00    +0.000 C 
ENDROOT
BRANCH   1   8
ATOM      4  C   UNL     1      46.515   3.051   7.344  0.00  0.00    +0.000 A 
ATOM      5  C   UNL     1      46.403   4.288   7.974  0.00  0.00    +0.000 A 
ATOM      6  C   UNL     1      45.558   4.416   9.082  0.00  0.00    +0.000 A 
ATOM      7  C   UNL     1      44.840   3.314   9.531  0.00  0.00    +0.000 A 
ATOM      8  N   UNL     1      43.888   3.385  10.554  0.00  0.00    +0.000 N 
ATOM      9  N   UNL     1      44.944   2.110   8.927  0.00  0.00    +0.000 NA
ATOM     10  C   UNL     1      45.769   2.002   7.853  0.00  0.00    +0.000 A 
ATOM     11  H   UNL     1      43.589   2.420  10.691  0.00  0.00    +0.000 HD
BRANCH   4  13
ATOM     12  N   UNL     1      48.659   2.533   6.319  0.00  0.00    +0.000 N 
ATOM     13  C   UNL     1      47.335   2.830   6.135  0.00  0.00    +0.000 C 
ATOM     14  O   UNL     1      46.849   2.876   5.014  0.00  0.00    +0.000 OA
ATOM     15  H   UNL     1      49.187   2.299   5.487  0.00  0.00    +0.000 HD
ATOM     16  H   UNL     1      49.039   2.247   7.210  0.00  0.00    +0.000 HD
ENDBRANCH   4  13
ENDBRANCH   1   8
BRANCH   1  17
ATOM     17  C   UNL     1      44.365   5.632  11.537  0.00  0.00    +0.000 A 
ATOM     18  C   UNL     1      43.352   6.540  11.190  0.00  0.00    +0.000 A 
ATOM     19  C   UNL     1      43.606   7.906  11.096  0.00  0.00    +0.000 A 
ATOM     20  C   UNL     1      44.880   8.399  11.376  0.00  0.00    +0.000 A 
ATOM     21  C   UNL     1      45.928   7.539  11.739  0.00  0.00    +0.000 A 
ATOM     22  C   UNL     1      45.651   6.158  11.770  0.00  0.00    +0.000 A 
BRANCH  21  23
ATOM     23  C   UNL     1      47.236   8.059  12.177  0.00  0.00    +0.000 A 
ATOM     24  C   UNL     1      47.474   9.438  12.301  0.00  0.00    +0.000 A 
ATOM     25  C   UNL     1      48.690   9.913  12.787  0.00  0.00    +0.000 A 
ATOM     26  C   UNL     1      49.656   8.993  13.144  0.00  0.00    +0.000 A 
ATOM     27  N   UNL     1      49.488   7.657  13.038  0.00  0.00    +0.000 NA
ATOM     28  C   UNL     1      48.295   7.230  12.554  0.00  0.00    +0.000 A 
ENDBRANCH  21  23
ENDBRANCH   1  17
TORSDOF 4
ENDMDL
MODEL 7
REMARK VINA RESULT:    -6.200      3.446      5.916
REMARK INTER + INTRA:          -8.806
REMARK INTER:                  -8.494
REMARK INTRA:                  -0.312
REMARK UNBOUND:                -1.157
REMARK  Name = 
REMARK  4 active torsions:
REMARK  status: ('A' for Active; 'I' for Inactive)
REMARK    1  A    between atoms: C_2  and  C_4
REMARK    2  A    between atoms: N_8  and  C_9
REMARK    3  A    between atoms: C_9  and  C_10
REMARK    4  A    between atoms: C_14  and  C_15
REMARK                            x       y       z     vdW  Elec       q    Type
REMARK                         _______ _______ _______ _____ _____    ______ ____
ROOT
ATOM      1  C   UNL     1      47.584   8.474  13.082  0.00  0.00    +0.000 C 
ATOM      2  C   UNL     1      47.772   9.897  12.568  0.00  0.00    +0.000 C 
ATOM      3  C   UNL     1      48.330   8.750  11.793  0.00  0.00    +0.000 C 
ENDROOT
BRANCH   1   8
ATOM      4  C   UNL     1      44.556   4.636  11.306  0.00  0.00    +0.000 A 
ATOM      5  C   UNL     1      45.536   5.343  10.614  0.00  0.00    +0.000 A 
ATOM      6  C   UNL     1      46.128   6.459  11.217  0.00  0.00    +0.000 A 
ATOM      7  C   UNL     1      45.726   6.847  12.489  0.00  0.00    +0.000 A 
ATOM      8  N   UNL     1      46.181   8.014  13.113  0.00  0.00    +0.000 N 
ATOM      9  N   UNL     1      44.779   6.166  13.170  0.00  0.00    +0.000 NA
ATOM     10  C   UNL     1      44.214   5.085  12.571  0.00  0.00    +0.000 A 
ATOM     11  H   UNL     1      45.762   7.986  14.042  0.00  0.00    +0.000 HD
BRANCH   4  13
ATOM     12  N   UNL     1      44.126   3.136   9.441  0.00  0.00    +0.000 N 
ATOM     13  C   UNL     1      43.834   3.482  10.733  0.00  0.00    +0.000 C 
ATOM     14  O   UNL     1      43.032   2.836  11.393  0.00  0.00    +0.000 OA
ATOM     15  H   UNL     1      43.689   2.291   9.092  0.00  0.00    +0.000 HD
ATOM     16  H   UNL     1      44.941   3.477   8.952  0.00  0.00    +0.000 HD
ENDBRANCH   4  13
ENDBRANCH   1   8
BRANCH   1  17
ATOM     17  C   UNL     1      48.376   8.029  14.308  0.00  0.00    +0.000 A 
ATOM     18  C   UNL     1      49.168   8.924  15.043  0.00  0.00    +0.000 A 
ATOM     19  C   UNL     1      49.769   8.544  16.240  0.00  0.00    +0.000 A 
ATOM     20  C   UNL     1      49.566   7.259  16.744  0.00  0.00    +0.000 A 
ATOM     21  C   UNL     1      48.774   6.326  16.058  0.00  0.00    +0.000 A 
ATOM     22  C   UNL     1      48.227   6.725  14.822  0.00  0.00    +0.000 A 
BRANCH  21  23
ATOM     23  C   UNL     1      48.434   5.019  16.649  0.00  0.00    +0.000 A 
ATOM     24  C   UNL     1      49.359   4.302  17.426  0.00  0.00    +0.000 A 
ATOM     25  C   UNL     1      49.001   3.104  18.040  0.00  0.00    +0.000 A 
ATOM     26  C   UNL     1      47.711   2.640  17.867  0.00  0.00    +0.000 A 
ATOM     27  N   UNL     1      46.783   3.281  17.125  0.00  0.00    +0.000 NA
ATOM     28  C   UNL     1      47.169   4.441  16.535  0.00  0.00    +0.000 A 
ENDBRANCH  21  23
ENDBRANCH   1  17
TORSDOF 4
ENDMDL
MODEL 8
REMARK VINA RESULT:    -6.131      3.662      6.636
REMARK INTER + INTRA:          -8.721
REMARK INTER:                  -7.660
REMARK INTRA:                  -1.061
REMARK UNBOUND:                -1.157
REMARK  Name = 
REMARK  4 active torsions:
REMARK  status: ('A' for Active; 'I' for Inactive)
REMARK    1  A    between atoms: C_2  and  C_4
REMARK    2  A    between atoms: N_8  and  C_9
REMARK    3  A    between atoms: C_9  and  C_10
REMARK    4  A    between atoms: C_14  and  C_15
REMARK                            x       y       z     vdW  Elec       q    Type
REMARK                         _______ _______ _______ _____ _____    ______ ____
ROOT
ATOM      1  C   UNL     1      49.250   8.476  12.902  0.00  0.00    +0.000 C 
ATOM      2  C   UNL     1      50.464   9.259  12.414  0.00  0.00    +0.000 C 
ATOM      3  C   UNL     1      50.383   7.788  12.167  0.00  0.00    +0.000 C 
ENDROOT
BRANCH   1   8
ATOM      4  C   UNL     1      44.650   6.443  11.577  0.00  0.00    +0.000 A 
ATOM      5  C   UNL     1      45.912   5.871  11.433  0.00  0.00    +0.000 A 
ATOM      6  C   UNL     1      47.047   6.648  11.693  0.00  0.00    +0.000 A 
ATOM      7  C   UNL     1      46.900   7.972  12.083  0.00  0.00    +0.000 A 
ATOM      8  N   UNL     1      47.979   8.847  12.248  0.00  0.00    +0.000 N 
ATOM      9  N   UNL     1      45.680   8.535  12.229  0.00  0.00    +0.000 NA
ATOM     10  C   UNL     1      44.588   7.768  11.973  0.00  0.00    +0.000 A 
ATOM     11  H   UNL     1      47.558   9.710  12.592  0.00  0.00    +0.000 HD
BRANCH   4  13
ATOM     12  N   UNL     1      42.236   6.235  11.786  0.00  0.00    +0.000 N 
ATOM     13  C   UNL     1      43.397   5.724  11.272  0.00  0.00    +0.000 C 
ATOM     14  O   UNL     1      43.387   4.729  10.560  0.00  0.00    +0.000 OA
ATOM     15  H   UNL     1      41.377   5.783  11.496  0.00  0.00    +0.000 HD
ATOM     16  H   UNL     1      42.167   7.169  12.163  0.00  0.00    +0.000 HD
ENDBRANCH   4  13
ENDBRANCH   1   8
BRANCH   1  17
ATOM     17  C   UNL     1      49.091   8.232  14.400  0.00  0.00    +0.000 A 
ATOM     18  C   UNL     1      48.873   9.284  15.302  0.00  0.00    +0.000 A 
ATOM     19  C   UNL     1      48.584   9.040  16.643  0.00  0.00    +0.000 A 
ATOM     20  C   UNL     1      48.480   7.728  17.105  0.00  0.00    +0.000 A 
ATOM     21  C   UNL     1      48.677   6.637  16.245  0.00  0.00    +0.000 A 
ATOM     22  C   UNL     1      49.022   6.919  14.908  0.00  0.00    +0.000 A 
BRANCH  21  23
ATOM     23  C   UNL     1      48.428   5.252  16.686  0.00  0.00    +0.000 A 
ATOM     24  C   UNL     1      49.416   4.502  17.345  0.00  0.00    +0.000 A 
ATOM     25  C   UNL     1      49.143   3.222  17.821  0.00  0.00    +0.000 A 
ATOM     26  C   UNL     1      47.875   2.709  17.630  0.00  0.00    +0.000 A 
ATOM     27  N   UNL     1      46.888   3.379  16.996  0.00  0.00    +0.000 NA
ATOM     28  C   UNL     1      47.191   4.620  16.538  0.00  0.00    +0.000 A 
ENDBRANCH  21  23
ENDBRANCH   1  17
TORSDOF 4
ENDMDL
