MODEL 1
REMARK VINA RESULT:    -7.811      0.000      0.000
REMARK INTER + INTRA:         -11.146
REMARK INTER:                 -10.550
REMARK INTRA:                  -0.596
REMARK UNBOUND:                -0.596
REMARK  Name = 
REMARK  6 active torsions:
REMARK  status: ('A' for Active; 'I' for Inactive)
REMARK    1  A    between atoms: C_5  and  C_6
REMARK    2  A    between atoms: C_6  and  C_7
REMARK    3  A    between atoms: C_7  and  C_8
REMARK    4  A    between atoms: C_8  and  C_9
REMARK    5  A    between atoms: C_13  and  O_14
REMARK    6  A    between atoms: O_14  and  C_15
REMARK                            x       y       z     vdW  Elec       q    Type
REMARK                         _______ _______ _______ _____ _____    ______ ____
ROOT
ATOM      1  C   UNL     1      45.370   4.031  12.279  0.00  0.00    +0.000 A 
ATOM      2  C   UNL     1      45.773   5.291  11.876  0.00  0.00    +0.000 A 
ATOM      3  C   UNL     1      46.782   5.871  12.610  0.00  0.00    +0.000 A 
ATOM      4  N   UNL     1      47.382   5.271  13.652  0.00  0.00    +0.000 NA
ATOM      5  C   UNL     1      46.928   4.046  13.954  0.00  0.00    +0.000 A 
ATOM      6  N   UNL     1      45.940   3.396  13.322  0.00  0.00    +0.000 NA
ENDROOT
BRANCH   1   7
ATOM      7  C   UNL     1      44.272   3.303  11.547  0.00  0.00    +0.000 C 
BRANCH   7   8
ATOM      8  C   UNL     1      44.362   3.448  10.025  0.00  0.00    +0.000 C 
BRANCH   8   9
ATOM      9  C   UNL     1      44.600   2.112   9.315  0.00  0.00    +0.000 C 
BRANCH   9  14
ATOM     10  C   UNL     1      47.056   3.453   6.747  0.00  0.00    +0.000 A 
ATOM     11  C   UNL     1      47.762   2.288   6.493  0.00  0.00    +0.000 A 
ATOM     12  N   UNL     1      47.503   1.107   7.096  0.00  0.00    +0.000 NA
ATOM     13  C   UNL     1      46.494   1.093   7.993  0.00  0.00    +0.000 A 
ATOM     14  C   UNL     1      45.726   2.207   8.324  0.00  0.00    +0.000 A 
ATOM     15  C   UNL     1      46.020   3.408   7.675  0.00  0.00    +0.000 A 
ENDBRANCH   9  14
ENDBRANCH   8   9
ENDBRANCH   7   8
ENDBRANCH   1   7
BRANCH   5  16
ATOM     16  O   UNL     1      47.515   3.354  14.994  0.00  0.00    +0.000 OA
BRANCH  16  17
ATOM     17  C   UNL     1      47.378   3.963  16.293  0.00  0.00    +0.000 C 
ATOM     18  C   UNL     1      48.675   4.514  16.940  0.00  0.00    +0.000 C 
ATOM     19  C   UNL     1      48.219   3.904  18.274  0.00  0.00    +0.000 C 
ATOM     20  C   UNL     1      47.305   2.962  17.473  0.00  0.00    +0.000 C 
ENDBRANCH  16  17
ENDBRANCH   5  16
TORSDOF 6
ENDMDL
MODEL 2
REMARK VINA RESULT:    -6.991      2.243      3.613
REMARK INTER + INTRA:         -10.039
REMARK INTER:                  -9.351
REMARK INTRA:                  -0.688
REMARK UNBOUND:                -0.596
REMARK  Name = 
REMARK  6 active torsions:
REMARK  status: ('A' for Active; 'I' for Inactive)
REMARK    1  A    between atoms: C_5  and  C_6
REMARK    2  A    between atoms: C_6  and  C_7
REMARK    3  A    between atoms: C_7  and  C_8
REMARK    4  A    between atoms: C_8  and  C_9
REMARK    5  A    between atoms: C_13  and  O_14
REMARK    6  A    between atoms: O_14  and  C_15
REMARK                            x       y       z     vdW  Elec       q    Type
REMARK                         _______ _______ _______ _____ _____    ______ ____
ROOT
ATOM      1  C   UNL     1      45.153   4.799  12.098  0.00  0.00    +0.000 A 
ATOM      2  C   UNL     1      45.717   3.655  12.631  0.00  0.00    +0.000 A 
ATOM      3  C   UNL     1      46.791   3.840  13.471  0.00  0.00    +0.000 A 
ATOM      4  N   UNL     1      47.279   5.049  13.797  0.00  0.00    +0.000 NA
ATOM      5  C   UNL     1      46.654   6.096  13.239  0.00  0.00    +0.000 A 
ATOM      6  N   UNL     1      45.615   6.030  12.393  0.00  0.00    +0.000 NA
ENDROOT
BRANCH   1   7
ATOM      7  C   UNL     1      43.972   4.714  11.165  0.00  0.00    +0.000 C 
BRANCH   7   8
ATOM      8  C   UNL     1      44.104   3.595  10.127  0.00  0.00    +0.000 C 
BRANCH   8   9
ATOM      9  C   UNL     1      44.624   4.097   8.777  0.00  0.00    +0.000 C 
BRANCH   9  14
ATOM     10  C   UNL     1      47.376   2.616   6.618  0.00  0.00    +0.000 A 
ATOM     11  C   UNL     1      47.349   1.316   7.095  0.00  0.00    +0.000 A 
ATOM     12  N   UNL     1      46.511   0.889   8.065  0.00  0.00    +0.000 NA
ATOM     13  C   UNL     1      45.664   1.805   8.580  0.00  0.00    +0.000 A 
ATOM     14  C   UNL     1      45.612   3.137   8.176  0.00  0.00    +0.000 A 
ATOM     15  C   UNL     1      46.490   3.538   7.167  0.00  0.00    +0.000 A 
ENDBRANCH   9  14
ENDBRANCH   8   9
ENDBRANCH   7   8
ENDBRANCH   1   7
BRANCH   5  16
ATOM     16  O   UNL     1      47.081   7.370  13.548  0.00  0.00    +0.000 OA
BRANCH  16  17
ATOM     17  C   UNL     1      47.514   8.164  12.426  0.00  0.00    +0.000 C 
ATOM     18  C   UNL     1      48.758   7.650  11.654  0.00  0.00    +0.000 C 
ATOM     19  C   UNL     1      49.274   9.096  11.607  0.00  0.00    +0.000 C 
ATOM     20  C   UNL     1      48.356   9.410  12.800  0.00  0.00    +0.000 C 
ENDBRANCH  16  17
ENDBRANCH   5  16
TORSDOF 6
ENDMDL
MODEL 3
REMARK VINA RESULT:    -6.905      2.418      7.332
REMARK INTER + INTRA:          -9.923
REMARK INTER:                  -9.116
REMARK INTRA:                  -0.807
REMARK UNBOUND:                -0.596
REMARK  Name = 
REMARK  6 active torsions:
REMARK  status: ('A' for Active; 'I' for Inactive)
REMARK    1  A    between atoms: C_5  and  C_6
REMARK    2  A    between atoms: C_6  and  C_7
REMARK    3  A    between atoms: C_7  and  C_8
REMARK    4  A    between atoms: C_8  and  C_9
REMARK    5  A    between atoms: C_13  and  O_14
REMARK    6  A    between atoms: O_14  and  C_15
REMARK                            x       y       z     vdW  Elec       q    Type
REMARK                         _______ _______ _______ _____ _____    ______ ____
ROOT
ATOM      1  C   UNL     1      44.465   5.118  11.014  0.00  0.00    +0.000 A 
ATOM      2  C   UNL     1      43.761   4.531  12.049  0.00  0.00    +0.000 A 
ATOM      3  C   UNL     1      43.355   3.232  11.849  0.00  0.00    +0.000 A 
ATOM      4  N   UNL     1      43.626   2.532  10.734  0.00  0.00    +0.000 NA
ATOM      5  C   UNL     1      44.325   3.187   9.795  0.00  0.00    +0.000 A 
ATOM      6  N   UNL     1      44.753   4.456   9.876  0.00  0.00    +0.000 NA
ENDROOT
BRANCH   1   7
ATOM      7  C   UNL     1      44.958   6.538  11.126  0.00  0.00    +0.000 C 
BRANCH   7   8
ATOM      8  C   UNL     1      45.674   6.826  12.449  0.00  0.00    +0.000 C 
BRANCH   8   9
ATOM      9  C   UNL     1      47.096   6.258  12.489  0.00  0.00    +0.000 C 
BRANCH   9  14
ATOM     10  C   UNL     1      47.112   4.080  15.601  0.00  0.00    +0.000 A 
ATOM     11  C   UNL     1      48.052   4.774  16.346  0.00  0.00    +0.000 A 
ATOM     12  N   UNL     1      48.681   5.888  15.912  0.00  0.00    +0.000 NA
ATOM     13  C   UNL     1      48.355   6.325  14.676  0.00  0.00    +0.000 A 
ATOM     14  C   UNL     1      47.429   5.700  13.844  0.00  0.00    +0.000 A 
ATOM     15  C   UNL     1      46.796   4.555  14.331  0.00  0.00    +0.000 A 
ENDBRANCH   9  14
ENDBRANCH   8   9
ENDBRANCH   7   8
ENDBRANCH   1   7
BRANCH   5  16
ATOM     16  O   UNL     1      44.667   2.525   8.634  0.00  0.00    +0.000 OA
BRANCH  16  17
ATOM     17  C   UNL     1      46.055   2.617   8.258  0.00  0.00    +0.000 C 
ATOM     18  C   UNL     1      46.358   3.254   6.876  0.00  0.00    +0.000 C 
ATOM     19  C   UNL     1      47.392   2.144   6.638  0.00  0.00    +0.000 C 
ATOM     20  C   UNL     1      46.664   1.305   7.702  0.00  0.00    +0.000 C 
ENDBRANCH  16  17
ENDBRANCH   5  16
TORSDOF 6
ENDMDL
MODEL 4
REMARK VINA RESULT:    -6.520      3.267      7.179
REMARK INTER + INTRA:          -9.402
REMARK INTER:                  -8.839
REMARK INTRA:                  -0.564
REMARK UNBOUND:                -0.596
REMARK  Name = 
REMARK  6 active torsions:
REMARK  status: ('A' for Active; 'I' for Inactive)
REMARK    1  A    between atoms: C_5  and  C_6
REMARK    2  A    between atoms: C_6  and  C_7
REMARK    3  A    between atoms: C_7  and  C_8
REMARK    4  A    between atoms: C_8  and  C_9
REMARK    5  A    between atoms: C_13  and  O_14
REMARK    6  A    between atoms: O_14  and  C_15
REMARK                            x       y       z     vdW  Elec       q    Type
REMARK                         _______ _______ _______ _____ _____    ______ ____
ROOT
ATOM      1  C   UNL     1      44.123   5.047  11.228  0.00  0.00    +0.000 A 
ATOM      2  C   UNL     1      43.598   4.236  12.217  0.00  0.00    +0.000 A 
ATOM      3  C   UNL     1      43.380   2.922  11.874  0.00  0.00    +0.000 A 
ATOM      4  N   UNL     1      43.666   2.413  10.664  0.00  0.00    +0.000 NA
ATOM      5  C   UNL     1      44.184   3.278   9.779  0.00  0.00    +0.000 A 
ATOM      6  N   UNL     1      44.419   4.580   9.999  0.00  0.00    +0.000 NA
ENDROOT
BRANCH   1   7
ATOM      7  C   UNL     1      44.402   6.504  11.495  0.00  0.00    +0.000 C 
BRANCH   7   8
ATOM      8  C   UNL     1      45.667   6.734  12.328  0.00  0.00    +0.000 C 
BRANCH   8   9
ATOM      9  C   UNL     1      46.939   6.776  11.475  0.00  0.00    +0.000 C 
BRANCH   9  14
ATOM     10  C   UNL     1      50.221   8.348  12.562  0.00  0.00    +0.000 A 
ATOM     11  C   UNL     1      50.321   7.788  13.825  0.00  0.00    +0.000 A 
ATOM     12  N   UNL     1      49.403   6.946  14.349  0.00  0.00    +0.000 NA
ATOM     13  C   UNL     1      48.338   6.654  13.572  0.00  0.00    +0.000 A 
ATOM     14  C   UNL     1      48.138   7.165  12.292  0.00  0.00    +0.000 A 
ATOM     15  C   UNL     1      49.112   8.027  11.784  0.00  0.00    +0.000 A 
ENDBRANCH   9  14
ENDBRANCH   8   9
ENDBRANCH   7   8
ENDBRANCH   1   7
BRANCH   5  16
ATOM     16  O   UNL     1      44.531   2.822   8.524  0.00  0.00    +0.000 OA
BRANCH  16  17
ATOM     17  C   UNL     1      45.940   2.861   8.223  0.00  0.00    +0.000 C 
ATOM     18  C   UNL     1      46.331   3.347   6.803  0.00  0.00    +0.000 C 
ATOM     19  C   UNL     1      47.359   2.209   6.741  0.00  0.00    +0.000 C 
ATOM     20  C   UNL     1      46.558   1.493   7.841  0.00  0.00    +0.000 C 
ENDBRANCH  16  17
ENDBRANCH   5  16
TORSDOF 6
ENDMDL
MODEL 5
REMARK VINA RESULT:    -6.206      2.208      7.498
REMARK INTER + INTRA:          -8.979
REMARK INTER:                  -8.529
REMARK INTRA:                  -0.450
REMARK UNBOUND:                -0.596
REMARK  Name = 
REMARK  6 active torsions:
REMARK  status: ('A' for Active; 'I' for Inactive)
REMARK    1  A    between atoms: C_5  and  C_6
REMARK    2  A    between atoms: C_6  and  C_7
REMARK    3  A    between atoms: C_7  and  C_8
REMARK    4  A    between atoms: C_8  and  C_9
REMARK    5  A    between atoms: C_13  and  O_14
REMARK    6  A    between atoms: O_14  and  C_15
REMARK                            x       y       z     vdW  Elec       q    Type
REMARK                         _______ _______ _______ _____ _____    ______ ____
ROOT
ATOM      1  C   UNL     1      44.888   5.651  12.205  0.00  0.00    +0.000 A 
ATOM      2  C   UNL     1      43.539   5.918  12.348  0.00  0.00    +0.000 A 
ATOM      3  C   UNL     1      42.675   5.015  11.771  0.00  0.00    +0.000 A 
ATOM      4  N   UNL     1      43.080   3.914  11.115  0.00  0.00    +0.000 NA
ATOM      5  C   UNL     1      44.408   3.739  11.043  0.00  0.00    +0.000 A 
ATOM      6  N   UNL     1      45.338   4.563  11.549  0.00  0.00    +0.000 NA
ENDROOT
BRANCH   1   7
ATOM      7  C   UNL     1      45.922   6.574  12.796  0.00  0.00    +0.000 C 
BRANCH   7   8
ATOM      8  C   UNL     1      47.265   5.885  13.060  0.00  0.00    +0.000 C 
BRANCH   8   9
ATOM      9  C   UNL     1      47.996   6.457  14.278  0.00  0.00    +0.000 C 
BRANCH   9  14
ATOM     10  C   UNL     1      48.700   4.807  17.626  0.00  0.00    +0.000 A 
ATOM     11  C   UNL     1      47.889   3.691  17.491  0.00  0.00    +0.000 A 
ATOM     12  N   UNL     1      47.131   3.440  16.402  0.00  0.00    +0.000 NA
ATOM     13  C   UNL     1      47.187   4.347  15.403  0.00  0.00    +0.000 A 
ATOM     14  C   UNL     1      47.963   5.503  15.438  0.00  0.00    +0.000 A 
ATOM     15  C   UNL     1      48.737   5.724  16.580  0.00  0.00    +0.000 A 
ENDBRANCH   9  14
ENDBRANCH   8   9
ENDBRANCH   7   8
ENDBRANCH   1   7
BRANCH   5  16
ATOM     16  O   UNL     1      44.900   2.616  10.410  0.00  0.00    +0.000 OA
BRANCH  16  17
ATOM     17  C   UNL     1      44.846   2.648   8.970  0.00  0.00    +0.000 C 
ATOM     18  C   UNL     1      46.029   1.985   8.218  0.00  0.00    +0.000 C 
ATOM     19  C   UNL     1      46.033   3.181   7.255  0.00  0.00    +0.000 C 
ATOM     20  C   UNL     1      45.291   3.988   8.334  0.00  0.00    +0.000 C 
ENDBRANCH  16  17
ENDBRANCH   5  16
TORSDOF 6
ENDMDL
MODEL 6
REMARK VINA RESULT:    -6.112      3.848      7.921
REMARK INTER + INTRA:          -8.851
REMARK INTER:                  -8.288
REMARK INTRA:                  -0.564
REMARK UNBOUND:                -0.596
REMARK  Name = 
REMARK  6 active torsions:
REMARK  status: ('A' for Active; 'I' for Inactive)
REMARK    1  A    between atoms: C_5  and  C_6
REMARK    2  A    between atoms: C_6  and  C_7
REMARK    3  A    between atoms: C_7  and  C_8
REMARK    4  A    between atoms: C_8  and  C_9
REMARK    5  A    between atoms: C_13  and  O_14
REMARK    6  A    between atoms: O_14  and  C_15
REMARK                            x       y       z     vdW  Elec       q    Type
REMARK                         _______ _______ _______ _____ _____    ______ ____
ROOT
ATOM      1  C   UNL     1      45.485   5.231  10.304  0.00  0.00    +0.000 A 
ATOM      2  C   UNL     1      44.792   4.428  11.190  0.00  0.00    +0.000 A 
ATOM      3  C   UNL     1      44.227   3.289  10.666  0.00  0.00    +0.000 A 
ATOM      4  N   UNL     1      44.337   2.932   9.375  0.00  0.00    +0.000 NA
ATOM      5  C   UNL     1      45.040   3.771   8.600  0.00  0.00    +0.000 A 
ATOM      6  N   UNL     1      45.615   4.914   9.000  0.00  0.00    +0.000 NA
ENDROOT
BRANCH   1   7
ATOM      7  C   UNL     1      46.144   6.504  10.770  0.00  0.00    +0.000 C 
BRANCH   7   8
ATOM      8  C   UNL     1      46.273   6.592  12.294  0.00  0.00    +0.000 C 
BRANCH   8   9
ATOM      9  C   UNL     1      45.342   7.642  12.908  0.00  0.00    +0.000 C 
BRANCH   9  14
ATOM     10  C   UNL     1      44.657  10.744  10.825  0.00  0.00    +0.000 A 
ATOM     11  C   UNL     1      45.870  11.391  10.995  0.00  0.00    +0.000 A 
ATOM     12  N   UNL     1      46.887  10.898  11.737  0.00  0.00    +0.000 NA
ATOM     13  C   UNL     1      46.678   9.706  12.335  0.00  0.00    +0.000 A 
ATOM     14  C   UNL     1      45.496   8.976  12.234  0.00  0.00    +0.000 A 
ATOM     15  C   UNL     1      44.471   9.516  11.454  0.00  0.00    +0.000 A 
ENDBRANCH   9  14
ENDBRANCH   8   9
ENDBRANCH   7   8
ENDBRANCH   1   7
BRANCH   5  16
ATOM     16  O   UNL     1      45.221   3.457   7.269  0.00  0.00    +0.000 OA
BRANCH  16  17
ATOM     17  C   UNL     1      46.594   3.347   6.843  0.00  0.00    +0.000 C 
ATOM     18  C   UNL     1      46.831   2.933   5.367  0.00  0.00    +0.000 C 
ATOM     19  C   UNL     1      47.944   1.993   5.853  0.00  0.00    +0.000 C 
ATOM     20  C   UNL     1      47.294   2.025   7.247  0.00  0.00    +0.000 C 
ENDBRANCH  16  17
ENDBRANCH   5  16
TORSDOF 6
ENDMDL
MODEL 7
REMARK VINA RESULT:    -5.972      3.016      7.128
REMARK INTER + INTRA:          -8.662
REMARK INTER:                  -8.268
REMARK INTRA:                  -0.395
REMARK UNBOUND:                -0.596
REMARK  Name = 
REMARK  6 active torsions:
REMARK  status: ('A' for Active; 'I' for Inactive)
REMARK    1  A    between atoms: C_5  and  C_6
REMARK    2  A    between atoms: C_6  and  C_7
REMARK    3  A    between atoms: C_7  and  C_8
REMARK    4  A    between atoms: C_8  and  C_9
REMARK    5  A    between atoms: C_13  and  O_14
REMARK    6  A    between atoms: O_14  and  C_15
REMARK                            x       y       z     vdW  Elec       q    Type
REMARK                         _______ _______ _______ _____ _____    ______ ____
ROOT
ATOM      1  C   UNL     1      44.992   4.691  12.773  0.00  0.00    +0.000 A 
ATOM      2  C   UNL     1      43.745   5.279  12.875  0.00  0.00    +0.000 A 
ATOM      3  C   UNL     1      42.805   4.876  11.954  0.00  0.00    +0.000 A 
ATOM      4  N   UNL     1      43.042   3.952  11.007  0.00  0.00    +0.000 NA
ATOM      5  C   UNL     1      44.278   3.433  11.001  0.00  0.00    +0.000 A 
ATOM      6  N   UNL     1      45.274   3.766  11.835  0.00  0.00    +0.000 NA
ENDROOT
BRANCH   1   7
ATOM      7  C   UNL     1      46.097   5.058  13.731  0.00  0.00    +0.000 C 
BRANCH   7   8
ATOM      8  C   UNL     1      47.192   5.915  13.088  0.00  0.00    +0.000 C 
BRANCH   8   9
ATOM      9  C   UNL     1      48.104   6.584  14.121  0.00  0.00    +0.000 C 
BRANCH   9  14
ATOM     10  C   UNL     1      50.456   8.007  11.500  0.00  0.00    +0.000 A 
ATOM     11  C   UNL     1      51.432   8.518  12.340  0.00  0.00    +0.000 A 
ATOM     12  N   UNL     1      51.379   8.440  13.688  0.00  0.00    +0.000 NA
ATOM     13  C   UNL     1      50.301   7.823  14.217  0.00  0.00    +0.000 A 
ATOM     14  C   UNL     1      49.263   7.279  13.464  0.00  0.00    +0.000 A 
ATOM     15  C   UNL     1      49.357   7.375  12.074  0.00  0.00    +0.000 A 
ENDBRANCH   9  14
ENDBRANCH   8   9
ENDBRANCH   7   8
ENDBRANCH   1   7
BRANCH   5  16
ATOM     16  O   UNL     1      44.588   2.458  10.075  0.00  0.00    +0.000 OA
BRANCH  16  17
ATOM     17  C   UNL     1      44.818   2.932   8.734  0.00  0.00    +0.000 C 
ATOM     18  C   UNL     1      46.019   2.309   7.975  0.00  0.00    +0.000 C 
ATOM     19  C   UNL     1      46.378   3.715   7.473  0.00  0.00    +0.000 C 
ATOM     20  C   UNL     1      45.563   4.288   8.645  0.00  0.00    +0.000 C 
ENDBRANCH  16  17
ENDBRANCH   5  16
TORSDOF 6
ENDMDL
MODEL 8
REMARK VINA RESULT:    -5.714      2.121      3.584
REMARK INTER + INTRA:          -8.315
REMARK INTER:                  -7.877
REMARK INTRA:                  -0.437
REMARK UNBOUND:                -0.596
REMARK  Name = 
REMARK  6 active torsions:
REMARK  status: ('A' for Active; 'I' for Inactive)
REMARK    1  A    between atoms: C_5  and  C_6
REMARK    2  A    between atoms: C_6  and  C_7
REMARK    3  A    between atoms: C_7  and  C_8
REMARK    4  A    between atoms: C_8  and  C_9
REMARK    5  A    between atoms: C_13  and  O_14
REMARK    6  A    between atoms: O_14  and  C_15
REMARK                            x       y       z     vdW  Elec       q    Type
REMARK                         _______ _______ _______ _____ _____    ______ ____
ROOT
ATOM      1  C   UNL     1      47.984   7.271  13.537  0.00  0.00    +0.000 A 
ATOM      2  C   UNL     1      48.033   8.577  13.989  0.00  0.00    +0.000 A 
ATOM      3  C   UNL     1      48.477   8.759  15.278  0.00  0.00    +0.000 A 
ATOM      4  N   UNL     1      48.871   7.752  16.077  0.00  0.00    +0.000 NA
ATOM      5  C   UNL     1      48.799   6.525  15.541  0.00  0.00    +0.000 A 
ATOM      6  N   UNL     1      48.363   6.231  14.307  0.00  0.00    +0.000 NA
ENDROOT
BRANCH   1   7
ATOM      7  C   UNL     1      47.512   6.955  12.141  0.00  0.00    +0.000 C 
BRANCH   7   8
ATOM      8  C   UNL     1      46.262   6.071  12.112  0.00  0.00    +0.000 C 
BRANCH   8   9
ATOM      9  C   UNL     1      45.468   6.210  10.810  0.00  0.00    +0.000 C 
BRANCH   9  14
ATOM     10  C   UNL     1      45.143   3.342   8.341  0.00  0.00    +0.000 A 
ATOM     11  C   UNL     1      44.524   2.416   9.165  0.00  0.00    +0.000 A 
ATOM     12  N   UNL     1      44.211   2.652  10.458  0.00  0.00    +0.000 NA
ATOM     13  C   UNL     1      44.534   3.869  10.946  0.00  0.00    +0.000 A 
ATOM     14  C   UNL     1      45.161   4.868  10.207  0.00  0.00    +0.000 A 
ATOM     15  C   UNL     1      45.463   4.588   8.872  0.00  0.00    +0.000 A 
ENDBRANCH   9  14
ENDBRANCH   8   9
ENDBRANCH   7   8
ENDBRANCH   1   7
BRANCH   5  16
ATOM     16  O   UNL     1      49.213   5.444  16.291  0.00  0.00    +0.000 OA
BRANCH  16  17
ATOM     17  C   UNL     1      48.178   4.792  17.055  0.00  0.00    +0.000 C 
ATOM     18  C   UNL     1      48.649   3.802  18.153  0.00  0.00    +0.000 C 
ATOM     19  C   UNL     1      47.543   2.838  17.698  0.00  0.00    +0.000 C 
ATOM     20  C   UNL     1      47.519   3.580  16.351  0.00  0.00    +0.000 C 
ENDBRANCH  16  17
ENDBRANCH   5  16
TORSDOF 6
ENDMDL
MODEL 9
REMARK VINA RESULT:    -5.514      2.980      8.208
REMARK INTER + INTRA:          -8.044
REMARK INTER:                  -7.553
REMARK INTRA:                  -0.491
REMARK UNBOUND:                -0.596
REMARK  Name = 
REMARK  6 active torsions:
REMARK  status: ('A' for Active; 'I' for Inactive)
REMARK    1  A    between atoms: C_5  and  C_6
REMARK    2  A    between atoms: C_6  and  C_7
REMARK    3  A    between atoms: C_7  and  C_8
REMARK    4  A    between atoms: C_8  and  C_9
REMARK    5  A    between atoms: C_13  and  O_14
REMARK    6  A    between atoms: O_14  and  C_15
REMARK                            x       y       z     vdW  Elec       q    Type
REMARK                         _______ _______ _______ _____ _____    ______ ____
ROOT
ATOM      1  C   UNL     1      45.570   6.007  11.038  0.00  0.00    +0.000 A 
ATOM      2  C   UNL     1      44.415   6.105  11.792  0.00  0.00    +0.000 A 
ATOM      3  C   UNL     1      43.329   5.394  11.337  0.00  0.00    +0.000 A 
ATOM      4  N   UNL     1      43.355   4.620  10.238  0.00  0.00    +0.000 NA
ATOM      5  C   UNL     1      44.526   4.582   9.585  0.00  0.00    +0.000 A 
ATOM      6  N   UNL     1      45.638   5.249   9.926  0.00  0.00    +0.000 NA
ENDROOT
BRANCH   1   7
ATOM      7  C   UNL     1      46.819   6.745  11.445  0.00  0.00    +0.000 C 
BRANCH   7   8
ATOM      8  C   UNL     1      46.964   6.896  12.962  0.00  0.00    +0.000 C 
BRANCH   8   9
ATOM      9  C   UNL     1      48.270   7.587  13.367  0.00  0.00    +0.000 C 
BRANCH   9  14
ATOM     10  C   UNL     1      48.798   6.289  16.898  0.00  0.00    +0.000 A 
ATOM     11  C   UNL     1      48.827   7.500  17.571  0.00  0.00    +0.000 A 
ATOM     12  N   UNL     1      48.695   8.700  16.965  0.00  0.00    +0.000 NA
ATOM     13  C   UNL     1      48.526   8.686  15.625  0.00  0.00    +0.000 A 
ATOM     14  C   UNL     1      48.486   7.528  14.853  0.00  0.00    +0.000 A 
ATOM     15  C   UNL     1      48.621   6.307  15.517  0.00  0.00    +0.000 A 
ENDBRANCH   9  14
ENDBRANCH   8   9
ENDBRANCH   7   8
ENDBRANCH   1   7
BRANCH   5  16
ATOM     16  O   UNL     1      44.639   3.787   8.463  0.00  0.00    +0.000 OA
BRANCH  16  17
ATOM     17  C   UNL     1      45.971   3.321   8.170  0.00  0.00    +0.000 C 
ATOM     18  C   UNL     1      46.377   3.278   6.674  0.00  0.00    +0.000 C 
ATOM     19  C   UNL     1      47.022   1.909   6.931  0.00  0.00    +0.000 C 
ATOM     20  C   UNL     1      46.134   1.780   8.180  0.00  0.00    +0.000 C 
ENDBRANCH  16  17
ENDBRANCH   5  16
TORSDOF 6
ENDMDL
