MODEL 1
REMARK VINA RESULT:    -8.646      0.000      0.000
REMARK INTER + INTRA:         -11.941
REMARK INTER:                 -11.173
REMARK INTRA:                  -0.768
REMARK UNBOUND:                -0.768
REMARK  Name = 
REMARK  5 active torsions:
REMARK  status: ('A' for Active; 'I' for Inactive)
REMARK    1  A    between atoms: C_2  and  C_18
REMARK    2  A    between atoms: N_3  and  C_4
REMARK    3  A    between atoms: C_4  and  C_5
REMARK    4  A    between atoms: C_8  and  C_9
REMARK    5  A    between atoms: C_9  and  C_10
REMARK                            x       y       z     vdW  Elec       q    Type
REMARK                         _______ _______ _______ _____ _____    ______ ____
ROOT
ATOM      1  O   UNL     1      48.237   7.280  12.648  0.00  0.00    +0.000 OA
ATOM      2  C   UNL     1      47.612   6.893  13.632  0.00  0.00    +0.000 C 
ATOM      3  N   UNL     1      46.245   6.788  13.643  0.00  0.00    +0.000 N 
ATOM      4  H   UNL     1      45.764   6.634  14.520  0.00  0.00    +0.000 HD
ENDROOT
BRANCH   2   5
ATOM      5  C   UNL     1      48.303   6.454  14.852  0.00  0.00    +0.000 A 
ATOM      6  C   UNL     1      49.339   7.221  15.369  0.00  0.00    +0.000 A 
ATOM      7  S   UNL     1      50.045   6.559  16.773  0.00  0.00    +0.000 S 
ATOM      8  C   UNL     1      48.963   5.246  16.765  0.00  0.00    +0.000 A 
ATOM      9  N   UNL     1      49.008   4.298  17.740  0.00  0.00    +0.000 NA
ATOM     10  C   UNL     1      48.108   3.379  17.632  0.00  0.00    +0.000 A 
ATOM     11  N   UNL     1      47.174   3.314  16.631  0.00  0.00    +0.000 N 
ATOM     12  C   UNL     1      47.138   4.207  15.587  0.00  0.00    +0.000 A 
ATOM     13  O   UNL     1      46.373   4.043  14.642  0.00  0.00    +0.000 OA
ATOM     14  C   UNL     1      48.096   5.294  15.688  0.00  0.00    +0.000 A 
ATOM     15  H   UNL     1      46.516   2.551  16.587  0.00  0.00    +0.000 HD
ENDBRANCH   2   5
BRANCH   3  16
ATOM     16  C   UNL     1      45.421   7.182  12.529  0.00  0.00    +0.000 C 
BRANCH  16  17
ATOM     17  C   UNL     1      45.222   6.050  11.557  0.00  0.00    +0.000 A 
ATOM     18  C   UNL     1      44.378   4.984  11.885  0.00  0.00    +0.000 A 
ATOM     19  C   UNL     1      44.164   3.941  10.982  0.00  0.00    +0.000 A 
ATOM     20  C   UNL     1      44.806   3.933   9.737  0.00  0.00    +0.000 A 
ATOM     21  C   UNL     1      45.669   4.990   9.415  0.00  0.00    +0.000 A 
ATOM     22  C   UNL     1      45.886   6.032  10.323  0.00  0.00    +0.000 A 
BRANCH  20  23
ATOM     23  C   UNL     1      44.583   2.795   8.769  0.00  0.00    +0.000 C 
BRANCH  23  24
ATOM     24  C   UNL     1      45.729   2.516   7.833  0.00  0.00    +0.000 A 
ATOM     25  C   UNL     1      46.033   3.368   6.767  0.00  0.00    +0.000 A 
ATOM     26  C   UNL     1      47.053   3.032   5.881  0.00  0.00    +0.000 A 
ATOM     27  C   UNL     1      47.749   1.855   6.097  0.00  0.00    +0.000 A 
ATOM     28  N   UNL     1      47.507   1.020   7.129  0.00  0.00    +0.000 NA
ATOM     29  C   UNL     1      46.509   1.372   7.973  0.00  0.00    +0.000 A 
ENDBRANCH  23  24
ENDBRANCH  20  23
ENDBRANCH  16  17
ENDBRANCH   3  16
TORSDOF 5
ENDMDL
MODEL 2
REMARK VINA RESULT:    -8.248      1.590      2.145
REMARK INTER + INTRA:         -11.427
REMARK INTER:                 -10.655
REMARK INTRA:                  -0.772
REMARK UNBOUND:                -0.768
REMARK  Name = 
REMARK  5 active torsions:
REMARK  status: ('A' for Active; 'I' for Inactive)
REMARK    1  A    between atoms: C_2  and  C_18
REMARK    2  A    between atoms: N_3  and  C_4
REMARK    3  A    between atoms: C_4  and  C_5
REMARK    4  A    between atoms: C_8  and  C_9
REMARK    5  A    between atoms: C_9  and  C_10
REMARK                            x       y       z     vdW  Elec       q    Type
REMARK                         _______ _______ _______ _____ _____    ______ ____
ROOT
ATOM      1  O   UNL     1      48.600   6.225  13.931  0.00  0.00    +0.000 OA
ATOM      2  C   UNL     1      47.649   5.758  14.552  0.00  0.00    +0.000 C 
ATOM      3  N   UNL     1      46.357   5.853  14.104  0.00  0.00    +0.000 N 
ATOM      4  H   UNL     1      45.595   5.611  14.724  0.00  0.00    +0.000 HD
ENDROOT
BRANCH   2   5
ATOM      5  C   UNL     1      47.846   5.005  15.799  0.00  0.00    +0.000 A 
ATOM      6  C   UNL     1      47.481   3.666  15.858  0.00  0.00    +0.000 A 
ATOM      7  S   UNL     1      47.757   2.949  17.380  0.00  0.00    +0.000 S 
ATOM      8  C   UNL     1      48.414   4.389  18.002  0.00  0.00    +0.000 A 
ATOM      9  N   UNL     1      48.884   4.450  19.277  0.00  0.00    +0.000 NA
ATOM     10  C   UNL     1      49.387   5.592  19.607  0.00  0.00    +0.000 A 
ATOM     11  N   UNL     1      49.453   6.685  18.781  0.00  0.00    +0.000 N 
ATOM     12  C   UNL     1      48.925   6.691  17.512  0.00  0.00    +0.000 A 
ATOM     13  O   UNL     1      48.884   7.724  16.851  0.00  0.00    +0.000 OA
ATOM     14  C   UNL     1      48.394   5.413  17.071  0.00  0.00    +0.000 A 
ATOM     15  H   UNL     1      49.832   7.559  19.111  0.00  0.00    +0.000 HD
ENDBRANCH   2   5
BRANCH   3  16
ATOM     16  C   UNL     1      45.996   6.562  12.903  0.00  0.00    +0.000 C 
BRANCH  16  17
ATOM     17  C   UNL     1      45.685   5.617  11.772  0.00  0.00    +0.000 A 
ATOM     18  C   UNL     1      45.140   4.357  12.041  0.00  0.00    +0.000 A 
ATOM     19  C   UNL     1      44.822   3.482  11.000  0.00  0.00    +0.000 A 
ATOM     20  C   UNL     1      45.062   3.842   9.668  0.00  0.00    +0.000 A 
ATOM     21  C   UNL     1      45.629   5.095   9.399  0.00  0.00    +0.000 A 
ATOM     22  C   UNL     1      45.951   5.970  10.443  0.00  0.00    +0.000 A 
BRANCH  20  23
ATOM     23  C   UNL     1      44.731   2.886   8.547  0.00  0.00    +0.000 C 
BRANCH  23  24
ATOM     24  C   UNL     1      45.872   2.570   7.615  0.00  0.00    +0.000 A 
ATOM     25  C   UNL     1      46.119   3.333   6.470  0.00  0.00    +0.000 A 
ATOM     26  C   UNL     1      47.138   2.960   5.597  0.00  0.00    +0.000 A 
ATOM     27  C   UNL     1      47.889   1.838   5.905  0.00  0.00    +0.000 A 
ATOM     28  N   UNL     1      47.701   1.092   7.013  0.00  0.00    +0.000 NA
ATOM     29  C   UNL     1      46.704   1.478   7.843  0.00  0.00    +0.000 A 
ENDBRANCH  23  24
ENDBRANCH  20  23
ENDBRANCH  16  17
ENDBRANCH   3  16
TORSDOF 5
ENDMDL
MODEL 3
REMARK VINA RESULT:    -8.237      0.818      1.451
REMARK INTER + INTRA:         -11.412
REMARK INTER:                 -10.972
REMARK INTRA:                  -0.439
REMARK UNBOUND:                -0.768
REMARK  Name = 
REMARK  5 active torsions:
REMARK  status: ('A' for Active; 'I' for Inactive)
REMARK    1  A    between atoms: C_2  and  C_18
REMARK    2  A    between atoms: N_3  and  C_4
REMARK    3  A    between atoms: C_4  and  C_5
REMARK    4  A    between atoms: C_8  and  C_9
REMARK    5  A    between atoms: C_9  and  C_10
REMARK                            x       y       z     vdW  Elec       q    Type
REMARK                         _______ _______ _______ _____ _____    ______ ____
ROOT
ATOM      1  O   UNL     1      48.712   6.350  12.960  0.00  0.00    +0.000 OA
ATOM      2  C   UNL     1      48.036   6.580  13.959  0.00  0.00    +0.000 C 
ATOM      3  N   UNL     1      46.784   7.133  13.890  0.00  0.00    +0.000 N 
ATOM      4  H   UNL     1      46.338   7.464  14.736  0.00  0.00    +0.000 HD
ENDROOT
BRANCH   2   5
ATOM      5  C   UNL     1      48.509   6.216  15.301  0.00  0.00    +0.000 A 
ATOM      6  C   UNL     1      49.426   7.031  15.952  0.00  0.00    +0.000 A 
ATOM      7  S   UNL     1      49.884   6.454  17.489  0.00  0.00    +0.000 S 
ATOM      8  C   UNL     1      48.840   5.117  17.360  0.00  0.00    +0.000 A 
ATOM      9  N   UNL     1      48.726   4.218  18.375  0.00  0.00    +0.000 NA
ATOM     10  C   UNL     1      47.873   3.274  18.159  0.00  0.00    +0.000 A 
ATOM     11  N   UNL     1      47.130   3.140  17.014  0.00  0.00    +0.000 N 
ATOM     12  C   UNL     1      47.265   3.981  15.936  0.00  0.00    +0.000 A 
ATOM     13  O   UNL     1      46.681   3.754  14.881  0.00  0.00    +0.000 OA
ATOM     14  C   UNL     1      48.174   5.093  16.147  0.00  0.00    +0.000 A 
ATOM     15  H   UNL     1      46.501   2.360  16.895  0.00  0.00    +0.000 HD
ENDBRANCH   2   5
BRANCH   3  16
ATOM     16  C   UNL     1      46.179   7.550  12.651  0.00  0.00    +0.000 C 
BRANCH  16  17
ATOM     17  C   UNL     1      45.720   6.373  11.833  0.00  0.00    +0.000 A 
ATOM     18  C   UNL     1      46.049   6.292  10.475  0.00  0.00    +0.000 A 
ATOM     19  C   UNL     1      45.652   5.192   9.711  0.00  0.00    +0.000 A 
ATOM     20  C   UNL     1      44.902   4.158  10.285  0.00  0.00    +0.000 A 
ATOM     21  C   UNL     1      44.553   4.249  11.640  0.00  0.00    +0.000 A 
ATOM     22  C   UNL     1      44.947   5.353  12.404  0.00  0.00    +0.000 A 
BRANCH  20  23
ATOM     23  C   UNL     1      44.462   2.978   9.451  0.00  0.00    +0.000 C 
BRANCH  23  24
ATOM     24  C   UNL     1      45.407   2.587   8.346  0.00  0.00    +0.000 A 
ATOM     25  C   UNL     1      46.114   1.381   8.375  0.00  0.00    +0.000 A 
ATOM     26  C   UNL     1      47.034   1.093   7.369  0.00  0.00    +0.000 A 
ATOM     27  C   UNL     1      47.209   2.020   6.355  0.00  0.00    +0.000 A 
ATOM     28  N   UNL     1      46.526   3.180   6.274  0.00  0.00    +0.000 NA
ATOM     29  C   UNL     1      45.640   3.433   7.265  0.00  0.00    +0.000 A 
ENDBRANCH  23  24
ENDBRANCH  20  23
ENDBRANCH  16  17
ENDBRANCH   3  16
TORSDOF 5
ENDMDL
MODEL 4
REMARK VINA RESULT:    -7.857      1.726      3.249
REMARK INTER + INTRA:         -10.921
REMARK INTER:                 -10.096
REMARK INTRA:                  -0.826
REMARK UNBOUND:                -0.768
REMARK  Name = 
REMARK  5 active torsions:
REMARK  status: ('A' for Active; 'I' for Inactive)
REMARK    1  A    between atoms: C_2  and  C_18
REMARK    2  A    between atoms: N_3  and  C_4
REMARK    3  A    between atoms: C_4  and  C_5
REMARK    4  A    between atoms: C_8  and  C_9
REMARK    5  A    between atoms: C_9  and  C_10
REMARK                            x       y       z     vdW  Elec       q    Type
REMARK                         _______ _______ _______ _____ _____    ______ ____
ROOT
ATOM      1  O   UNL     1      47.274   4.019  14.680  0.00  0.00    +0.000 OA
ATOM      2  C   UNL     1      47.166   5.194  14.340  0.00  0.00    +0.000 C 
ATOM      3  N   UNL     1      46.005   5.709  13.826  0.00  0.00    +0.000 N 
ATOM      4  H   UNL     1      46.012   6.627  13.400  0.00  0.00    +0.000 HD
ENDROOT
BRANCH   2   5
ATOM      5  C   UNL     1      48.269   6.147  14.525  0.00  0.00    +0.000 A 
ATOM      6  C   UNL     1      48.887   6.253  15.764  0.00  0.00    +0.000 A 
ATOM      7  S   UNL     1      50.131   7.417  15.812  0.00  0.00    +0.000 S 
ATOM      8  C   UNL     1      49.919   7.791  14.166  0.00  0.00    +0.000 A 
ATOM      9  N   UNL     1      50.708   8.714  13.551  0.00  0.00    +0.000 NA
ATOM     10  C   UNL     1      50.463   8.875  12.295  0.00  0.00    +0.000 A 
ATOM     11  N   UNL     1      49.492   8.204  11.597  0.00  0.00    +0.000 N 
ATOM     12  C   UNL     1      48.625   7.319  12.191  0.00  0.00    +0.000 A 
ATOM     13  O   UNL     1      47.686   6.837  11.564  0.00  0.00    +0.000 OA
ATOM     14  C   UNL     1      48.892   7.061  13.595  0.00  0.00    +0.000 A 
ATOM     15  H   UNL     1      49.331   8.398  10.620  0.00  0.00    +0.000 HD
ENDBRANCH   2   5
BRANCH   3  16
ATOM     16  C   UNL     1      44.835   4.906  13.579  0.00  0.00    +0.000 C 
BRANCH  16  17
ATOM     17  C   UNL     1      44.743   4.487  12.136  0.00  0.00    +0.000 A 
ATOM     18  C   UNL     1      45.318   5.280  11.137  0.00  0.00    +0.000 A 
ATOM     19  C   UNL     1      45.263   4.889   9.798  0.00  0.00    +0.000 A 
ATOM     20  C   UNL     1      44.615   3.704   9.427  0.00  0.00    +0.000 A 
ATOM     21  C   UNL     1      44.020   2.920  10.424  0.00  0.00    +0.000 A 
ATOM     22  C   UNL     1      44.071   3.314  11.766  0.00  0.00    +0.000 A 
BRANCH  20  23
ATOM     23  C   UNL     1      44.546   3.293   7.975  0.00  0.00    +0.000 C 
BRANCH  23  24
ATOM     24  C   UNL     1      45.837   2.786   7.389  0.00  0.00    +0.000 A 
ATOM     25  C   UNL     1      46.486   3.457   6.348  0.00  0.00    +0.000 A 
ATOM     26  C   UNL     1      47.638   2.913   5.786  0.00  0.00    +0.000 A 
ATOM     27  C   UNL     1      48.113   1.715   6.293  0.00  0.00    +0.000 A 
ATOM     28  N   UNL     1      47.534   1.052   7.315  0.00  0.00    +0.000 NA
ATOM     29  C   UNL     1      46.417   1.604   7.841  0.00  0.00    +0.000 A 
ENDBRANCH  23  24
ENDBRANCH  20  23
ENDBRANCH  16  17
ENDBRANCH   3  16
TORSDOF 5
ENDMDL
MODEL 5
REMARK VINA RESULT:    -7.627      2.092      2.815
REMARK INTER + INTRA:         -10.624
REMARK INTER:                  -9.562
REMARK INTRA:                  -1.062
REMARK UNBOUND:                -0.768
REMARK  Name = 
REMARK  5 active torsions:
REMARK  status: ('A' for Active; 'I' for Inactive)
REMARK    1  A    between atoms: C_2  and  C_18
REMARK    2  A    between atoms: N_3  and  C_4
REMARK    3  A    between atoms: C_4  and  C_5
REMARK    4  A    between atoms: C_8  and  C_9
REMARK    5  A    between atoms: C_9  and  C_10
REMARK                            x       y       z     vdW  Elec       q    Type
REMARK                         _______ _______ _______ _____ _____    ______ ____
ROOT
ATOM      1  O   UNL     1      46.678   8.346  13.589  0.00  0.00    +0.000 OA
ATOM      2  C   UNL     1      47.518   7.453  13.646  0.00  0.00    +0.000 C 
ATOM      3  N   UNL     1      47.183   6.123  13.622  0.00  0.00    +0.000 N 
ATOM      4  H   UNL     1      47.884   5.429  13.845  0.00  0.00    +0.000 HD
ENDROOT
BRANCH   2   5
ATOM      5  C   UNL     1      48.955   7.756  13.682  0.00  0.00    +0.000 A 
ATOM      6  C   UNL     1      49.529   8.487  12.651  0.00  0.00    +0.000 A 
ATOM      7  S   UNL     1      51.206   8.733  12.837  0.00  0.00    +0.000 S 
ATOM      8  C   UNL     1      51.218   7.908  14.325  0.00  0.00    +0.000 A 
ATOM      9  N   UNL     1      52.365   7.780  15.045  0.00  0.00    +0.000 NA
ATOM     10  C   UNL     1      52.225   7.163  16.169  0.00  0.00    +0.000 A 
ATOM     11  N   UNL     1      51.041   6.651  16.636  0.00  0.00    +0.000 N 
ATOM     12  C   UNL     1      49.875   6.693  15.911  0.00  0.00    +0.000 A 
ATOM     13  O   UNL     1      48.867   6.110  16.302  0.00  0.00    +0.000 OA
ATOM     14  C   UNL     1      49.966   7.424  14.660  0.00  0.00    +0.000 A 
ATOM     15  H   UNL     1      51.004   6.152  17.512  0.00  0.00    +0.000 HD
ENDBRANCH   2   5
BRANCH   3  16
ATOM     16  C   UNL     1      45.819   5.660  13.592  0.00  0.00    +0.000 C 
BRANCH  16  17
ATOM     17  C   UNL     1      45.491   4.981  12.289  0.00  0.00    +0.000 A 
ATOM     18  C   UNL     1      45.552   5.699  11.090  0.00  0.00    +0.000 A 
ATOM     19  C   UNL     1      45.276   5.075   9.872  0.00  0.00    +0.000 A 
ATOM     20  C   UNL     1      44.915   3.722   9.830  0.00  0.00    +0.000 A 
ATOM     21  C   UNL     1      44.833   3.008  11.032  0.00  0.00    +0.000 A 
ATOM     22  C   UNL     1      45.105   3.635  12.253  0.00  0.00    +0.000 A 
BRANCH  20  23
ATOM     23  C   UNL     1      44.602   3.055   8.511  0.00  0.00    +0.000 C 
BRANCH  23  24
ATOM     24  C   UNL     1      45.803   2.659   7.692  0.00  0.00    +0.000 A 
ATOM     25  C   UNL     1      46.270   3.453   6.641  0.00  0.00    +0.000 A 
ATOM     26  C   UNL     1      47.337   3.013   5.862  0.00  0.00    +0.000 A 
ATOM     27  C   UNL     1      47.913   1.791   6.168  0.00  0.00    +0.000 A 
ATOM     28  N   UNL     1      47.511   1.009   7.191  0.00  0.00    +0.000 NA
ATOM     29  C   UNL     1      46.473   1.462   7.930  0.00  0.00    +0.000 A 
ENDBRANCH  23  24
ENDBRANCH  20  23
ENDBRANCH  16  17
ENDBRANCH   3  16
TORSDOF 5
ENDMDL
MODEL 6
REMARK VINA RESULT:    -7.027      2.182      3.076
REMARK INTER + INTRA:          -9.849
REMARK INTER:                  -8.801
REMARK INTRA:                  -1.048
REMARK UNBOUND:                -0.768
REMARK  Name = 
REMARK  5 active torsions:
REMARK  status: ('A' for Active; 'I' for Inactive)
REMARK    1  A    between atoms: C_2  and  C_18
REMARK    2  A    between atoms: N_3  and  C_4
REMARK    3  A    between atoms: C_4  and  C_5
REMARK    4  A    between atoms: C_8  and  C_9
REMARK    5  A    between atoms: C_9  and  C_10
REMARK                            x       y       z     vdW  Elec       q    Type
REMARK                         _______ _______ _______ _____ _____    ______ ____
ROOT
ATOM      1  O   UNL     1      48.689  10.262  15.680  0.00  0.00    +0.000 OA
ATOM      2  C   UNL     1      48.306   9.125  15.938  0.00  0.00    +0.000 C 
ATOM      3  N   UNL     1      47.694   8.324  15.009  0.00  0.00    +0.000 N 
ATOM      4  H   UNL     1      47.242   7.470  15.308  0.00  0.00    +0.000 HD
ENDROOT
BRANCH   2   5
ATOM      5  C   UNL     1      48.538   8.521  17.258  0.00  0.00    +0.000 A 
ATOM      6  C   UNL     1      48.188   9.221  18.405  0.00  0.00    +0.000 A 
ATOM      7  S   UNL     1      48.543   8.389  19.850  0.00  0.00    +0.000 S 
ATOM      8  C   UNL     1      49.137   7.044  18.994  0.00  0.00    +0.000 A 
ATOM      9  N   UNL     1      49.585   5.939  19.650  0.00  0.00    +0.000 NA
ATOM     10  C   UNL     1      49.974   4.981  18.879  0.00  0.00    +0.000 A 
ATOM     11  N   UNL     1      49.967   5.029  17.508  0.00  0.00    +0.000 N 
ATOM     12  C   UNL     1      49.593   6.149  16.805  0.00  0.00    +0.000 A 
ATOM     13  O   UNL     1      49.725   6.203  15.586  0.00  0.00    +0.000 OA
ATOM     14  C   UNL     1      49.095   7.240  17.625  0.00  0.00    +0.000 A 
ATOM     15  H   UNL     1      50.314   4.256  16.962  0.00  0.00    +0.000 HD
ENDBRANCH   2   5
BRANCH   3  16
ATOM     16  C   UNL     1      47.390   8.768  13.673  0.00  0.00    +0.000 C 
BRANCH  16  17
ATOM     17  C   UNL     1      46.548   7.764  12.932  0.00  0.00    +0.000 A 
ATOM     18  C   UNL     1      45.479   8.195  12.138  0.00  0.00    +0.000 A 
ATOM     19  C   UNL     1      44.706   7.276  11.425  0.00  0.00    +0.000 A 
ATOM     20  C   UNL     1      44.975   5.904  11.505  0.00  0.00    +0.000 A 
ATOM     21  C   UNL     1      46.031   5.469  12.317  0.00  0.00    +0.000 A 
ATOM     22  C   UNL     1      46.802   6.390  13.036  0.00  0.00    +0.000 A 
BRANCH  20  23
ATOM     23  C   UNL     1      44.127   4.913  10.744  0.00  0.00    +0.000 C 
BRANCH  23  24
ATOM     24  C   UNL     1      44.869   4.074   9.736  0.00  0.00    +0.000 A 
ATOM     25  C   UNL     1      45.605   4.652   8.698  0.00  0.00    +0.000 A 
ATOM     26  C   UNL     1      46.214   3.839   7.745  0.00  0.00    +0.000 A 
ATOM     27  C   UNL     1      46.075   2.467   7.868  0.00  0.00    +0.000 A 
ATOM     28  N   UNL     1      45.399   1.869   8.870  0.00  0.00    +0.000 NA
ATOM     29  C   UNL     1      44.818   2.684   9.781  0.00  0.00    +0.000 A 
ENDBRANCH  23  24
ENDBRANCH  20  23
ENDBRANCH  16  17
ENDBRANCH   3  16
TORSDOF 5
ENDMDL
MODEL 7
REMARK VINA RESULT:    -6.770      2.480      3.522
REMARK INTER + INTRA:          -9.516
REMARK INTER:                  -8.631
REMARK INTRA:                  -0.886
REMARK UNBOUND:                -0.768
REMARK  Name = 
REMARK  5 active torsions:
REMARK  status: ('A' for Active; 'I' for Inactive)
REMARK    1  A    between atoms: C_2  and  C_18
REMARK    2  A    between atoms: N_3  and  C_4
REMARK    3  A    between atoms: C_4  and  C_5
REMARK    4  A    between atoms: C_8  and  C_9
REMARK    5  A    between atoms: C_9  and  C_10
REMARK                            x       y       z     vdW  Elec       q    Type
REMARK                         _______ _______ _______ _____ _____    ______ ____
ROOT
ATOM      1  O   UNL     1      46.766   4.260  17.146  0.00  0.00    +0.000 OA
ATOM      2  C   UNL     1      47.780   4.353  16.460  0.00  0.00    +0.000 C 
ATOM      3  N   UNL     1      47.839   5.126  15.330  0.00  0.00    +0.000 N 
ATOM      4  H   UNL     1      48.630   5.037  14.705  0.00  0.00    +0.000 HD
ENDROOT
BRANCH   2   5
ATOM      5  C   UNL     1      49.029   3.681  16.848  0.00  0.00    +0.000 A 
ATOM      6  C   UNL     1      49.139   2.304  16.711  0.00  0.00    +0.000 A 
ATOM      7  S   UNL     1      50.642   1.683  17.225  0.00  0.00    +0.000 S 
ATOM      8  C   UNL     1      51.215   3.238  17.608  0.00  0.00    +0.000 A 
ATOM      9  N   UNL     1      52.477   3.422  18.082  0.00  0.00    +0.000 NA
ATOM     10  C   UNL     1      52.794   4.654  18.298  0.00  0.00    +0.000 A 
ATOM     11  N   UNL     1      51.958   5.722  18.093  0.00  0.00    +0.000 N 
ATOM     12  C   UNL     1      50.654   5.579  17.686  0.00  0.00    +0.000 A 
ATOM     13  O   UNL     1      49.897   6.544  17.640  0.00  0.00    +0.000 OA
ATOM     14  C   UNL     1      50.262   4.215  17.378  0.00  0.00    +0.000 A 
ATOM     15  H   UNL     1      52.257   6.660  18.311  0.00  0.00    +0.000 HD
ENDBRANCH   2   5
BRANCH   3  16
ATOM     16  C   UNL     1      46.701   5.844  14.814  0.00  0.00    +0.000 C 
BRANCH  16  17
ATOM     17  C   UNL     1      46.068   5.121  13.654  0.00  0.00    +0.000 A 
ATOM     18  C   UNL     1      45.130   5.776  12.849  0.00  0.00    +0.000 A 
ATOM     19  C   UNL     1      44.554   5.126  11.755  0.00  0.00    +0.000 A 
ATOM     20  C   UNL     1      44.893   3.800  11.454  0.00  0.00    +0.000 A 
ATOM     21  C   UNL     1      45.817   3.137  12.273  0.00  0.00    +0.000 A 
ATOM     22  C   UNL     1      46.389   3.787  13.372  0.00  0.00    +0.000 A 
BRANCH  20  23
ATOM     23  C   UNL     1      44.257   3.097  10.279  0.00  0.00    +0.000 C 
BRANCH  23  24
ATOM     24  C   UNL     1      45.139   2.948   9.066  0.00  0.00    +0.000 A 
ATOM     25  C   UNL     1      45.716   1.722   8.723  0.00  0.00    +0.000 A 
ATOM     26  C   UNL     1      46.585   1.646   7.637  0.00  0.00    +0.000 A 
ATOM     27  C   UNL     1      46.840   2.802   6.918  0.00  0.00    +0.000 A 
ATOM     28  N   UNL     1      46.281   3.997   7.199  0.00  0.00    +0.000 NA
ATOM     29  C   UNL     1      45.442   4.041   8.259  0.00  0.00    +0.000 A 
ENDBRANCH  23  24
ENDBRANCH  20  23
ENDBRANCH  16  17
ENDBRANCH   3  16
TORSDOF 5
ENDMDL
MODEL 8
REMARK VINA RESULT:    -6.673      2.386      3.520
REMARK INTER + INTRA:          -9.390
REMARK INTER:                  -8.386
REMARK INTRA:                  -1.004
REMARK UNBOUND:                -0.768
REMARK  Name = 
REMARK  5 active torsions:
REMARK  status: ('A' for Active; 'I' for Inactive)
REMARK    1  A    between atoms: C_2  and  C_18
REMARK    2  A    between atoms: N_3  and  C_4
REMARK    3  A    between atoms: C_4  and  C_5
REMARK    4  A    between atoms: C_8  and  C_9
REMARK    5  A    between atoms: C_9  and  C_10
REMARK                            x       y       z     vdW  Elec       q    Type
REMARK                         _______ _______ _______ _____ _____    ______ ____
ROOT
ATOM      1  O   UNL     1      48.155   8.668  16.537  0.00  0.00    +0.000 OA
ATOM      2  C   UNL     1      48.631   7.691  15.965  0.00  0.00    +0.000 C 
ATOM      3  N   UNL     1      48.347   7.390  14.658  0.00  0.00    +0.000 N 
ATOM      4  H   UNL     1      48.618   6.491  14.283  0.00  0.00    +0.000 HD
ENDROOT
BRANCH   2   5
ATOM      5  C   UNL     1      49.594   6.807  16.636  0.00  0.00    +0.000 A 
ATOM      6  C   UNL     1      49.159   5.953  17.641  0.00  0.00    +0.000 A 
ATOM      7  S   UNL     1      50.405   5.013  18.327  0.00  0.00    +0.000 S 
ATOM      8  C   UNL     1      51.564   5.682  17.277  0.00  0.00    +0.000 A 
ATOM      9  N   UNL     1      52.863   5.279  17.319  0.00  0.00    +0.000 NA
ATOM     10  C   UNL     1      53.626   5.841  16.444  0.00  0.00    +0.000 A 
ATOM     11  N   UNL     1      53.212   6.782  15.536  0.00  0.00    +0.000 N 
ATOM     12  C   UNL     1      51.929   7.273  15.506  0.00  0.00    +0.000 A 
ATOM     13  O   UNL     1      51.627   8.207  14.769  0.00  0.00    +0.000 OA
ATOM     14  C   UNL     1      51.014   6.633  16.435  0.00  0.00    +0.000 A 
ATOM     15  H   UNL     1      53.867   7.207  14.898  0.00  0.00    +0.000 HD
ENDBRANCH   2   5
BRANCH   3  16
ATOM     16  C   UNL     1      47.420   8.154  13.864  0.00  0.00    +0.000 C 
BRANCH  16  17
ATOM     17  C   UNL     1      46.583   7.268  12.981  0.00  0.00    +0.000 A 
ATOM     18  C   UNL     1      45.575   7.822  12.184  0.00  0.00    +0.000 A 
ATOM     19  C   UNL     1      44.809   7.014  11.341  0.00  0.00    +0.000 A 
ATOM     20  C   UNL     1      45.023   5.631  11.291  0.00  0.00    +0.000 A 
ATOM     21  C   UNL     1      46.017   5.072  12.105  0.00  0.00    +0.000 A 
ATOM     22  C   UNL     1      46.781   5.881  12.953  0.00  0.00    +0.000 A 
BRANCH  20  23
ATOM     23  C   UNL     1      44.182   4.760  10.389  0.00  0.00    +0.000 C 
BRANCH  23  24
ATOM     24  C   UNL     1      44.956   3.883   9.439  0.00  0.00    +0.000 A 
ATOM     25  C   UNL     1      45.693   4.419   8.379  0.00  0.00    +0.000 A 
ATOM     26  C   UNL     1      46.332   3.568   7.481  0.00  0.00    +0.000 A 
ATOM     27  C   UNL     1      46.224   2.202   7.680  0.00  0.00    +0.000 A 
ATOM     28  N   UNL     1      45.547   1.645   8.705  0.00  0.00    +0.000 NA
ATOM     29  C   UNL     1      44.936   2.497   9.562  0.00  0.00    +0.000 A 
ENDBRANCH  23  24
ENDBRANCH  20  23
ENDBRANCH  16  17
ENDBRANCH   3  16
TORSDOF 5
ENDMDL
MODEL 9
REMARK VINA RESULT:    -6.586      2.965      4.214
REMARK INTER + INTRA:          -9.279
REMARK INTER:                  -7.926
REMARK INTRA:                  -1.353
REMARK UNBOUND:                -0.768
REMARK  Name = 
REMARK  5 active torsions:
REMARK  status: ('A' for Active; 'I' for Inactive)
REMARK    1  A    between atoms: C_2  and  C_18
REMARK    2  A    between atoms: N_3  and  C_4
REMARK    3  A    between atoms: C_4  and  C_5
REMARK    4  A    between atoms: C_8  and  C_9
REMARK    5  A    between atoms: C_9  and  C_10
REMARK                            x       y       z     vdW  Elec       q    Type
REMARK                         _______ _______ _______ _____ _____    ______ ____
ROOT
ATOM      1  O   UNL     1      47.963   9.253  16.670  0.00  0.00    +0.000 OA
ATOM      2  C   UNL     1      48.664   8.253  16.534  0.00  0.00    +0.000 C 
ATOM      3  N   UNL     1      49.274   7.936  15.348  0.00  0.00    +0.000 N 
ATOM      4  H   UNL     1      49.694   7.023  15.232  0.00  0.00    +0.000 HD
ENDROOT
BRANCH   2   5
ATOM      5  C   UNL     1      48.945   7.358  17.664  0.00  0.00    +0.000 A 
ATOM      6  C   UNL     1      49.439   7.883  18.851  0.00  0.00    +0.000 A 
ATOM      7  S   UNL     1      49.730   6.708  20.051  0.00  0.00    +0.000 S 
ATOM      8  C   UNL     1      49.164   5.459  19.044  0.00  0.00    +0.000 A 
ATOM      9  N   UNL     1      49.116   4.173  19.484  0.00  0.00    +0.000 NA
ATOM     10  C   UNL     1      48.633   3.334  18.631  0.00  0.00    +0.000 A 
ATOM     11  N   UNL     1      48.203   3.661  17.371  0.00  0.00    +0.000 N 
ATOM     12  C   UNL     1      48.300   4.933  16.858  0.00  0.00    +0.000 A 
ATOM     13  O   UNL     1      48.029   5.163  15.684  0.00  0.00    +0.000 OA
ATOM     14  C   UNL     1      48.788   5.928  17.797  0.00  0.00    +0.000 A 
ATOM     15  H   UNL     1      47.864   2.952  16.740  0.00  0.00    +0.000 HD
ENDBRANCH   2   5
BRANCH   3  16
ATOM     16  C   UNL     1      49.096   8.709  14.145  0.00  0.00    +0.000 C 
BRANCH  16  17
ATOM     17  C   UNL     1      47.924   8.218  13.338  0.00  0.00    +0.000 A 
ATOM     18  C   UNL     1      46.692   8.878  13.417  0.00  0.00    +0.000 A 
ATOM     19  C   UNL     1      45.604   8.449  12.654  0.00  0.00    +0.000 A 
ATOM     20  C   UNL     1      45.720   7.338  11.809  0.00  0.00    +0.000 A 
ATOM     21  C   UNL     1      46.946   6.663  11.745  0.00  0.00    +0.000 A 
ATOM     22  C   UNL     1      48.035   7.091  12.514  0.00  0.00    +0.000 A 
BRANCH  20  23
ATOM     23  C   UNL     1      44.536   6.869  10.997  0.00  0.00    +0.000 C 
BRANCH  23  24
ATOM     24  C   UNL     1      44.053   5.478  11.311  0.00  0.00    +0.000 A 
ATOM     25  C   UNL     1      43.747   5.083  12.617  0.00  0.00    +0.000 A 
ATOM     26  C   UNL     1      43.376   3.765  12.872  0.00  0.00    +0.000 A 
ATOM     27  C   UNL     1      43.311   2.883  11.807  0.00  0.00    +0.000 A 
ATOM     28  N   UNL     1      43.571   3.230  10.530  0.00  0.00    +0.000 NA
ATOM     29  C   UNL     1      43.929   4.517  10.312  0.00  0.00    +0.000 A 
ENDBRANCH  23  24
ENDBRANCH  20  23
ENDBRANCH  16  17
ENDBRANCH   3  16
TORSDOF 5
ENDMDL
