MODEL 1
REMARK VINA RESULT:    -8.007      0.000      0.000
REMARK INTER + INTRA:         -12.964
REMARK INTER:                 -11.752
REMARK INTRA:                  -1.212
REMARK UNBOUND:                -1.212
REMARK  Name = 
REMARK  12 active torsions:
REMARK  status: ('A' for Active; 'I' for Inactive)
REMARK    1  A    between atoms: C_1  and  O_2
REMARK    2  A    between atoms: O_2  and  C_3
REMARK    3  A    between atoms: C_10  and  C_11
REMARK    4  A    between atoms: N_13  and  C_14
REMARK    5  A    between atoms: C_14  and  C_15
REMARK    6  A    between atoms: C_18  and  N_19
REMARK    7  A    between atoms: N_19  and  C_20
REMARK    8  A    between atoms: N_19  and  C_21
REMARK    9  A    between atoms: C_21  and  C_22
REMARK   10  A    between atoms: N_25  and  C_26
REMARK   11  A    between atoms: C_26  and  C_27
REMARK   12  A    between atoms: C_26  and  C_28
REMARK                            x       y       z     vdW  Elec       q    Type
REMARK                         _______ _______ _______ _____ _____    ______ ____
ROOT
ATOM      1  C   UNL     1      47.860   6.509  14.440  0.00  0.00    +0.000 A 
ATOM      2  C   UNL     1      47.438   5.272  14.936  0.00  0.00    +0.000 A 
ATOM      3  C   UNL     1      46.449   4.534  14.276  0.00  0.00    +0.000 A 
ATOM      4  C   UNL     1      45.828   4.997  13.108  0.00  0.00    +0.000 A 
ATOM      5  C   UNL     1      46.231   6.262  12.654  0.00  0.00    +0.000 A 
ATOM      6  C   UNL     1      47.237   7.006  13.294  0.00  0.00    +0.000 A 
ENDROOT
BRANCH   4   7
ATOM      7  N   UNL     1      44.917   4.201  12.425  0.00  0.00    +0.000 N 
ATOM      8  C   UNL     1      43.484   4.375  12.643  0.00  0.00    +0.000 C 
BRANCH   7   9
ATOM      9  C   UNL     1      45.320   3.309  11.330  0.00  0.00    +0.000 C 
BRANCH   9  10
ATOM     10  C   UNL     1      44.251   3.258  10.211  0.00  0.00    +0.000 C 
ATOM     11  C   UNL     1      44.254   1.960   9.400  0.00  0.00    +0.000 C 
ATOM     12  C   UNL     1      45.516   1.811   8.544  0.00  0.00    +0.000 C 
ATOM     13  N   UNL     1      45.773   2.957   7.648  0.00  0.00    +0.000 NA
ATOM     14  C   UNL     1      45.714   4.239   8.375  0.00  0.00    +0.000 C 
ATOM     15  C   UNL     1      44.436   4.400   9.203  0.00  0.00    +0.000 C 
BRANCH  13  16
ATOM     16  C   UNL     1      47.063   2.793   6.920  0.00  0.00    +0.000 C 
ATOM     17  C   UNL     1      47.685   1.404   7.145  0.00  0.00    +0.000 C 
ATOM     18  C   UNL     1      46.919   2.991   5.402  0.00  0.00    +0.000 C 
ENDBRANCH  13  16
ENDBRANCH   9  10
ENDBRANCH   7   9
ENDBRANCH   4   7
BRANCH   1  19
ATOM     19  C   UNL     1      48.998   7.237  15.104  0.00  0.00    +0.000 C 
BRANCH  19  22
ATOM     20  C   UNL     1      49.951   6.001  17.029  0.00  0.00    +0.000 C 
ATOM     21  O   UNL     1      49.084   6.411  17.795  0.00  0.00    +0.000 OA
ATOM     22  N   UNL     1      49.963   6.335  15.699  0.00  0.00    +0.000 N 
ATOM     23  H   UNL     1      50.759   6.082  15.137  0.00  0.00    +0.000 HD
BRANCH  20  31
ATOM     24  C   UNL     1      50.423   2.587  17.141  0.00  0.00    +0.000 A 
ATOM     25  N   UNL     1      50.895   1.326  17.243  0.00  0.00    +0.000 NA
ATOM     26  C   UNL     1      52.120   1.154  17.746  0.00  0.00    +0.000 A 
ATOM     27  N   UNL     1      52.946   2.098  18.182  0.00  0.00    +0.000 NA
ATOM     28  C   UNL     1      52.443   3.338  18.056  0.00  0.00    +0.000 A 
ATOM     29  S   UNL     1      53.366   4.667  18.567  0.00  0.00    +0.000 S 
ATOM     30  C   UNL     1      52.152   5.753  18.085  0.00  0.00    +0.000 A 
ATOM     31  C   UNL     1      51.038   5.138  17.522  0.00  0.00    +0.000 A 
ATOM     32  C   UNL     1      51.202   3.688  17.532  0.00  0.00    +0.000 A 
BRANCH  24  34
ATOM     33  C   UNL     1      48.144   2.851  17.598  0.00  0.00    +0.000 C 
ATOM     34  O   UNL     1      49.164   2.765  16.602  0.00  0.00    +0.000 OA
ENDBRANCH  24  34
ENDBRANCH  20  31
ENDBRANCH  19  22
ENDBRANCH   1  19
TORSDOF 8
ENDMDL
MODEL 2
REMARK VINA RESULT:    -7.855      2.904      4.012
REMARK INTER + INTRA:         -12.740
REMARK INTER:                 -11.343
REMARK INTRA:                  -1.398
REMARK UNBOUND:                -1.212
REMARK  Name = 
REMARK  12 active torsions:
REMARK  status: ('A' for Active; 'I' for Inactive)
REMARK    1  A    between atoms: C_1  and  O_2
REMARK    2  A    between atoms: O_2  and  C_3
REMARK    3  A    between atoms: C_10  and  C_11
REMARK    4  A    between atoms: N_13  and  C_14
REMARK    5  A    between atoms: C_14  and  C_15
REMARK    6  A    between atoms: C_18  and  N_19
REMARK    7  A    between atoms: N_19  and  C_20
REMARK    8  A    between atoms: N_19  and  C_21
REMARK    9  A    between atoms: C_21  and  C_22
REMARK   10  A    between atoms: N_25  and  C_26
REMARK   11  A    between atoms: C_26  and  C_27
REMARK   12  A    between atoms: C_26  and  C_28
REMARK                            x       y       z     vdW  Elec       q    Type
REMARK                         _______ _______ _______ _____ _____    ______ ____
ROOT
ATOM      1  C   UNL     1      47.037   7.709  13.366  0.00  0.00    +0.000 A 
ATOM      2  C   UNL     1      45.871   7.796  12.601  0.00  0.00    +0.000 A 
ATOM      3  C   UNL     1      45.160   6.645  12.243  0.00  0.00    +0.000 A 
ATOM      4  C   UNL     1      45.583   5.361  12.615  0.00  0.00    +0.000 A 
ATOM      5  C   UNL     1      46.781   5.292  13.341  0.00  0.00    +0.000 A 
ATOM      6  C   UNL     1      47.496   6.440  13.725  0.00  0.00    +0.000 A 
ENDROOT
BRANCH   4   7
ATOM      7  N   UNL     1      44.807   4.247  12.323  0.00  0.00    +0.000 N 
ATOM      8  C   UNL     1      43.457   4.131  12.867  0.00  0.00    +0.000 C 
BRANCH   7   9
ATOM      9  C   UNL     1      45.207   3.252  11.319  0.00  0.00    +0.000 C 
BRANCH   9  10
ATOM     10  C   UNL     1      44.167   3.140  10.178  0.00  0.00    +0.000 C 
ATOM     11  C   UNL     1      44.247   1.836   9.382  0.00  0.00    +0.000 C 
ATOM     12  C   UNL     1      45.533   1.736   8.555  0.00  0.00    +0.000 C 
ATOM     13  N   UNL     1      45.757   2.884   7.652  0.00  0.00    +0.000 NA
ATOM     14  C   UNL     1      45.623   4.169   8.363  0.00  0.00    +0.000 C 
ATOM     15  C   UNL     1      44.320   4.279   9.161  0.00  0.00    +0.000 C 
BRANCH  13  16
ATOM     16  C   UNL     1      47.068   2.772   6.954  0.00  0.00    +0.000 C 
ATOM     17  C   UNL     1      47.713   1.389   7.145  0.00  0.00    +0.000 C 
ATOM     18  C   UNL     1      46.960   3.023   5.440  0.00  0.00    +0.000 C 
ENDBRANCH  13  16
ENDBRANCH   9  10
ENDBRANCH   7   9
ENDBRANCH   4   7
BRANCH   1  19
ATOM     19  C   UNL     1      47.727   8.963  13.831  0.00  0.00    +0.000 C 
BRANCH  19  22
ATOM     20  C   UNL     1      48.480   8.915  16.192  0.00  0.00    +0.000 C 
ATOM     21  O   UNL     1      49.578   8.457  15.892  0.00  0.00    +0.000 OA
ATOM     22  N   UNL     1      47.534   9.213  15.244  0.00  0.00    +0.000 N 
ATOM     23  H   UNL     1      46.605   9.465  15.540  0.00  0.00    +0.000 HD
BRANCH  20  31
ATOM     24  C   UNL     1      47.844   6.826  18.860  0.00  0.00    +0.000 A 
ATOM     25  N   UNL     1      47.628   6.261  20.066  0.00  0.00    +0.000 NA
ATOM     26  C   UNL     1      47.428   7.069  21.111  0.00  0.00    +0.000 A 
ATOM     27  N   UNL     1      47.403   8.397  21.101  0.00  0.00    +0.000 NA
ATOM     28  C   UNL     1      47.632   8.920  19.885  0.00  0.00    +0.000 A 
ATOM     29  S   UNL     1      47.634  10.606  19.689  0.00  0.00    +0.000 S 
ATOM     30  C   UNL     1      47.989  10.459  18.035  0.00  0.00    +0.000 A 
ATOM     31  C   UNL     1      48.124   9.144  17.602  0.00  0.00    +0.000 A 
ATOM     32  C   UNL     1      47.880   8.221  18.707  0.00  0.00    +0.000 A 
BRANCH  24  34
ATOM     33  C   UNL     1      49.055   4.991  18.059  0.00  0.00    +0.000 C 
ATOM     34  O   UNL     1      48.070   5.989  17.785  0.00  0.00    +0.000 OA
ENDBRANCH  24  34
ENDBRANCH  20  31
ENDBRANCH  19  22
ENDBRANCH   1  19
TORSDOF 8
ENDMDL
MODEL 3
REMARK VINA RESULT:    -7.333      1.280      1.574
REMARK INTER + INTRA:         -11.975
REMARK INTER:                 -10.599
REMARK INTRA:                  -1.376
REMARK UNBOUND:                -1.212
REMARK  Name = 
REMARK  12 active torsions:
REMARK  status: ('A' for Active; 'I' for Inactive)
REMARK    1  A    between atoms: C_1  and  O_2
REMARK    2  A    between atoms: O_2  and  C_3
REMARK    3  A    between atoms: C_10  and  C_11
REMARK    4  A    between atoms: N_13  and  C_14
REMARK    5  A    between atoms: C_14  and  C_15
REMARK    6  A    between atoms: C_18  and  N_19
REMARK    7  A    between atoms: N_19  and  C_20
REMARK    8  A    between atoms: N_19  and  C_21
REMARK    9  A    between atoms: C_21  and  C_22
REMARK   10  A    between atoms: N_25  and  C_26
REMARK   11  A    between atoms: C_26  and  C_27
REMARK   12  A    between atoms: C_26  and  C_28
REMARK                            x       y       z     vdW  Elec       q    Type
REMARK                         _______ _______ _______ _____ _____    ______ ____
ROOT
ATOM      1  C   UNL     1      47.587   7.248  13.700  0.00  0.00    +0.000 A 
ATOM      2  C   UNL     1      47.687   5.928  14.149  0.00  0.00    +0.000 A 
ATOM      3  C   UNL     1      46.749   4.965  13.761  0.00  0.00    +0.000 A 
ATOM      4  C   UNL     1      45.665   5.273  12.926  0.00  0.00    +0.000 A 
ATOM      5  C   UNL     1      45.556   6.613  12.525  0.00  0.00    +0.000 A 
ATOM      6  C   UNL     1      46.501   7.588  12.890  0.00  0.00    +0.000 A 
ENDROOT
BRANCH   4   7
ATOM      7  N   UNL     1      44.804   4.276  12.484  0.00  0.00    +0.000 N 
ATOM      8  C   UNL     1      43.405   4.280  12.900  0.00  0.00    +0.000 C 
BRANCH   7   9
ATOM      9  C   UNL     1      45.188   3.311  11.446  0.00  0.00    +0.000 C 
BRANCH   9  10
ATOM     10  C   UNL     1      44.136   3.243  10.312  0.00  0.00    +0.000 C 
ATOM     11  C   UNL     1      44.161   1.938   9.511  0.00  0.00    +0.000 C 
ATOM     12  C   UNL     1      45.436   1.793   8.675  0.00  0.00    +0.000 C 
ATOM     13  N   UNL     1      45.696   2.934   7.773  0.00  0.00    +0.000 NA
ATOM     14  C   UNL     1      45.616   4.221   8.489  0.00  0.00    +0.000 C 
ATOM     15  C   UNL     1      44.325   4.378   9.298  0.00  0.00    +0.000 C 
BRANCH  13  16
ATOM     16  C   UNL     1      46.997   2.775   7.065  0.00  0.00    +0.000 C 
ATOM     17  C   UNL     1      47.589   1.367   7.244  0.00  0.00    +0.000 C 
ATOM     18  C   UNL     1      46.888   3.038   5.553  0.00  0.00    +0.000 C 
ENDBRANCH  13  16
ENDBRANCH   9  10
ENDBRANCH   7   9
ENDBRANCH   4   7
BRANCH   1  19
ATOM     19  C   UNL     1      48.664   8.242  14.041  0.00  0.00    +0.000 C 
BRANCH  19  22
ATOM     20  C   UNL     1      49.619   7.854  16.294  0.00  0.00    +0.000 C 
ATOM     21  O   UNL     1      48.693   8.436  16.850  0.00  0.00    +0.000 OA
ATOM     22  N   UNL     1      49.665   7.694  14.932  0.00  0.00    +0.000 N 
ATOM     23  H   UNL     1      50.501   7.325  14.510  0.00  0.00    +0.000 HD
BRANCH  20  31
ATOM     24  C   UNL     1      50.476   4.694  17.377  0.00  0.00    +0.000 A 
ATOM     25  N   UNL     1      51.080   3.586  17.856  0.00  0.00    +0.000 NA
ATOM     26  C   UNL     1      52.258   3.728  18.468  0.00  0.00    +0.000 A 
ATOM     27  N   UNL     1      52.918   4.861  18.681  0.00  0.00    +0.000 NA
ATOM     28  C   UNL     1      52.289   5.939  18.183  0.00  0.00    +0.000 A 
ATOM     29  S   UNL     1      52.991   7.473  18.367  0.00  0.00    +0.000 S 
ATOM     30  C   UNL     1      51.714   8.209  17.523  0.00  0.00    +0.000 A 
ATOM     31  C   UNL     1      50.743   7.316  17.079  0.00  0.00    +0.000 A 
ATOM     32  C   UNL     1      51.075   5.958  17.501  0.00  0.00    +0.000 A 
BRANCH  24  34
ATOM     33  C   UNL     1      48.154   4.557  17.621  0.00  0.00    +0.000 C 
ATOM     34  O   UNL     1      49.268   4.543  16.727  0.00  0.00    +0.000 OA
ENDBRANCH  24  34
ENDBRANCH  20  31
ENDBRANCH  19  22
ENDBRANCH   1  19
TORSDOF 8
ENDMDL
MODEL 4
REMARK VINA RESULT:    -7.029      3.593      9.946
REMARK INTER + INTRA:         -11.528
REMARK INTER:                 -10.339
REMARK INTRA:                  -1.189
REMARK UNBOUND:                -1.212
REMARK  Name = 
REMARK  12 active torsions:
REMARK  status: ('A' for Active; 'I' for Inactive)
REMARK    1  A    between atoms: C_1  and  O_2
REMARK    2  A    between atoms: O_2  and  C_3
REMARK    3  A    between atoms: C_10  and  C_11
REMARK    4  A    between atoms: N_13  and  C_14
REMARK    5  A    between atoms: C_14  and  C_15
REMARK    6  A    between atoms: C_18  and  N_19
REMARK    7  A    between atoms: N_19  and  C_20
REMARK    8  A    between atoms: N_19  and  C_21
REMARK    9  A    between atoms: C_21  and  C_22
REMARK   10  A    between atoms: N_25  and  C_26
REMARK   11  A    between atoms: C_26  and  C_27
REMARK   12  A    between atoms: C_26  and  C_28
REMARK                            x       y       z     vdW  Elec       q    Type
REMARK                         _______ _______ _______ _____ _____    ______ ____
ROOT
ATOM      1  C   UNL     1      48.663   3.309  17.116  0.00  0.00    +0.000 A 
ATOM      2  C   UNL     1      49.265   2.098  16.761  0.00  0.00    +0.000 A 
ATOM      3  C   UNL     1      50.623   1.872  17.011  0.00  0.00    +0.000 A 
ATOM      4  C   UNL     1      51.443   2.840  17.608  0.00  0.00    +0.000 A 
ATOM      5  C   UNL     1      50.831   4.065  17.912  0.00  0.00    +0.000 A 
ATOM      6  C   UNL     1      49.464   4.301  17.685  0.00  0.00    +0.000 A 
ENDROOT
BRANCH   4   7
ATOM      7  N   UNL     1      52.764   2.552  17.927  0.00  0.00    +0.000 N 
ATOM      8  C   UNL     1      53.585   3.544  18.614  0.00  0.00    +0.000 C 
BRANCH   7   9
ATOM      9  C   UNL     1      53.331   1.205  17.780  0.00  0.00    +0.000 C 
BRANCH   9  10
ATOM     10  C   UNL     1      54.871   1.247  17.616  0.00  0.00    +0.000 C 
ATOM     11  C   UNL     1      55.372   0.709  16.274  0.00  0.00    +0.000 C 
ATOM     12  C   UNL     1      55.149  -0.799  16.130  0.00  0.00    +0.000 C 
ATOM     13  N   UNL     1      55.724  -1.599  17.232  0.00  0.00    +0.000 NA
ATOM     14  C   UNL     1      55.321  -1.076  18.550  0.00  0.00    +0.000 C 
ATOM     15  C   UNL     1      55.576   0.426  18.703  0.00  0.00    +0.000 C 
BRANCH  13  16
ATOM     16  C   UNL     1      55.387  -3.042  17.082  0.00  0.00    +0.000 C 
ATOM     17  C   UNL     1      54.367  -3.513  18.133  0.00  0.00    +0.000 C 
ATOM     18  C   UNL     1      54.807  -3.378  15.697  0.00  0.00    +0.000 C 
ENDBRANCH  13  16
ENDBRANCH   9  10
ENDBRANCH   7   9
ENDBRANCH   4   7
BRANCH   1  19
ATOM     19  C   UNL     1      47.180   3.492  16.936  0.00  0.00    +0.000 C 
BRANCH  19  22
ATOM     20  C   UNL     1      46.905   4.206  14.579  0.00  0.00    +0.000 C 
ATOM     21  O   UNL     1      47.175   3.090  14.149  0.00  0.00    +0.000 OA
ATOM     22  N   UNL     1      46.860   4.476  15.924  0.00  0.00    +0.000 N 
ATOM     23  H   UNL     1      46.760   5.431  16.229  0.00  0.00    +0.000 HD
BRANCH  20  31
ATOM     24  C   UNL     1      44.163   5.145  12.712  0.00  0.00    +0.000 A 
ATOM     25  N   UNL     1      43.240   5.773  11.953  0.00  0.00    +0.000 NA
ATOM     26  C   UNL     1      43.588   6.920  11.364  0.00  0.00    +0.000 A 
ATOM     27  N   UNL     1      44.768   7.526  11.425  0.00  0.00    +0.000 NA
ATOM     28  C   UNL     1      45.655   6.874  12.196  0.00  0.00    +0.000 A 
ATOM     29  S   UNL     1      47.218   7.507  12.385  0.00  0.00    +0.000 S 
ATOM     30  C   UNL     1      47.657   6.235  13.422  0.00  0.00    +0.000 A 
ATOM     31  C   UNL     1      46.636   5.320  13.654  0.00  0.00    +0.000 A 
ATOM     32  C   UNL     1      45.445   5.689  12.894  0.00  0.00    +0.000 A 
BRANCH  24  34
ATOM     33  C   UNL     1      43.651   2.881  12.424  0.00  0.00    +0.000 C 
ATOM     34  O   UNL     1      43.795   3.970  13.336  0.00  0.00    +0.000 OA
ENDBRANCH  24  34
ENDBRANCH  20  31
ENDBRANCH  19  22
ENDBRANCH   1  19
TORSDOF 8
ENDMDL
MODEL 5
REMARK VINA RESULT:    -7.008      2.319      2.697
REMARK INTER + INTRA:         -11.497
REMARK INTER:                 -10.038
REMARK INTRA:                  -1.459
REMARK UNBOUND:                -1.212
REMARK  Name = 
REMARK  12 active torsions:
REMARK  status: ('A' for Active; 'I' for Inactive)
REMARK    1  A    between atoms: C_1  and  O_2
REMARK    2  A    between atoms: O_2  and  C_3
REMARK    3  A    between atoms: C_10  and  C_11
REMARK    4  A    between atoms: N_13  and  C_14
REMARK    5  A    between atoms: C_14  and  C_15
REMARK    6  A    between atoms: C_18  and  N_19
REMARK    7  A    between atoms: N_19  and  C_20
REMARK    8  A    between atoms: N_19  and  C_21
REMARK    9  A    between atoms: C_21  and  C_22
REMARK   10  A    between atoms: N_25  and  C_26
REMARK   11  A    between atoms: C_26  and  C_27
REMARK   12  A    between atoms: C_26  and  C_28
REMARK                            x       y       z     vdW  Elec       q    Type
REMARK                         _______ _______ _______ _____ _____    ______ ____
ROOT
ATOM      1  C   UNL     1      48.287   7.022  13.155  0.00  0.00    +0.000 A 
ATOM      2  C   UNL     1      47.842   6.075  14.082  0.00  0.00    +0.000 A 
ATOM      3  C   UNL     1      46.760   5.237  13.788  0.00  0.00    +0.000 A 
ATOM      4  C   UNL     1      46.066   5.313  12.572  0.00  0.00    +0.000 A 
ATOM      5  C   UNL     1      46.498   6.302  11.676  0.00  0.00    +0.000 A 
ATOM      6  C   UNL     1      47.595   7.137  11.948  0.00  0.00    +0.000 A 
ENDROOT
BRANCH   4   7
ATOM      7  N   UNL     1      45.057   4.407  12.274  0.00  0.00    +0.000 N 
ATOM      8  C   UNL     1      43.682   4.679  12.684  0.00  0.00    +0.000 C 
BRANCH   7   9
ATOM      9  C   UNL     1      45.269   3.260  11.380  0.00  0.00    +0.000 C 
BRANCH   9  10
ATOM     10  C   UNL     1      44.213   3.213  10.249  0.00  0.00    +0.000 C 
ATOM     11  C   UNL     1      44.218   1.913   9.442  0.00  0.00    +0.000 C 
ATOM     12  C   UNL     1      45.488   1.754   8.601  0.00  0.00    +0.000 C 
ATOM     13  N   UNL     1      45.762   2.896   7.704  0.00  0.00    +0.000 NA
ATOM     14  C   UNL     1      45.702   4.180   8.427  0.00  0.00    +0.000 C 
ATOM     15  C   UNL     1      44.415   4.351   9.241  0.00  0.00    +0.000 C 
BRANCH  13  16
ATOM     16  C   UNL     1      47.058   2.723   6.992  0.00  0.00    +0.000 C 
ATOM     17  C   UNL     1      47.624   1.301   7.150  0.00  0.00    +0.000 C 
ATOM     18  C   UNL     1      46.952   3.009   5.484  0.00  0.00    +0.000 C 
ENDBRANCH  13  16
ENDBRANCH   9  10
ENDBRANCH   7   9
ENDBRANCH   4   7
BRANCH   1  19
ATOM     19  C   UNL     1      49.517   7.839  13.446  0.00  0.00    +0.000 C 
BRANCH  19  22
ATOM     20  C   UNL     1      51.550   7.682  14.854  0.00  0.00    +0.000 C 
ATOM     21  O   UNL     1      52.184   8.438  14.125  0.00  0.00    +0.000 OA
ATOM     22  N   UNL     1      50.239   7.362  14.607  0.00  0.00    +0.000 N 
ATOM     23  H   UNL     1      49.799   6.641  15.155  0.00  0.00    +0.000 HD
BRANCH  20  31
ATOM     24  C   UNL     1      50.576   7.202  18.127  0.00  0.00    +0.000 A 
ATOM     25  N   UNL     1      50.428   6.823  19.414  0.00  0.00    +0.000 NA
ATOM     26  C   UNL     1      51.421   6.135  19.982  0.00  0.00    +0.000 A 
ATOM     27  N   UNL     1      52.573   5.780  19.423  0.00  0.00    +0.000 NA
ATOM     28  C   UNL     1      52.676   6.168  18.140  0.00  0.00    +0.000 A 
ATOM     29  S   UNL     1      54.086   5.800  17.270  0.00  0.00    +0.000 S 
ATOM     30  C   UNL     1      53.469   6.537  15.870  0.00  0.00    +0.000 A 
ATOM     31  C   UNL     1      52.190   7.063  16.028  0.00  0.00    +0.000 A 
ATOM     32  C   UNL     1      51.728   6.867  17.398  0.00  0.00    +0.000 A 
BRANCH  24  34
ATOM     33  C   UNL     1      48.260   7.526  18.048  0.00  0.00    +0.000 C 
ATOM     34  O   UNL     1      49.540   7.897  17.534  0.00  0.00    +0.000 OA
ENDBRANCH  24  34
ENDBRANCH  20  31
ENDBRANCH  19  22
ENDBRANCH   1  19
TORSDOF 8
ENDMDL
MODEL 6
REMARK VINA RESULT:    -6.721      1.446      2.354
REMARK INTER + INTRA:         -11.077
REMARK INTER:                  -9.650
REMARK INTRA:                  -1.427
REMARK UNBOUND:                -1.212
REMARK  Name = 
REMARK  12 active torsions:
REMARK  status: ('A' for Active; 'I' for Inactive)
REMARK    1  A    between atoms: C_1  and  O_2
REMARK    2  A    between atoms: O_2  and  C_3
REMARK    3  A    between atoms: C_10  and  C_11
REMARK    4  A    between atoms: N_13  and  C_14
REMARK    5  A    between atoms: C_14  and  C_15
REMARK    6  A    between atoms: C_18  and  N_19
REMARK    7  A    between atoms: N_19  and  C_20
REMARK    8  A    between atoms: N_19  and  C_21
REMARK    9  A    between atoms: C_21  and  C_22
REMARK   10  A    between atoms: N_25  and  C_26
REMARK   11  A    between atoms: C_26  and  C_27
REMARK   12  A    between atoms: C_26  and  C_28
REMARK                            x       y       z     vdW  Elec       q    Type
REMARK                         _______ _______ _______ _____ _____    ______ ____
ROOT
ATOM      1  C   UNL     1      49.026   7.917  15.554  0.00  0.00    +0.000 A 
ATOM      2  C   UNL     1      48.766   6.639  15.051  0.00  0.00    +0.000 A 
ATOM      3  C   UNL     1      47.804   6.443  14.054  0.00  0.00    +0.000 A 
ATOM      4  C   UNL     1      47.050   7.500  13.526  0.00  0.00    +0.000 A 
ATOM      5  C   UNL     1      47.293   8.767  14.078  0.00  0.00    +0.000 A 
ATOM      6  C   UNL     1      48.270   8.984  15.065  0.00  0.00    +0.000 A 
ENDROOT
BRANCH   4   7
ATOM      7  N   UNL     1      46.169   7.287  12.473  0.00  0.00    +0.000 N 
ATOM      8  C   UNL     1      45.455   8.412  11.876  0.00  0.00    +0.000 C 
BRANCH   7   9
ATOM      9  C   UNL     1      46.064   5.993  11.787  0.00  0.00    +0.000 C 
BRANCH   9  10
ATOM     10  C   UNL     1      44.829   5.191  12.264  0.00  0.00    +0.000 C 
ATOM     11  C   UNL     1      45.061   3.681  12.361  0.00  0.00    +0.000 C 
ATOM     12  C   UNL     1      45.261   3.033  10.988  0.00  0.00    +0.000 C 
ATOM     13  N   UNL     1      44.170   3.307  10.030  0.00  0.00    +0.000 NA
ATOM     14  C   UNL     1      43.865   4.748   9.952  0.00  0.00    +0.000 C 
ATOM     15  C   UNL     1      43.632   5.387  11.325  0.00  0.00    +0.000 C 
BRANCH  13  16
ATOM     16  C   UNL     1      44.474   2.733   8.689  0.00  0.00    +0.000 C 
ATOM     17  C   UNL     1      45.280   3.704   7.810  0.00  0.00    +0.000 C 
ATOM     18  C   UNL     1      45.270   1.419   8.771  0.00  0.00    +0.000 C 
ENDBRANCH  13  16
ENDBRANCH   9  10
ENDBRANCH   7   9
ENDBRANCH   4   7
BRANCH   1  19
ATOM     19  C   UNL     1      50.138   8.122  16.548  0.00  0.00    +0.000 C 
BRANCH  19  22
ATOM     20  C   UNL     1      50.798   6.276  18.064  0.00  0.00    +0.000 C 
ATOM     21  O   UNL     1      50.095   6.697  18.976  0.00  0.00    +0.000 OA
ATOM     22  N   UNL     1      50.853   6.898  16.842  0.00  0.00    +0.000 N 
ATOM     23  H   UNL     1      51.537   6.595  16.168  0.00  0.00    +0.000 HD
BRANCH  20  31
ATOM     24  C   UNL     1      50.411   2.937  17.296  0.00  0.00    +0.000 A 
ATOM     25  N   UNL     1      50.556   1.617  17.052  0.00  0.00    +0.000 NA
ATOM     26  C   UNL     1      51.701   1.034  17.416  0.00  0.00    +0.000 A 
ATOM     27  N   UNL     1      52.736   1.609  18.018  0.00  0.00    +0.000 NA
ATOM     28  C   UNL     1      52.556   2.923  18.235  0.00  0.00    +0.000 A 
ATOM     29  S   UNL     1      53.780   3.817  18.998  0.00  0.00    +0.000 S 
ATOM     30  C   UNL     1      52.872   5.248  18.880  0.00  0.00    +0.000 A 
ATOM     31  C   UNL     1      51.639   5.082  18.257  0.00  0.00    +0.000 A 
ATOM     32  C   UNL     1      51.439   3.682  17.896  0.00  0.00    +0.000 A 
BRANCH  24  34
ATOM     33  C   UNL     1      48.258   3.584  17.942  0.00  0.00    +0.000 C 
ATOM     34  O   UNL     1      49.234   3.543  16.901  0.00  0.00    +0.000 OA
ENDBRANCH  24  34
ENDBRANCH  20  31
ENDBRANCH  19  22
ENDBRANCH   1  19
TORSDOF 8
ENDMDL
MODEL 7
REMARK VINA RESULT:    -6.707      3.478      9.304
REMARK INTER + INTRA:         -11.056
REMARK INTER:                  -9.395
REMARK INTRA:                  -1.661
REMARK UNBOUND:                -1.212
REMARK  Name = 
REMARK  12 active torsions:
REMARK  status: ('A' for Active; 'I' for Inactive)
REMARK    1  A    between atoms: C_1  and  O_2
REMARK    2  A    between atoms: O_2  and  C_3
REMARK    3  A    between atoms: C_10  and  C_11
REMARK    4  A    between atoms: N_13  and  C_14
REMARK    5  A    between atoms: C_14  and  C_15
REMARK    6  A    between atoms: C_18  and  N_19
REMARK    7  A    between atoms: N_19  and  C_20
REMARK    8  A    between atoms: N_19  and  C_21
REMARK    9  A    between atoms: C_21  and  C_22
REMARK   10  A    between atoms: N_25  and  C_26
REMARK   11  A    between atoms: C_26  and  C_27
REMARK   12  A    between atoms: C_26  and  C_28
REMARK                            x       y       z     vdW  Elec       q    Type
REMARK                         _______ _______ _______ _____ _____    ______ ____
ROOT
ATOM      1  C   UNL     1      48.731   3.360  17.584  0.00  0.00    +0.000 A 
ATOM      2  C   UNL     1      49.167   4.392  18.420  0.00  0.00    +0.000 A 
ATOM      3  C   UNL     1      50.522   4.530  18.743  0.00  0.00    +0.000 A 
ATOM      4  C   UNL     1      51.497   3.644  18.264  0.00  0.00    +0.000 A 
ATOM      5  C   UNL     1      51.033   2.588  17.466  0.00  0.00    +0.000 A 
ATOM      6  C   UNL     1      49.679   2.447  17.116  0.00  0.00    +0.000 A 
ENDROOT
BRANCH   4   7
ATOM      7  N   UNL     1      52.844   3.862  18.527  0.00  0.00    +0.000 N 
ATOM      8  C   UNL     1      53.429   3.398  19.781  0.00  0.00    +0.000 C 
BRANCH   7   9
ATOM      9  C   UNL     1      53.770   4.370  17.507  0.00  0.00    +0.000 C 
BRANCH   9  10
ATOM     10  C   UNL     1      54.473   5.671  17.970  0.00  0.00    +0.000 C 
ATOM     11  C   UNL     1      53.526   6.717  18.563  0.00  0.00    +0.000 C 
ATOM     12  C   UNL     1      52.578   7.307  17.515  0.00  0.00    +0.000 C 
ATOM     13  N   UNL     1      53.265   7.871  16.334  0.00  0.00    +0.000 NA
ATOM     14  C   UNL     1      54.239   6.920  15.766  0.00  0.00    +0.000 C 
ATOM     15  C   UNL     1      55.207   6.358  16.811  0.00  0.00    +0.000 C 
BRANCH  13  16
ATOM     16  C   UNL     1      52.286   8.336  15.313  0.00  0.00    +0.000 C 
ATOM     17  C   UNL     1      52.885   8.349  13.896  0.00  0.00    +0.000 C 
ATOM     18  C   UNL     1      51.017   7.469  15.267  0.00  0.00    +0.000 C 
ENDBRANCH  13  16
ENDBRANCH   9  10
ENDBRANCH   7   9
ENDBRANCH   4   7
BRANCH   1  19
ATOM     19  C   UNL     1      47.288   3.292  17.162  0.00  0.00    +0.000 C 
BRANCH  19  22
ATOM     20  C   UNL     1      47.098   4.110  14.831  0.00  0.00    +0.000 C 
ATOM     21  O   UNL     1      47.490   3.045  14.365  0.00  0.00    +0.000 OA
ATOM     22  N   UNL     1      46.947   4.301  16.181  0.00  0.00    +0.000 N 
ATOM     23  H   UNL     1      46.747   5.225  16.526  0.00  0.00    +0.000 HD
BRANCH  20  31
ATOM     24  C   UNL     1      44.578   4.758  12.569  0.00  0.00    +0.000 A 
ATOM     25  N   UNL     1      43.696   5.295  11.700  0.00  0.00    +0.000 NA
ATOM     26  C   UNL     1      43.927   6.534  11.257  0.00  0.00    +0.000 A 
ATOM     27  N   UNL     1      44.954   7.316  11.566  0.00  0.00    +0.000 NA
ATOM     28  C   UNL     1      45.804   6.749  12.440  0.00  0.00    +0.000 A 
ATOM     29  S   UNL     1      47.177   7.609  12.945  0.00  0.00    +0.000 S 
ATOM     30  C   UNL     1      47.658   6.335  13.960  0.00  0.00    +0.000 A 
ATOM     31  C   UNL     1      46.791   5.246  13.946  0.00  0.00    +0.000 A 
ATOM     32  C   UNL     1      45.695   5.485  13.011  0.00  0.00    +0.000 A 
BRANCH  24  34
ATOM     33  C   UNL     1      43.468   2.736  12.181  0.00  0.00    +0.000 C 
ATOM     34  O   UNL     1      44.328   3.485  13.041  0.00  0.00    +0.000 OA
ENDBRANCH  24  34
ENDBRANCH  20  31
ENDBRANCH  19  22
ENDBRANCH   1  19
TORSDOF 8
ENDMDL
MODEL 8
REMARK VINA RESULT:    -6.703      3.443      8.891
REMARK INTER + INTRA:         -11.049
REMARK INTER:                  -9.401
REMARK INTRA:                  -1.648
REMARK UNBOUND:                -1.212
REMARK  Name = 
REMARK  12 active torsions:
REMARK  status: ('A' for Active; 'I' for Inactive)
REMARK    1  A    between atoms: C_1  and  O_2
REMARK    2  A    between atoms: O_2  and  C_3
REMARK    3  A    between atoms: C_10  and  C_11
REMARK    4  A    between atoms: N_13  and  C_14
REMARK    5  A    between atoms: C_14  and  C_15
REMARK    6  A    between atoms: C_18  and  N_19
REMARK    7  A    between atoms: N_19  and  C_20
REMARK    8  A    between atoms: N_19  and  C_21
REMARK    9  A    between atoms: C_21  and  C_22
REMARK   10  A    between atoms: N_25  and  C_26
REMARK   11  A    between atoms: C_26  and  C_27
REMARK   12  A    between atoms: C_26  and  C_28
REMARK                            x       y       z     vdW  Elec       q    Type
REMARK                         _______ _______ _______ _____ _____    ______ ____
ROOT
ATOM      1  C   UNL     1      48.480   8.057  13.263  0.00  0.00    +0.000 A 
ATOM      2  C   UNL     1      48.025   9.157  13.995  0.00  0.00    +0.000 A 
ATOM      3  C   UNL     1      48.147   9.192  15.389  0.00  0.00    +0.000 A 
ATOM      4  C   UNL     1      48.711   8.133  16.115  0.00  0.00    +0.000 A 
ATOM      5  C   UNL     1      49.117   7.019  15.367  0.00  0.00    +0.000 A 
ATOM      6  C   UNL     1      49.019   6.977  13.965  0.00  0.00    +0.000 A 
ENDROOT
BRANCH   4   7
ATOM      7  N   UNL     1      48.902   8.236  17.487  0.00  0.00    +0.000 N 
ATOM      8  C   UNL     1      49.427   9.471  18.063  0.00  0.00    +0.000 C 
BRANCH   7   9
ATOM      9  C   UNL     1      48.411   7.220  18.427  0.00  0.00    +0.000 C 
BRANCH   9  10
ATOM     10  C   UNL     1      49.551   6.667  19.318  0.00  0.00    +0.000 C 
ATOM     11  C   UNL     1      50.749   6.123  18.537  0.00  0.00    +0.000 C 
ATOM     12  C   UNL     1      50.406   4.851  17.756  0.00  0.00    +0.000 C 
ATOM     13  N   UNL     1      49.824   3.775  18.585  0.00  0.00    +0.000 NA
ATOM     14  C   UNL     1      48.705   4.270  19.408  0.00  0.00    +0.000 C 
ATOM     15  C   UNL     1      49.061   5.523  20.214  0.00  0.00    +0.000 C 
BRANCH  13  16
ATOM     16  C   UNL     1      49.423   2.608  17.751  0.00  0.00    +0.000 C 
ATOM     17  C   UNL     1      48.394   2.990  16.673  0.00  0.00    +0.000 C 
ATOM     18  C   UNL     1      50.616   1.952  17.034  0.00  0.00    +0.000 C 
ENDBRANCH  13  16
ENDBRANCH   9  10
ENDBRANCH   7   9
ENDBRANCH   4   7
BRANCH   1  19
ATOM     19  C   UNL     1      48.438   8.085  11.759  0.00  0.00    +0.000 C 
BRANCH  19  22
ATOM     20  C   UNL     1      46.310   6.919  11.254  0.00  0.00    +0.000 C 
ATOM     21  O   UNL     1      45.634   7.822  11.736  0.00  0.00    +0.000 OA
ATOM     22  N   UNL     1      47.679   6.983  11.204  0.00  0.00    +0.000 N 
ATOM     23  H   UNL     1      48.198   6.169  10.919  0.00  0.00    +0.000 HD
BRANCH  20  31
ATOM     24  C   UNL     1      44.541   4.335  12.699  0.00  0.00    +0.000 A 
ATOM     25  N   UNL     1      43.770   3.263  12.978  0.00  0.00    +0.000 NA
ATOM     26  C   UNL     1      43.382   2.488  11.962  0.00  0.00    +0.000 A 
ATOM     27  N   UNL     1      43.682   2.641  10.678  0.00  0.00    +0.000 NA
ATOM     28  C   UNL     1      44.443   3.723  10.440  0.00  0.00    +0.000 A 
ATOM     29  S   UNL     1      44.924   4.071   8.851  0.00  0.00    +0.000 S 
ATOM     30  C   UNL     1      45.747   5.468   9.357  0.00  0.00    +0.000 A 
ATOM     31  C   UNL     1      45.667   5.704  10.726  0.00  0.00    +0.000 A 
ATOM     32  C   UNL     1      44.909   4.641  11.378  0.00  0.00    +0.000 A 
BRANCH  24  34
ATOM     33  C   UNL     1      46.213   4.809  14.264  0.00  0.00    +0.000 C 
ATOM     34  O   UNL     1      44.925   5.147  13.747  0.00  0.00    +0.000 OA
ENDBRANCH  24  34
ENDBRANCH  20  31
ENDBRANCH  19  22
ENDBRANCH   1  19
TORSDOF 8
ENDMDL
MODEL 9
REMARK VINA RESULT:    -6.639      5.284      6.833
REMARK INTER + INTRA:         -10.956
REMARK INTER:                  -9.613
REMARK INTRA:                  -1.343
REMARK UNBOUND:                -1.212
REMARK  Name = 
REMARK  12 active torsions:
REMARK  status: ('A' for Active; 'I' for Inactive)
REMARK    1  A    between atoms: C_1  and  O_2
REMARK    2  A    between atoms: O_2  and  C_3
REMARK    3  A    between atoms: C_10  and  C_11
REMARK    4  A    between atoms: N_13  and  C_14
REMARK    5  A    between atoms: C_14  and  C_15
REMARK    6  A    between atoms: C_18  and  N_19
REMARK    7  A    between atoms: N_19  and  C_20
REMARK    8  A    between atoms: N_19  and  C_21
REMARK    9  A    between atoms: C_21  and  C_22
REMARK   10  A    between atoms: N_25  and  C_26
REMARK   11  A    between atoms: C_26  and  C_27
REMARK   12  A    between atoms: C_26  and  C_28
REMARK                            x       y       z     vdW  Elec       q    Type
REMARK                         _______ _______ _______ _____ _____    ______ ____
ROOT
ATOM      1  C   UNL     1      48.989   7.601  12.761  0.00  0.00    +0.000 A 
ATOM      2  C   UNL     1      48.198   7.594  11.608  0.00  0.00    +0.000 A 
ATOM      3  C   UNL     1      47.083   6.754  11.510  0.00  0.00    +0.000 A 
ATOM      4  C   UNL     1      46.715   5.878  12.541  0.00  0.00    +0.000 A 
ATOM      5  C   UNL     1      47.549   5.866  13.668  0.00  0.00    +0.000 A 
ATOM      6  C   UNL     1      48.661   6.717  13.791  0.00  0.00    +0.000 A 
ENDROOT
BRANCH   4   7
ATOM      7  N   UNL     1      45.551   5.125  12.450  0.00  0.00    +0.000 N 
ATOM      8  C   UNL     1      44.286   5.671  12.934  0.00  0.00    +0.000 C 
BRANCH   7   9
ATOM      9  C   UNL     1      45.488   3.863  11.703  0.00  0.00    +0.000 C 
BRANCH   9  10
ATOM     10  C   UNL     1      44.349   3.875  10.654  0.00  0.00    +0.000 C 
ATOM     11  C   UNL     1      44.097   2.520   9.987  0.00  0.00    +0.000 C 
ATOM     12  C   UNL     1      45.258   2.090   9.086  0.00  0.00    +0.000 C 
ATOM     13  N   UNL     1      45.624   3.089   8.059  0.00  0.00    +0.000 NA
ATOM     14  C   UNL     1      45.812   4.428   8.648  0.00  0.00    +0.000 C 
ATOM     15  C   UNL     1      44.634   4.870   9.522  0.00  0.00    +0.000 C 
BRANCH  13  16
ATOM     16  C   UNL     1      46.819   2.652   7.285  0.00  0.00    +0.000 C 
ATOM     17  C   UNL     1      47.110   1.152   7.461  0.00  0.00    +0.000 C 
ATOM     18  C   UNL     1      46.681   2.919   5.776  0.00  0.00    +0.000 C 
ENDBRANCH  13  16
ENDBRANCH   9  10
ENDBRANCH   7   9
ENDBRANCH   4   7
BRANCH   1  19
ATOM     19  C   UNL     1      50.120   8.586  12.890  0.00  0.00    +0.000 C 
BRANCH  19  22
ATOM     20  C   UNL     1      52.031   9.162  11.421  0.00  0.00    +0.000 C 
ATOM     21  O   UNL     1      52.846   9.005  12.323  0.00  0.00    +0.000 OA
ATOM     22  N   UNL     1      50.688   8.952  11.610  0.00  0.00    +0.000 N 
ATOM     23  H   UNL     1      50.044   9.215  10.882  0.00  0.00    +0.000 HD
BRANCH  20  31
ATOM     24  C   UNL     1      52.755   7.525   8.474  0.00  0.00    +0.000 A 
ATOM     25  N   UNL     1      53.022   7.161   7.202  0.00  0.00    +0.000 NA
ATOM     26  C   UNL     1      53.297   8.125   6.319  0.00  0.00    +0.000 A 
ATOM     27  N   UNL     1      53.355   9.431   6.552  0.00  0.00    +0.000 NA
ATOM     28  C   UNL     1      53.074   9.752   7.826  0.00  0.00    +0.000 A 
ATOM     29  S   UNL     1      53.104  11.381   8.301  0.00  0.00    +0.000 S 
ATOM     30  C   UNL     1      52.657  10.974   9.889  0.00  0.00    +0.000 A 
ATOM     31  C   UNL     1      52.467   9.610  10.087  0.00  0.00    +0.000 A 
ATOM     32  C   UNL     1      52.746   8.876   8.857  0.00  0.00    +0.000 A 
BRANCH  24  34
ATOM     33  C   UNL     1      53.613   5.963   9.989  0.00  0.00    +0.000 C 
ATOM     34  O   UNL     1      52.452   6.529   9.381  0.00  0.00    +0.000 OA
ENDBRANCH  24  34
ENDBRANCH  20  31
ENDBRANCH  19  22
ENDBRANCH   1  19
TORSDOF 8
ENDMDL
