MODEL 1
REMARK VINA RESULT:    -7.282      0.000      0.000
REMARK INTER + INTRA:         -10.176
REMARK INTER:                  -9.623
REMARK INTRA:                  -0.553
REMARK UNBOUND:                -0.553
REMARK  Name = 
REMARK  6 active torsions:
REMARK  status: ('A' for Active; 'I' for Inactive)
REMARK    1  A    between atoms: N_1  and  C_2
REMARK    2  A    between atoms: C_2  and  C_3
REMARK    3  A    between atoms: C_3  and  C_4
REMARK    4  A    between atoms: C_7  and  N_8
REMARK    5  A    between atoms: N_8  and  C_9
REMARK    6  A    between atoms: C_9  and  C_10
REMARK                            x       y       z     vdW  Elec       q    Type
REMARK                         _______ _______ _______ _____ _____    ______ ____
ROOT
ATOM      1  C   UNL     1      46.170   2.212   7.910  0.00  0.00    +0.000 A 
ATOM      2  C   UNL     1      45.229   1.722   8.822  0.00  0.00    +0.000 A 
ATOM      3  C   UNL     1      44.375   2.593   9.506  0.00  0.00    +0.000 A 
ATOM      4  C   UNL     1      44.465   3.975   9.324  0.00  0.00    +0.000 A 
ATOM      5  C   UNL     1      45.358   4.455   8.364  0.00  0.00    +0.000 A 
ATOM      6  C   UNL     1      46.217   3.591   7.676  0.00  0.00    +0.000 A 
ENDROOT
BRANCH   4   7
ATOM      7  N   UNL     1      43.666   4.904   9.998  0.00  0.00    +0.000 N 
ATOM      8  H   UNL     1      42.827   5.111   9.460  0.00  0.00    +0.000 HD
BRANCH   7   9
ATOM      9  C   UNL     1      43.370   4.651  11.404  0.00  0.00    +0.000 C 
BRANCH   9  10
ATOM     10  C   UNL     1      44.618   4.854  12.216  0.00  0.00    +0.000 A 
ATOM     11  C   UNL     1      45.247   6.105  12.273  0.00  0.00    +0.000 A 
ATOM     12  C   UNL     1      46.416   6.258  13.009  0.00  0.00    +0.000 A 
ATOM     13  C   UNL     1      46.927   5.149  13.661  0.00  0.00    +0.000 A 
ATOM     14  N   UNL     1      46.356   3.925  13.624  0.00  0.00    +0.000 NA
ATOM     15  C   UNL     1      45.219   3.807  12.902  0.00  0.00    +0.000 A 
ENDBRANCH   9  10
ENDBRANCH   7   9
ENDBRANCH   4   7
BRANCH   1  16
ATOM     16  C   UNL     1      47.156   1.289   7.232  0.00  0.00    +0.000 C 
BRANCH  16  17
ATOM     17  C   UNL     1      48.384   2.014   6.667  0.00  0.00    +0.000 C 
BRANCH  17  18
ATOM     18  N   UNL     1      48.400   1.957   5.206  0.00  0.00    +0.000 NA
ATOM     19  H   UNL     1      47.488   2.241   4.848  0.00  0.00    +0.000 HD
ATOM     20  H   UNL     1      48.538   0.994   4.900  0.00  0.00    +0.000 HD
ENDBRANCH  17  18
ENDBRANCH  16  17
ENDBRANCH   1  16
TORSDOF 6
ENDMDL
MODEL 2
REMARK VINA RESULT:    -6.689      1.797      6.015
REMARK INTER + INTRA:          -9.393
REMARK INTER:                  -8.901
REMARK INTRA:                  -0.492
REMARK UNBOUND:                -0.553
REMARK  Name = 
REMARK  6 active torsions:
REMARK  status: ('A' for Active; 'I' for Inactive)
REMARK    1  A    between atoms: N_1  and  C_2
REMARK    2  A    between atoms: C_2  and  C_3
REMARK    3  A    between atoms: C_3  and  C_4
REMARK    4  A    between atoms: C_7  and  N_8
REMARK    5  A    between atoms: N_8  and  C_9
REMARK    6  A    between atoms: C_9  and  C_10
REMARK                            x       y       z     vdW  Elec       q    Type
REMARK                         _______ _______ _______ _____ _____    ______ ____
ROOT
ATOM      1  C   UNL     1      46.612   5.528  12.941  0.00  0.00    +0.000 A 
ATOM      2  C   UNL     1      46.329   6.220  11.758  0.00  0.00    +0.000 A 
ATOM      3  C   UNL     1      45.511   5.653  10.776  0.00  0.00    +0.000 A 
ATOM      4  C   UNL     1      44.987   4.368  10.934  0.00  0.00    +0.000 A 
ATOM      5  C   UNL     1      45.216   3.708  12.144  0.00  0.00    +0.000 A 
ATOM      6  C   UNL     1      46.035   4.268  13.131  0.00  0.00    +0.000 A 
ENDROOT
BRANCH   4   7
ATOM      7  N   UNL     1      44.189   3.728   9.980  0.00  0.00    +0.000 N 
ATOM      8  H   UNL     1      43.203   3.833  10.210  0.00  0.00    +0.000 HD
BRANCH   7   9
ATOM      9  C   UNL     1      44.459   4.005   8.574  0.00  0.00    +0.000 C 
BRANCH   9  10
ATOM     10  C   UNL     1      45.520   3.063   8.080  0.00  0.00    +0.000 A 
ATOM     11  C   UNL     1      46.463   3.473   7.129  0.00  0.00    +0.000 A 
ATOM     12  C   UNL     1      47.417   2.572   6.668  0.00  0.00    +0.000 A 
ATOM     13  C   UNL     1      47.392   1.282   7.169  0.00  0.00    +0.000 A 
ATOM     14  N   UNL     1      46.495   0.845   8.080  0.00  0.00    +0.000 NA
ATOM     15  C   UNL     1      45.580   1.744   8.511  0.00  0.00    +0.000 A 
ENDBRANCH   9  10
ENDBRANCH   7   9
ENDBRANCH   4   7
BRANCH   1  16
ATOM     16  C   UNL     1      47.565   6.093  13.968  0.00  0.00    +0.000 C 
BRANCH  16  17
ATOM     17  C   UNL     1      48.547   7.121  13.392  0.00  0.00    +0.000 C 
BRANCH  17  18
ATOM     18  N   UNL     1      49.868   6.986  14.005  0.00  0.00    +0.000 NA
ATOM     19  H   UNL     1      50.412   7.830  13.820  0.00  0.00    +0.000 HD
ATOM     20  H   UNL     1      50.375   6.219  13.566  0.00  0.00    +0.000 HD
ENDBRANCH  17  18
ENDBRANCH  16  17
ENDBRANCH   1  16
TORSDOF 6
ENDMDL
MODEL 3
REMARK VINA RESULT:    -6.521      2.081      6.298
REMARK INTER + INTRA:          -9.170
REMARK INTER:                  -8.687
REMARK INTRA:                  -0.483
REMARK UNBOUND:                -0.553
REMARK  Name = 
REMARK  6 active torsions:
REMARK  status: ('A' for Active; 'I' for Inactive)
REMARK    1  A    between atoms: N_1  and  C_2
REMARK    2  A    between atoms: C_2  and  C_3
REMARK    3  A    between atoms: C_3  and  C_4
REMARK    4  A    between atoms: C_7  and  N_8
REMARK    5  A    between atoms: N_8  and  C_9
REMARK    6  A    between atoms: C_9  and  C_10
REMARK                            x       y       z     vdW  Elec       q    Type
REMARK                         _______ _______ _______ _____ _____    ______ ____
ROOT
ATOM      1  C   UNL     1      45.602   6.765  12.459  0.00  0.00    +0.000 A 
ATOM      2  C   UNL     1      46.062   5.633  13.141  0.00  0.00    +0.000 A 
ATOM      3  C   UNL     1      45.851   4.351  12.623  0.00  0.00    +0.000 A 
ATOM      4  C   UNL     1      45.144   4.167  11.432  0.00  0.00    +0.000 A 
ATOM      5  C   UNL     1      44.746   5.302  10.721  0.00  0.00    +0.000 A 
ATOM      6  C   UNL     1      44.951   6.588  11.233  0.00  0.00    +0.000 A 
ENDROOT
BRANCH   4   7
ATOM      7  N   UNL     1      44.868   2.915  10.873  0.00  0.00    +0.000 N 
ATOM      8  H   UNL     1      44.325   2.346  11.520  0.00  0.00    +0.000 HD
BRANCH   7   9
ATOM      9  C   UNL     1      44.326   2.881   9.520  0.00  0.00    +0.000 C 
BRANCH   9  10
ATOM     10  C   UNL     1      45.436   2.599   8.548  0.00  0.00    +0.000 A 
ATOM     11  C   UNL     1      45.946   3.608   7.722  0.00  0.00    +0.000 A 
ATOM     12  C   UNL     1      46.955   3.312   6.811  0.00  0.00    +0.000 A 
ATOM     13  C   UNL     1      47.418   2.010   6.751  0.00  0.00    +0.000 A 
ATOM     14  N   UNL     1      46.948   1.007   7.525  0.00  0.00    +0.000 NA
ATOM     15  C   UNL     1      45.968   1.324   8.402  0.00  0.00    +0.000 A 
ENDBRANCH   9  10
ENDBRANCH   7   9
ENDBRANCH   4   7
BRANCH   1  16
ATOM     16  C   UNL     1      45.746   8.147  13.053  0.00  0.00    +0.000 C 
BRANCH  16  17
ATOM     17  C   UNL     1      45.455   9.275  12.057  0.00  0.00    +0.000 C 
BRANCH  17  18
ATOM     18  N   UNL     1      44.330  10.095  12.505  0.00  0.00    +0.000 NA
ATOM     19  H   UNL     1      44.487  11.064  12.226  0.00  0.00    +0.000 HD
ATOM     20  H   UNL     1      44.290  10.098  13.524  0.00  0.00    +0.000 HD
ENDBRANCH  17  18
ENDBRANCH  16  17
ENDBRANCH   1  16
TORSDOF 6
ENDMDL
MODEL 4
REMARK VINA RESULT:    -6.471      1.615      5.983
REMARK INTER + INTRA:          -9.105
REMARK INTER:                  -8.652
REMARK INTRA:                  -0.452
REMARK UNBOUND:                -0.553
REMARK  Name = 
REMARK  6 active torsions:
REMARK  status: ('A' for Active; 'I' for Inactive)
REMARK    1  A    between atoms: N_1  and  C_2
REMARK    2  A    between atoms: C_2  and  C_3
REMARK    3  A    between atoms: C_3  and  C_4
REMARK    4  A    between atoms: C_7  and  N_8
REMARK    5  A    between atoms: N_8  and  C_9
REMARK    6  A    between atoms: C_9  and  C_10
REMARK                            x       y       z     vdW  Elec       q    Type
REMARK                         _______ _______ _______ _____ _____    ______ ____
ROOT
ATOM      1  C   UNL     1      46.930   5.209  13.735  0.00  0.00    +0.000 A 
ATOM      2  C   UNL     1      45.941   4.272  13.412  0.00  0.00    +0.000 A 
ATOM      3  C   UNL     1      45.279   4.327  12.181  0.00  0.00    +0.000 A 
ATOM      4  C   UNL     1      45.560   5.339  11.261  0.00  0.00    +0.000 A 
ATOM      5  C   UNL     1      46.594   6.231  11.558  0.00  0.00    +0.000 A 
ATOM      6  C   UNL     1      47.260   6.184  12.788  0.00  0.00    +0.000 A 
ENDROOT
BRANCH   4   7
ATOM      7  N   UNL     1      44.915   5.473  10.027  0.00  0.00    +0.000 N 
ATOM      8  H   UNL     1      45.541   5.887   9.339  0.00  0.00    +0.000 HD
BRANCH   7   9
ATOM      9  C   UNL     1      44.210   4.310   9.501  0.00  0.00    +0.000 C 
BRANCH   9  10
ATOM     10  C   UNL     1      45.183   3.435   8.762  0.00  0.00    +0.000 A 
ATOM     11  C   UNL     1      46.019   3.963   7.771  0.00  0.00    +0.000 A 
ATOM     12  C   UNL     1      46.890   3.125   7.082  0.00  0.00    +0.000 A 
ATOM     13  C   UNL     1      46.890   1.779   7.403  0.00  0.00    +0.000 A 
ATOM     14  N   UNL     1      46.094   1.229   8.346  0.00  0.00    +0.000 NA
ATOM     15  C   UNL     1      45.259   2.069   9.000  0.00  0.00    +0.000 A 
ENDBRANCH   9  10
ENDBRANCH   7   9
ENDBRANCH   4   7
BRANCH   1  16
ATOM     16  C   UNL     1      47.588   5.212  15.095  0.00  0.00    +0.000 C 
BRANCH  16  17
ATOM     17  C   UNL     1      47.307   3.947  15.914  0.00  0.00    +0.000 C 
BRANCH  17  18
ATOM     18  N   UNL     1      48.208   2.861  15.530  0.00  0.00    +0.000 NA
ATOM     19  H   UNL     1      48.645   3.088  14.636  0.00  0.00    +0.000 HD
ATOM     20  H   UNL     1      47.672   2.008  15.374  0.00  0.00    +0.000 HD
ENDBRANCH  17  18
ENDBRANCH  16  17
ENDBRANCH   1  16
TORSDOF 6
ENDMDL
MODEL 5
REMARK VINA RESULT:    -5.519      2.056      6.392
REMARK INTER + INTRA:          -7.847
REMARK INTER:                  -7.270
REMARK INTRA:                  -0.577
REMARK UNBOUND:                -0.553
REMARK  Name = 
REMARK  6 active torsions:
REMARK  status: ('A' for Active; 'I' for Inactive)
REMARK    1  A    between atoms: N_1  and  C_2
REMARK    2  A    between atoms: C_2  and  C_3
REMARK    3  A    between atoms: C_3  and  C_4
REMARK    4  A    between atoms: C_7  and  N_8
REMARK    5  A    between atoms: N_8  and  C_9
REMARK    6  A    between atoms: C_9  and  C_10
REMARK                            x       y       z     vdW  Elec       q    Type
REMARK                         _______ _______ _______ _____ _____    ______ ____
ROOT
ATOM      1  C   UNL     1      47.249   6.958  13.186  0.00  0.00    +0.000 A 
ATOM      2  C   UNL     1      47.362   5.587  13.443  0.00  0.00    +0.000 A 
ATOM      3  C   UNL     1      46.323   4.710  13.117  0.00  0.00    +0.000 A 
ATOM      4  C   UNL     1      45.133   5.184  12.560  0.00  0.00    +0.000 A 
ATOM      5  C   UNL     1      45.050   6.542  12.242  0.00  0.00    +0.000 A 
ATOM      6  C   UNL     1      46.085   7.427  12.567  0.00  0.00    +0.000 A 
ENDROOT
BRANCH   4   7
ATOM      7  N   UNL     1      44.042   4.370  12.239  0.00  0.00    +0.000 N 
ATOM      8  H   UNL     1      43.355   4.380  12.990  0.00  0.00    +0.000 HD
BRANCH   7   9
ATOM      9  C   UNL     1      43.428   4.545  10.928  0.00  0.00    +0.000 C 
BRANCH   9  10
ATOM     10  C   UNL     1      44.294   3.896   9.886  0.00  0.00    +0.000 A 
ATOM     11  C   UNL     1      44.470   2.507   9.857  0.00  0.00    +0.000 A 
ATOM     12  C   UNL     1      45.300   1.935   8.898  0.00  0.00    +0.000 A 
ATOM     13  C   UNL     1      45.935   2.775   8.000  0.00  0.00    +0.000 A 
ATOM     14  N   UNL     1      45.798   4.119   8.000  0.00  0.00    +0.000 NA
ATOM     15  C   UNL     1      44.984   4.647   8.943  0.00  0.00    +0.000 A 
ENDBRANCH   9  10
ENDBRANCH   7   9
ENDBRANCH   4   7
BRANCH   1  16
ATOM     16  C   UNL     1      48.328   7.925  13.614  0.00  0.00    +0.000 C 
BRANCH  16  17
ATOM     17  C   UNL     1      48.423   8.101  15.134  0.00  0.00    +0.000 C 
BRANCH  17  18
ATOM     18  N   UNL     1      47.468   9.102  15.609  0.00  0.00    +0.000 NA
ATOM     19  H   UNL     1      47.934   9.723  16.272  0.00  0.00    +0.000 HD
ATOM     20  H   UNL     1      46.719   8.644  16.128  0.00  0.00    +0.000 HD
ENDBRANCH  17  18
ENDBRANCH  16  17
ENDBRANCH   1  16
TORSDOF 6
ENDMDL
MODEL 6
REMARK VINA RESULT:    -5.487      3.171      5.596
REMARK INTER + INTRA:          -7.804
REMARK INTER:                  -7.381
REMARK INTRA:                  -0.422
REMARK UNBOUND:                -0.553
REMARK  Name = 
REMARK  6 active torsions:
REMARK  status: ('A' for Active; 'I' for Inactive)
REMARK    1  A    between atoms: N_1  and  C_2
REMARK    2  A    between atoms: C_2  and  C_3
REMARK    3  A    between atoms: C_3  and  C_4
REMARK    4  A    between atoms: C_7  and  N_8
REMARK    5  A    between atoms: N_8  and  C_9
REMARK    6  A    between atoms: C_9  and  C_10
REMARK                            x       y       z     vdW  Elec       q    Type
REMARK                         _______ _______ _______ _____ _____    ______ ____
ROOT
ATOM      1  C   UNL     1      45.207   4.735  11.614  0.00  0.00    +0.000 A 
ATOM      2  C   UNL     1      45.686   6.004  11.960  0.00  0.00    +0.000 A 
ATOM      3  C   UNL     1      46.439   6.191  13.123  0.00  0.00    +0.000 A 
ATOM      4  C   UNL     1      46.702   5.125  13.986  0.00  0.00    +0.000 A 
ATOM      5  C   UNL     1      46.281   3.849  13.603  0.00  0.00    +0.000 A 
ATOM      6  C   UNL     1      45.524   3.653  12.442  0.00  0.00    +0.000 A 
ENDROOT
BRANCH   4   7
ATOM      7  N   UNL     1      47.420   5.246  15.180  0.00  0.00    +0.000 N 
ATOM      8  H   UNL     1      47.394   6.206  15.517  0.00  0.00    +0.000 HD
BRANCH   7   9
ATOM      9  C   UNL     1      47.141   4.283  16.240  0.00  0.00    +0.000 C 
BRANCH   9  10
ATOM     10  C   UNL     1      48.422   3.614  16.649  0.00  0.00    +0.000 A 
ATOM     11  C   UNL     1      49.380   4.294  17.412  0.00  0.00    +0.000 A 
ATOM     12  C   UNL     1      50.570   3.660  17.753  0.00  0.00    +0.000 A 
ATOM     13  C   UNL     1      50.768   2.363  17.312  0.00  0.00    +0.000 A 
ATOM     14  N   UNL     1      49.873   1.676  16.568  0.00  0.00    +0.000 NA
ATOM     15  C   UNL     1      48.725   2.318  16.253  0.00  0.00    +0.000 A 
ENDBRANCH   9  10
ENDBRANCH   7   9
ENDBRANCH   4   7
BRANCH   1  16
ATOM     16  C   UNL     1      44.318   4.537  10.408  0.00  0.00    +0.000 C 
BRANCH  16  17
ATOM     17  C   UNL     1      45.059   3.983   9.186  0.00  0.00    +0.000 C 
BRANCH  17  18
ATOM     18  N   UNL     1      45.703   5.057   8.430  0.00  0.00    +0.000 NA
ATOM     19  H   UNL     1      46.556   4.700   7.999  0.00  0.00    +0.000 HD
ATOM     20  H   UNL     1      45.995   5.798   9.066  0.00  0.00    +0.000 HD
ENDBRANCH  17  18
ENDBRANCH  16  17
ENDBRANCH   1  16
TORSDOF 6
ENDMDL
MODEL 7
REMARK VINA RESULT:    -5.455      2.272      6.901
REMARK INTER + INTRA:          -7.762
REMARK INTER:                  -7.428
REMARK INTRA:                  -0.334
REMARK UNBOUND:                -0.553
REMARK  Name = 
REMARK  6 active torsions:
REMARK  status: ('A' for Active; 'I' for Inactive)
REMARK    1  A    between atoms: N_1  and  C_2
REMARK    2  A    between atoms: C_2  and  C_3
REMARK    3  A    between atoms: C_3  and  C_4
REMARK    4  A    between atoms: C_7  and  N_8
REMARK    5  A    between atoms: N_8  and  C_9
REMARK    6  A    between atoms: C_9  and  C_10
REMARK                            x       y       z     vdW  Elec       q    Type
REMARK                         _______ _______ _______ _____ _____    ______ ____
ROOT
ATOM      1  C   UNL     1      47.728   5.009  15.513  0.00  0.00    +0.000 A 
ATOM      2  C   UNL     1      48.222   6.202  14.973  0.00  0.00    +0.000 A 
ATOM      3  C   UNL     1      47.833   6.625  13.699  0.00  0.00    +0.000 A 
ATOM      4  C   UNL     1      46.972   5.850  12.918  0.00  0.00    +0.000 A 
ATOM      5  C   UNL     1      46.428   4.695  13.486  0.00  0.00    +0.000 A 
ATOM      6  C   UNL     1      46.814   4.264  14.760  0.00  0.00    +0.000 A 
ENDROOT
BRANCH   4   7
ATOM      7  N   UNL     1      46.566   6.196  11.625  0.00  0.00    +0.000 N 
ATOM      8  H   UNL     1      47.233   5.852  10.937  0.00  0.00    +0.000 HD
BRANCH   7   9
ATOM      9  C   UNL     1      45.188   5.908  11.247  0.00  0.00    +0.000 C 
BRANCH   9  10
ATOM     10  C   UNL     1      45.181   4.914  10.120  0.00  0.00    +0.000 A 
ATOM     11  C   UNL     1      44.515   3.689  10.242  0.00  0.00    +0.000 A 
ATOM     12  C   UNL     1      44.549   2.775   9.195  0.00  0.00    +0.000 A 
ATOM     13  C   UNL     1      45.258   3.115   8.056  0.00  0.00    +0.000 A 
ATOM     14  N   UNL     1      45.920   4.282   7.901  0.00  0.00    +0.000 NA
ATOM     15  C   UNL     1      45.868   5.152   8.937  0.00  0.00    +0.000 A 
ENDBRANCH   9  10
ENDBRANCH   7   9
ENDBRANCH   4   7
BRANCH   1  16
ATOM     16  C   UNL     1      48.210   4.498  16.851  0.00  0.00    +0.000 C 
BRANCH  16  17
ATOM     17  C   UNL     1      47.915   3.011  17.081  0.00  0.00    +0.000 C 
BRANCH  17  18
ATOM     18  N   UNL     1      46.638   2.830  17.769  0.00  0.00    +0.000 NA
ATOM     19  H   UNL     1      46.161   3.730  17.837  0.00  0.00    +0.000 HD
ATOM     20  H   UNL     1      46.803   2.524  18.728  0.00  0.00    +0.000 HD
ENDBRANCH  17  18
ENDBRANCH  16  17
ENDBRANCH   1  16
TORSDOF 6
ENDMDL
MODEL 8
REMARK VINA RESULT:    -4.927      3.116      4.960
REMARK INTER + INTRA:          -7.064
REMARK INTER:                  -6.551
REMARK INTRA:                  -0.513
REMARK UNBOUND:                -0.553
REMARK  Name = 
REMARK  6 active torsions:
REMARK  status: ('A' for Active; 'I' for Inactive)
REMARK    1  A    between atoms: N_1  and  C_2
REMARK    2  A    between atoms: C_2  and  C_3
REMARK    3  A    between atoms: C_3  and  C_4
REMARK    4  A    between atoms: C_7  and  N_8
REMARK    5  A    between atoms: N_8  and  C_9
REMARK    6  A    between atoms: C_9  and  C_10
REMARK                            x       y       z     vdW  Elec       q    Type
REMARK                         _______ _______ _______ _____ _____    ______ ____
ROOT
ATOM      1  C   UNL     1      44.854   3.896  11.207  0.00  0.00    +0.000 A 
ATOM      2  C   UNL     1      45.148   5.159  10.680  0.00  0.00    +0.000 A 
ATOM      3  C   UNL     1      45.800   6.124  11.455  0.00  0.00    +0.000 A 
ATOM      4  C   UNL     1      46.140   5.864  12.785  0.00  0.00    +0.000 A 
ATOM      5  C   UNL     1      45.907   4.581  13.286  0.00  0.00    +0.000 A 
ATOM      6  C   UNL     1      45.253   3.611  12.517  0.00  0.00    +0.000 A 
ENDROOT
BRANCH   4   7
ATOM      7  N   UNL     1      46.763   6.792  13.626  0.00  0.00    +0.000 N 
ATOM      8  H   UNL     1      47.584   6.381  14.066  0.00  0.00    +0.000 HD
BRANCH   7   9
ATOM      9  C   UNL     1      47.034   8.120  13.088  0.00  0.00    +0.000 C 
BRANCH   9  10
ATOM     10  C   UNL     1      48.506   8.253  12.817  0.00  0.00    +0.000 A 
ATOM     11  C   UNL     1      49.057   7.838  11.598  0.00  0.00    +0.000 A 
ATOM     12  C   UNL     1      50.427   7.946  11.385  0.00  0.00    +0.000 A 
ATOM     13  C   UNL     1      51.207   8.462  12.405  0.00  0.00    +0.000 A 
ATOM     14  N   UNL     1      50.716   8.865  13.598  0.00  0.00    +0.000 NA
ATOM     15  C   UNL     1      49.380   8.749  13.775  0.00  0.00    +0.000 A 
ENDBRANCH   9  10
ENDBRANCH   7   9
ENDBRANCH   4   7
BRANCH   1  16
ATOM     16  C   UNL     1      44.073   2.879  10.409  0.00  0.00    +0.000 C 
BRANCH  16  17
ATOM     17  C   UNL     1      44.600   2.683   8.983  0.00  0.00    +0.000 C 
BRANCH  17  18
ATOM     18  N   UNL     1      45.642   1.658   8.945  0.00  0.00    +0.000 NA
ATOM     19  H   UNL     1      46.515   2.052   9.297  0.00  0.00    +0.000 HD
ATOM     20  H   UNL     1      45.824   1.387   7.978  0.00  0.00    +0.000 HD
ENDBRANCH  17  18
ENDBRANCH  16  17
ENDBRANCH   1  16
TORSDOF 6
ENDMDL
MODEL 9
REMARK VINA RESULT:    -4.583      2.735      4.098
REMARK INTER + INTRA:          -6.609
REMARK INTER:                  -6.284
REMARK INTRA:                  -0.325
REMARK UNBOUND:                -0.553
REMARK  Name = 
REMARK  6 active torsions:
REMARK  status: ('A' for Active; 'I' for Inactive)
REMARK    1  A    between atoms: N_1  and  C_2
REMARK    2  A    between atoms: C_2  and  C_3
REMARK    3  A    between atoms: C_3  and  C_4
REMARK    4  A    between atoms: C_7  and  N_8
REMARK    5  A    between atoms: N_8  and  C_9
REMARK    6  A    between atoms: C_9  and  C_10
REMARK                            x       y       z     vdW  Elec       q    Type
REMARK                         _______ _______ _______ _____ _____    ______ ____
ROOT
ATOM      1  C   UNL     1      44.679   4.191   9.648  0.00  0.00    +0.000 A 
ATOM      2  C   UNL     1      45.670   5.179   9.622  0.00  0.00    +0.000 A 
ATOM      3  C   UNL     1      45.741   6.148  10.628  0.00  0.00    +0.000 A 
ATOM      4  C   UNL     1      44.803   6.177  11.662  0.00  0.00    +0.000 A 
ATOM      5  C   UNL     1      43.857   5.150  11.722  0.00  0.00    +0.000 A 
ATOM      6  C   UNL     1      43.778   4.178  10.718  0.00  0.00    +0.000 A 
ENDROOT
BRANCH   4   7
ATOM      7  N   UNL     1      44.794   7.134  12.682  0.00  0.00    +0.000 N 
ATOM      8  H   UNL     1      45.235   6.766  13.522  0.00  0.00    +0.000 HD
BRANCH   7   9
ATOM      9  C   UNL     1      45.264   8.476  12.355  0.00  0.00    +0.000 C 
BRANCH   9  10
ATOM     10  C   UNL     1      46.727   8.580  12.682  0.00  0.00    +0.000 A 
ATOM     11  C   UNL     1      47.292   7.819  13.714  0.00  0.00    +0.000 A 
ATOM     12  C   UNL     1      48.643   7.957  14.014  0.00  0.00    +0.000 A 
ATOM     13  C   UNL     1      49.387   8.859  13.275  0.00  0.00    +0.000 A 
ATOM     14  N   UNL     1      48.879   9.617  12.279  0.00  0.00    +0.000 NA
ATOM     15  C   UNL     1      47.562   9.461  12.008  0.00  0.00    +0.000 A 
ENDBRANCH   9  10
ENDBRANCH   7   9
ENDBRANCH   4   7
BRANCH   1  16
ATOM     16  C   UNL     1      44.539   3.194   8.521  0.00  0.00    +0.000 C 
BRANCH  16  17
ATOM     17  C   UNL     1      45.145   1.822   8.839  0.00  0.00    +0.000 C 
BRANCH  17  18
ATOM     18  N   UNL     1      46.376   1.603   8.081  0.00  0.00    +0.000 NA
ATOM     19  H   UNL     1      46.702   2.493   7.704  0.00  0.00    +0.000 HD
ATOM     20  H   UNL     1      46.183   1.008   7.276  0.00  0.00    +0.000 HD
ENDBRANCH  17  18
ENDBRANCH  16  17
ENDBRANCH   1  16
TORSDOF 6
ENDMDL
