MODEL 1
REMARK VINA RESULT:    -8.591      0.000      0.000
REMARK INTER + INTRA:         -11.211
REMARK INTER:                 -10.600
REMARK INTRA:                  -0.611
REMARK UNBOUND:                -0.611
REMARK  Name = 
REMARK  4 active torsions:
REMARK  status: ('A' for Active; 'I' for Inactive)
REMARK    1  A    between atoms: C_2  and  C_4
REMARK    2  A    between atoms: N_8  and  C_9
REMARK    3  A    between atoms: C_9  and  C_10
REMARK    4  A    between atoms: C_14  and  C_15
REMARK                            x       y       z     vdW  Elec       q    Type
REMARK                         _______ _______ _______ _____ _____    ______ ____
ROOT
ATOM      1  C   UNL     1      43.418   3.690  11.190  0.00  0.00    +0.000 C 
ENDROOT
BRANCH   1   6
ATOM      2  C   UNL     1      46.573   2.499   7.266  0.00  0.00    +0.000 A 
ATOM      3  C   UNL     1      46.016   3.717   7.634  0.00  0.00    +0.000 A 
ATOM      4  C   UNL     1      45.171   3.772   8.745  0.00  0.00    +0.000 A 
ATOM      5  C   UNL     1      44.899   2.614   9.466  0.00  0.00    +0.000 A 
ATOM      6  N   UNL     1      44.150   2.590  10.609  0.00  0.00    +0.000 N 
ATOM      7  N   UNL     1      45.400   1.421   9.088  0.00  0.00    +0.000 NA
ATOM      8  C   UNL     1      46.214   1.382   8.002  0.00  0.00    +0.000 A 
ATOM      9  H   UNL     1      44.000   1.655  10.964  0.00  0.00    +0.000 HD
BRANCH   2  11
ATOM     10  N   UNL     1      47.462   3.310   5.159  0.00  0.00    +0.000 N 
ATOM     11  C   UNL     1      47.517   2.358   6.139  0.00  0.00    +0.000 C 
ATOM     12  O   UNL     1      48.341   1.453   6.102  0.00  0.00    +0.000 OA
ATOM     13  H   UNL     1      48.182   3.269   4.448  0.00  0.00    +0.000 HD
ATOM     14  H   UNL     1      46.980   4.190   5.281  0.00  0.00    +0.000 HD
ENDBRANCH   2  11
ENDBRANCH   1   6
BRANCH   1  15
ATOM     15  C   UNL     1      44.315   4.702  11.851  0.00  0.00    +0.000 A 
ATOM     16  C   UNL     1      45.169   4.317  12.876  0.00  0.00    +0.000 A 
ATOM     17  N   UNL     1      45.988   5.162  13.534  0.00  0.00    +0.000 NA
ATOM     18  C   UNL     1      45.954   6.464  13.153  0.00  0.00    +0.000 A 
ATOM     19  C   UNL     1      45.128   6.993  12.158  0.00  0.00    +0.000 A 
ATOM     20  C   UNL     1      44.288   6.065  11.522  0.00  0.00    +0.000 A 
BRANCH  19  21
ATOM     21  C   UNL     1      45.139   8.426  11.787  0.00  0.00    +0.000 A 
ATOM     22  C   UNL     1      46.188   9.279  12.190  0.00  0.00    +0.000 A 
ATOM     23  C   UNL     1      46.214  10.635  11.840  0.00  0.00    +0.000 A 
ATOM     24  C   UNL     1      45.179  11.175  11.088  0.00  0.00    +0.000 A 
ATOM     25  C   UNL     1      44.134  10.354  10.690  0.00  0.00    +0.000 A 
ATOM     26  F   UNL     1      43.130  10.871   9.969  0.00  0.00    +0.000 F 
ATOM     27  C   UNL     1      44.109   9.000  11.023  0.00  0.00    +0.000 A 
ENDBRANCH  19  21
ENDBRANCH   1  15
TORSDOF 4
ENDMDL
MODEL 2
REMARK VINA RESULT:    -8.509      4.036      7.232
REMARK INTER + INTRA:         -11.110
REMARK INTER:                 -10.342
REMARK INTRA:                  -0.768
REMARK UNBOUND:                -0.611
REMARK  Name = 
REMARK  4 active torsions:
REMARK  status: ('A' for Active; 'I' for Inactive)
REMARK    1  A    between atoms: C_2  and  C_4
REMARK    2  A    between atoms: N_8  and  C_9
REMARK    3  A    between atoms: C_9  and  C_10
REMARK    4  A    between atoms: C_14  and  C_15
REMARK                            x       y       z     vdW  Elec       q    Type
REMARK                         _______ _______ _______ _____ _____    ______ ____
ROOT
ATOM      1  C   UNL     1      44.429   6.254  12.348  0.00  0.00    +0.000 C 
ENDROOT
BRANCH   1   6
ATOM      2  C   UNL     1      49.412   7.620  12.612  0.00  0.00    +0.000 A 
ATOM      3  C   UNL     1      48.492   7.771  11.583  0.00  0.00    +0.000 A 
ATOM      4  C   UNL     1      47.190   7.297  11.758  0.00  0.00    +0.000 A 
ATOM      5  C   UNL     1      46.831   6.685  12.954  0.00  0.00    +0.000 A 
ATOM      6  N   UNL     1      45.563   6.265  13.242  0.00  0.00    +0.000 N 
ATOM      7  N   UNL     1      47.731   6.495  13.941  0.00  0.00    +0.000 NA
ATOM      8  C   UNL     1      48.995   6.954  13.752  0.00  0.00    +0.000 A 
ATOM      9  H   UNL     1      45.497   5.782  14.129  0.00  0.00    +0.000 HD
BRANCH   2  11
ATOM     10  N   UNL     1      51.609   7.899  13.605  0.00  0.00    +0.000 N 
ATOM     11  C   UNL     1      50.793   8.137  12.534  0.00  0.00    +0.000 C 
ATOM     12  O   UNL     1      51.205   8.718  11.537  0.00  0.00    +0.000 OA
ATOM     13  H   UNL     1      52.582   8.160  13.500  0.00  0.00    +0.000 HD
ATOM     14  H   UNL     1      51.385   7.219  14.319  0.00  0.00    +0.000 HD
ENDBRANCH   2  11
ENDBRANCH   1   6
BRANCH   1  15
ATOM     15  C   UNL     1      44.252   4.934  11.649  0.00  0.00    +0.000 A 
ATOM     16  C   UNL     1      43.344   4.000  12.135  0.00  0.00    +0.000 A 
ATOM     17  N   UNL     1      43.139   2.788  11.581  0.00  0.00    +0.000 NA
ATOM     18  C   UNL     1      43.880   2.485  10.486  0.00  0.00    +0.000 A 
ATOM     19  C   UNL     1      44.844   3.314   9.908  0.00  0.00    +0.000 A 
ATOM     20  C   UNL     1      45.021   4.556  10.540  0.00  0.00    +0.000 A 
BRANCH  19  21
ATOM     21  C   UNL     1      45.620   2.925   8.709  0.00  0.00    +0.000 A 
ATOM     22  C   UNL     1      46.019   3.881   7.751  0.00  0.00    +0.000 A 
ATOM     23  C   UNL     1      46.759   3.526   6.616  0.00  0.00    +0.000 A 
ATOM     24  C   UNL     1      47.105   2.198   6.404  0.00  0.00    +0.000 A 
ATOM     25  C   UNL     1      46.714   1.242   7.330  0.00  0.00    +0.000 A 
ATOM     26  F   UNL     1      47.041  -0.041   7.128  0.00  0.00    +0.000 F 
ATOM     27  C   UNL     1      45.990   1.590   8.469  0.00  0.00    +0.000 A 
ENDBRANCH  19  21
ENDBRANCH   1  15
TORSDOF 4
ENDMDL
MODEL 3
REMARK VINA RESULT:    -8.428      3.135      4.530
REMARK INTER + INTRA:         -11.010
REMARK INTER:                 -10.512
REMARK INTRA:                  -0.499
REMARK UNBOUND:                -0.611
REMARK  Name = 
REMARK  4 active torsions:
REMARK  status: ('A' for Active; 'I' for Inactive)
REMARK    1  A    between atoms: C_2  and  C_4
REMARK    2  A    between atoms: N_8  and  C_9
REMARK    3  A    between atoms: C_9  and  C_10
REMARK    4  A    between atoms: C_14  and  C_15
REMARK                            x       y       z     vdW  Elec       q    Type
REMARK                         _______ _______ _______ _____ _____    ______ ____
ROOT
ATOM      1  C   UNL     1      43.535   3.875  11.247  0.00  0.00    +0.000 C 
ENDROOT
BRANCH   1   6
ATOM      2  C   UNL     1      46.536   2.490   7.267  0.00  0.00    +0.000 A 
ATOM      3  C   UNL     1      46.037   3.736   7.625  0.00  0.00    +0.000 A 
ATOM      4  C   UNL     1      45.224   3.844   8.756  0.00  0.00    +0.000 A 
ATOM      5  C   UNL     1      44.927   2.711   9.506  0.00  0.00    +0.000 A 
ATOM      6  N   UNL     1      44.208   2.737  10.669  0.00  0.00    +0.000 N 
ATOM      7  N   UNL     1      45.371   1.492   9.139  0.00  0.00    +0.000 NA
ATOM      8  C   UNL     1      46.154   1.401   8.033  0.00  0.00    +0.000 A 
ATOM      9  H   UNL     1      44.031   1.814  11.045  0.00  0.00    +0.000 HD
BRANCH   2  11
ATOM     10  N   UNL     1      47.347   3.185   5.088  0.00  0.00    +0.000 N 
ATOM     11  C   UNL     1      47.444   2.292   6.119  0.00  0.00    +0.000 C 
ATOM     12  O   UNL     1      48.275   1.392   6.106  0.00  0.00    +0.000 OA
ATOM     13  H   UNL     1      48.043   3.108   4.357  0.00  0.00    +0.000 HD
ATOM     14  H   UNL     1      46.860   4.067   5.176  0.00  0.00    +0.000 HD
ENDBRANCH   2  11
ENDBRANCH   1   6
BRANCH   1  15
ATOM     15  C   UNL     1      44.487   4.864  11.863  0.00  0.00    +0.000 A 
ATOM     16  C   UNL     1      44.630   6.133  11.317  0.00  0.00    +0.000 A 
ATOM     17  N   UNL     1      45.473   7.070  11.794  0.00  0.00    +0.000 NA
ATOM     18  C   UNL     1      46.222   6.724  12.871  0.00  0.00    +0.000 A 
ATOM     19  C   UNL     1      46.201   5.478  13.504  0.00  0.00    +0.000 A 
ATOM     20  C   UNL     1      45.312   4.542  12.950  0.00  0.00    +0.000 A 
BRANCH  19  21
ATOM     21  C   UNL     1      47.043   5.163  14.680  0.00  0.00    +0.000 A 
ATOM     22  C   UNL     1      48.048   6.049  15.120  0.00  0.00    +0.000 A 
ATOM     23  C   UNL     1      48.847   5.766  16.235  0.00  0.00    +0.000 A 
ATOM     24  C   UNL     1      48.667   4.577  16.930  0.00  0.00    +0.000 A 
ATOM     25  C   UNL     1      47.689   3.689  16.507  0.00  0.00    +0.000 A 
ATOM     26  F   UNL     1      47.515   2.538  17.170  0.00  0.00    +0.000 F 
ATOM     27  C   UNL     1      46.881   3.971  15.406  0.00  0.00    +0.000 A 
ENDBRANCH  19  21
ENDBRANCH   1  15
TORSDOF 4
ENDMDL
MODEL 4
REMARK VINA RESULT:    -8.189      3.077      3.636
REMARK INTER + INTRA:         -10.715
REMARK INTER:                 -10.109
REMARK INTRA:                  -0.606
REMARK UNBOUND:                -0.611
REMARK  Name = 
REMARK  4 active torsions:
REMARK  status: ('A' for Active; 'I' for Inactive)
REMARK    1  A    between atoms: C_2  and  C_4
REMARK    2  A    between atoms: N_8  and  C_9
REMARK    3  A    between atoms: C_9  and  C_10
REMARK    4  A    between atoms: C_14  and  C_15
REMARK                            x       y       z     vdW  Elec       q    Type
REMARK                         _______ _______ _______ _____ _____    ______ ____
ROOT
ATOM      1  C   UNL     1      43.795   5.085  10.910  0.00  0.00    +0.000 C 
ENDROOT
BRANCH   1   6
ATOM      2  C   UNL     1      46.507   2.253   7.535  0.00  0.00    +0.000 A 
ATOM      3  C   UNL     1      46.030   1.931   8.799  0.00  0.00    +0.000 A 
ATOM      4  C   UNL     1      45.325   2.894   9.526  0.00  0.00    +0.000 A 
ATOM      5  C   UNL     1      45.110   4.155   8.979  0.00  0.00    +0.000 A 
ATOM      6  N   UNL     1      44.365   5.128   9.584  0.00  0.00    +0.000 N 
ATOM      7  N   UNL     1      45.608   4.488   7.771  0.00  0.00    +0.000 NA
ATOM      8  C   UNL     1      46.297   3.544   7.079  0.00  0.00    +0.000 A 
ATOM      9  H   UNL     1      44.368   6.002   9.076  0.00  0.00    +0.000 HD
BRANCH   2  11
ATOM     10  N   UNL     1      48.224   1.767   5.890  0.00  0.00    +0.000 N 
ATOM     11  C   UNL     1      47.214   1.283   6.676  0.00  0.00    +0.000 C 
ATOM     12  O   UNL     1      46.939   0.089   6.694  0.00  0.00    +0.000 OA
ATOM     13  H   UNL     1      48.774   1.082   5.388  0.00  0.00    +0.000 HD
ATOM     14  H   UNL     1      48.636   2.679   6.035  0.00  0.00    +0.000 HD
ENDBRANCH   2  11
ENDBRANCH   1   6
BRANCH   1  15
ATOM     15  C   UNL     1      44.839   5.097  11.993  0.00  0.00    +0.000 A 
ATOM     16  C   UNL     1      44.688   4.301  13.121  0.00  0.00    +0.000 A 
ATOM     17  N   UNL     1      45.565   4.267  14.145  0.00  0.00    +0.000 NA
ATOM     18  C   UNL     1      46.651   5.075  14.044  0.00  0.00    +0.000 A 
ATOM     19  C   UNL     1      46.915   5.944  12.982  0.00  0.00    +0.000 A 
ATOM     20  C   UNL     1      45.958   5.943  11.956  0.00  0.00    +0.000 A 
BRANCH  19  21
ATOM     21  C   UNL     1      48.123   6.799  12.930  0.00  0.00    +0.000 A 
ATOM     22  C   UNL     1      48.526   7.425  11.732  0.00  0.00    +0.000 A 
ATOM     23  C   UNL     1      49.662   8.242  11.671  0.00  0.00    +0.000 A 
ATOM     24  C   UNL     1      50.433   8.441  12.810  0.00  0.00    +0.000 A 
ATOM     25  C   UNL     1      50.056   7.827  13.996  0.00  0.00    +0.000 A 
ATOM     26  F   UNL     1      50.798   8.011  15.095  0.00  0.00    +0.000 F 
ATOM     27  C   UNL     1      48.919   7.024  14.067  0.00  0.00    +0.000 A 
ENDBRANCH  19  21
ENDBRANCH   1  15
TORSDOF 4
ENDMDL
MODEL 5
REMARK VINA RESULT:    -8.116      1.990      2.403
REMARK INTER + INTRA:         -10.625
REMARK INTER:                  -9.980
REMARK INTRA:                  -0.645
REMARK UNBOUND:                -0.611
REMARK  Name = 
REMARK  4 active torsions:
REMARK  status: ('A' for Active; 'I' for Inactive)
REMARK    1  A    between atoms: C_2  and  C_4
REMARK    2  A    between atoms: N_8  and  C_9
REMARK    3  A    between atoms: C_9  and  C_10
REMARK    4  A    between atoms: C_14  and  C_15
REMARK                            x       y       z     vdW  Elec       q    Type
REMARK                         _______ _______ _______ _____ _____    ______ ____
ROOT
ATOM      1  C   UNL     1      43.742   4.883  11.077  0.00  0.00    +0.000 C 
ENDROOT
BRANCH   1   6
ATOM      2  C   UNL     1      46.562   2.703   7.328  0.00  0.00    +0.000 A 
ATOM      3  C   UNL     1      46.454   4.033   7.712  0.00  0.00    +0.000 A 
ATOM      4  C   UNL     1      45.598   4.370   8.764  0.00  0.00    +0.000 A 
ATOM      5  C   UNL     1      44.870   3.376   9.411  0.00  0.00    +0.000 A 
ATOM      6  N   UNL     1      44.074   3.604  10.497  0.00  0.00    +0.000 N 
ATOM      7  N   UNL     1      44.937   2.089   9.013  0.00  0.00    +0.000 NA
ATOM      8  C   UNL     1      45.768   1.778   7.984  0.00  0.00    +0.000 A 
ATOM      9  H   UNL     1      43.569   2.780  10.797  0.00  0.00    +0.000 HD
BRANCH   2  11
ATOM     10  N   UNL     1      47.447   2.936   5.080  0.00  0.00    +0.000 N 
ATOM     11  C   UNL     1      47.480   2.250   6.263  0.00  0.00    +0.000 C 
ATOM     12  O   UNL     1      48.266   1.328   6.442  0.00  0.00    +0.000 OA
ATOM     13  H   UNL     1      48.152   2.691   4.396  0.00  0.00    +0.000 HD
ATOM     14  H   UNL     1      47.003   3.840   4.987  0.00  0.00    +0.000 HD
ENDBRANCH   2  11
ENDBRANCH   1   6
BRANCH   1  15
ATOM     15  C   UNL     1      44.847   5.438  11.934  0.00  0.00    +0.000 A 
ATOM     16  C   UNL     1      45.206   4.799  13.115  0.00  0.00    +0.000 A 
ATOM     17  N   UNL     1      46.169   5.239  13.949  0.00  0.00    +0.000 NA
ATOM     18  C   UNL     1      46.808   6.382  13.593  0.00  0.00    +0.000 A 
ATOM     19  C   UNL     1      46.533   7.139  12.451  0.00  0.00    +0.000 A 
ATOM     20  C   UNL     1      45.510   6.636  11.632  0.00  0.00    +0.000 A 
BRANCH  19  21
ATOM     21  C   UNL     1      47.270   8.379  12.117  0.00  0.00    +0.000 A 
ATOM     22  C   UNL     1      46.636   9.639  12.143  0.00  0.00    +0.000 A 
ATOM     23  C   UNL     1      47.323  10.819  11.835  0.00  0.00    +0.000 A 
ATOM     24  C   UNL     1      48.665  10.765  11.477  0.00  0.00    +0.000 A 
ATOM     25  C   UNL     1      49.303   9.534  11.438  0.00  0.00    +0.000 A 
ATOM     26  F   UNL     1      50.595   9.476  11.088  0.00  0.00    +0.000 F 
ATOM     27  C   UNL     1      48.629   8.357  11.756  0.00  0.00    +0.000 A 
ENDBRANCH  19  21
ENDBRANCH   1  15
TORSDOF 4
ENDMDL
MODEL 6
REMARK VINA RESULT:    -7.954      4.750      8.200
REMARK INTER + INTRA:         -10.426
REMARK INTER:                  -9.941
REMARK INTRA:                  -0.485
REMARK UNBOUND:                -0.611
REMARK  Name = 
REMARK  4 active torsions:
REMARK  status: ('A' for Active; 'I' for Inactive)
REMARK    1  A    between atoms: C_2  and  C_4
REMARK    2  A    between atoms: N_8  and  C_9
REMARK    3  A    between atoms: C_9  and  C_10
REMARK    4  A    between atoms: C_14  and  C_15
REMARK                            x       y       z     vdW  Elec       q    Type
REMARK                         _______ _______ _______ _____ _____    ______ ____
ROOT
ATOM      1  C   UNL     1      45.774   5.781  13.210  0.00  0.00    +0.000 C 
ENDROOT
BRANCH   1   6
ATOM      2  C   UNL     1      48.864   4.449  17.140  0.00  0.00    +0.000 A 
ATOM      3  C   UNL     1      48.782   5.637  16.425  0.00  0.00    +0.000 A 
ATOM      4  C   UNL     1      47.857   5.741  15.382  0.00  0.00    +0.000 A 
ATOM      5  C   UNL     1      47.035   4.662  15.076  0.00  0.00    +0.000 A 
ATOM      6  N   UNL     1      46.050   4.702  14.129  0.00  0.00    +0.000 N 
ATOM      7  N   UNL     1      47.140   3.491  15.737  0.00  0.00    +0.000 NA
ATOM      8  C   UNL     1      48.049   3.403  16.743  0.00  0.00    +0.000 A 
ATOM      9  H   UNL     1      45.595   3.809  13.993  0.00  0.00    +0.000 HD
BRANCH   2  11
ATOM     10  N   UNL     1      50.668   3.237  18.219  0.00  0.00    +0.000 N 
ATOM     11  C   UNL     1      49.774   4.269  18.289  0.00  0.00    +0.000 C 
ATOM     12  O   UNL     1      49.759   5.034  19.246  0.00  0.00    +0.000 OA
ATOM     13  H   UNL     1      51.359   3.186  18.958  0.00  0.00    +0.000 HD
ATOM     14  H   UNL     1      50.876   2.754  17.355  0.00  0.00    +0.000 HD
ENDBRANCH   2  11
ENDBRANCH   1   6
BRANCH   1  15
ATOM     15  C   UNL     1      45.062   5.320  11.968  0.00  0.00    +0.000 A 
ATOM     16  C   UNL     1      43.714   5.604  11.787  0.00  0.00    +0.000 A 
ATOM     17  N   UNL     1      42.997   5.212  10.715  0.00  0.00    +0.000 NA
ATOM     18  C   UNL     1      43.656   4.492   9.771  0.00  0.00    +0.000 A 
ATOM     19  C   UNL     1      44.999   4.114   9.836  0.00  0.00    +0.000 A 
ATOM     20  C   UNL     1      45.686   4.540  10.984  0.00  0.00    +0.000 A 
BRANCH  19  21
ATOM     21  C   UNL     1      45.661   3.328   8.770  0.00  0.00    +0.000 A 
ATOM     22  C   UNL     1      46.233   3.957   7.644  0.00  0.00    +0.000 A 
ATOM     23  C   UNL     1      46.868   3.226   6.632  0.00  0.00    +0.000 A 
ATOM     24  C   UNL     1      46.933   1.841   6.716  0.00  0.00    +0.000 A 
ATOM     25  C   UNL     1      46.368   1.204   7.811  0.00  0.00    +0.000 A 
ATOM     26  F   UNL     1      46.422  -0.132   7.894  0.00  0.00    +0.000 F 
ATOM     27  C   UNL     1      45.746   1.927   8.829  0.00  0.00    +0.000 A 
ENDBRANCH  19  21
ENDBRANCH   1  15
TORSDOF 4
ENDMDL
MODEL 7
REMARK VINA RESULT:    -7.573      4.229      7.645
REMARK INTER + INTRA:          -9.955
REMARK INTER:                  -9.964
REMARK INTRA:                   0.009
REMARK UNBOUND:                -0.611
REMARK  Name = 
REMARK  4 active torsions:
REMARK  status: ('A' for Active; 'I' for Inactive)
REMARK    1  A    between atoms: C_2  and  C_4
REMARK    2  A    between atoms: N_8  and  C_9
REMARK    3  A    between atoms: C_9  and  C_10
REMARK    4  A    between atoms: C_14  and  C_15
REMARK                            x       y       z     vdW  Elec       q    Type
REMARK                         _______ _______ _______ _____ _____    ______ ____
ROOT
ATOM      1  C   UNL     1      44.980   6.971  11.283  0.00  0.00    +0.000 C 
ENDROOT
BRANCH   1   6
ATOM      2  C   UNL     1      47.329   4.631  15.255  0.00  0.00    +0.000 A 
ATOM      3  C   UNL     1      46.109   4.363  14.648  0.00  0.00    +0.000 A 
ATOM      4  C   UNL     1      45.687   5.164  13.584  0.00  0.00    +0.000 A 
ATOM      5  C   UNL     1      46.489   6.213  13.146  0.00  0.00    +0.000 A 
ATOM      6  N   UNL     1      46.193   6.995  12.065  0.00  0.00    +0.000 N 
ATOM      7  N   UNL     1      47.653   6.507  13.759  0.00  0.00    +0.000 NA
ATOM      8  C   UNL     1      48.046   5.724  14.797  0.00  0.00    +0.000 A 
ATOM      9  H   UNL     1      46.852   7.750  11.930  0.00  0.00    +0.000 HD
BRANCH   2  11
ATOM     10  N   UNL     1      48.367   2.574  16.014  0.00  0.00    +0.000 N 
ATOM     11  C   UNL     1      47.877   3.806  16.350  0.00  0.00    +0.000 C 
ATOM     12  O   UNL     1      47.928   4.219  17.501  0.00  0.00    +0.000 OA
ATOM     13  H   UNL     1      48.838   2.060  16.749  0.00  0.00    +0.000 HD
ATOM     14  H   UNL     1      48.569   2.310  15.059  0.00  0.00    +0.000 HD
ENDBRANCH   2  11
ENDBRANCH   1   6
BRANCH   1  15
ATOM     15  C   UNL     1      44.636   5.593  10.785  0.00  0.00    +0.000 A 
ATOM     16  C   UNL     1      43.541   4.913  11.304  0.00  0.00    +0.000 A 
ATOM     17  N   UNL     1      43.176   3.671  10.928  0.00  0.00    +0.000 NA
ATOM     18  C   UNL     1      43.946   3.068   9.987  0.00  0.00    +0.000 A 
ATOM     19  C   UNL     1      45.086   3.622   9.400  0.00  0.00    +0.000 A 
ATOM     20  C   UNL     1      45.421   4.911   9.844  0.00  0.00    +0.000 A 
BRANCH  19  21
ATOM     21  C   UNL     1      45.883   2.912   8.374  0.00  0.00    +0.000 A 
ATOM     22  C   UNL     1      46.524   3.612   7.330  0.00  0.00    +0.000 A 
ATOM     23  C   UNL     1      47.286   2.952   6.357  0.00  0.00    +0.000 A 
ATOM     24  C   UNL     1      47.413   1.569   6.397  0.00  0.00    +0.000 A 
ATOM     25  C   UNL     1      46.782   0.863   7.412  0.00  0.00    +0.000 A 
ATOM     26  F   UNL     1      46.896  -0.470   7.453  0.00  0.00    +0.000 F 
ATOM     27  C   UNL     1      46.033   1.515   8.391  0.00  0.00    +0.000 A 
ENDBRANCH  19  21
ENDBRANCH   1  15
TORSDOF 4
ENDMDL
MODEL 8
REMARK VINA RESULT:    -7.150      4.077      7.760
REMARK INTER + INTRA:          -9.433
REMARK INTER:                  -8.863
REMARK INTRA:                  -0.569
REMARK UNBOUND:                -0.611
REMARK  Name = 
REMARK  4 active torsions:
REMARK  status: ('A' for Active; 'I' for Inactive)
REMARK    1  A    between atoms: C_2  and  C_4
REMARK    2  A    between atoms: N_8  and  C_9
REMARK    3  A    between atoms: C_9  and  C_10
REMARK    4  A    between atoms: C_14  and  C_15
REMARK                            x       y       z     vdW  Elec       q    Type
REMARK                         _______ _______ _______ _____ _____    ______ ____
ROOT
ATOM      1  C   UNL     1      45.749   7.481  11.925  0.00  0.00    +0.000 C 
ENDROOT
BRANCH   1   6
ATOM      2  C   UNL     1      50.321   7.737  14.332  0.00  0.00    +0.000 A 
ATOM      3  C   UNL     1      49.933   8.215  13.087  0.00  0.00    +0.000 A 
ATOM      4  C   UNL     1      48.622   8.001  12.654  0.00  0.00    +0.000 A 
ATOM      5  C   UNL     1      47.726   7.317  13.470  0.00  0.00    +0.000 A 
ATOM      6  N   UNL     1      46.407   7.133  13.162  0.00  0.00    +0.000 N 
ATOM      7  N   UNL     1      48.109   6.812  14.660  0.00  0.00    +0.000 NA
ATOM      8  C   UNL     1      49.389   7.021  15.064  0.00  0.00    +0.000 A 
ATOM      9  H   UNL     1      45.920   6.558  13.837  0.00  0.00    +0.000 HD
BRANCH   2  11
ATOM     10  N   UNL     1      51.787   7.956  16.253  0.00  0.00    +0.000 N 
ATOM     11  C   UNL     1      51.670   7.963  14.891  0.00  0.00    +0.000 C 
ATOM     12  O   UNL     1      52.647   8.109  14.168  0.00  0.00    +0.000 OA
ATOM     13  H   UNL     1      52.728   8.003  16.626  0.00  0.00    +0.000 HD
ATOM     14  H   UNL     1      51.064   7.594  16.860  0.00  0.00    +0.000 HD
ENDBRANCH   2  11
ENDBRANCH   1   6
BRANCH   1  15
ATOM     15  C   UNL     1      45.016   6.319  11.310  0.00  0.00    +0.000 A 
ATOM     16  C   UNL     1      43.716   6.025  11.700  0.00  0.00    +0.000 A 
ATOM     17  N   UNL     1      42.997   4.993  11.215  0.00  0.00    +0.000 NA
ATOM     18  C   UNL     1      43.607   4.205  10.293  0.00  0.00    +0.000 A 
ATOM     19  C   UNL     1      44.915   4.369   9.829  0.00  0.00    +0.000 A 
ATOM     20  C   UNL     1      45.615   5.452  10.384  0.00  0.00    +0.000 A 
BRANCH  19  21
ATOM     21  C   UNL     1      45.523   3.475   8.817  0.00  0.00    +0.000 A 
ATOM     22  C   UNL     1      45.634   2.087   9.039  0.00  0.00    +0.000 A 
ATOM     23  C   UNL     1      46.200   1.230   8.087  0.00  0.00    +0.000 A 
ATOM     24  C   UNL     1      46.686   1.747   6.892  0.00  0.00    +0.000 A 
ATOM     25  C   UNL     1      46.593   3.112   6.661  0.00  0.00    +0.000 A 
ATOM     26  F   UNL     1      47.064   3.617   5.513  0.00  0.00    +0.000 F 
ATOM     27  C   UNL     1      46.017   3.969   7.598  0.00  0.00    +0.000 A 
ENDBRANCH  19  21
ENDBRANCH   1  15
TORSDOF 4
ENDMDL
MODEL 9
REMARK VINA RESULT:    -7.032      5.126      8.603
REMARK INTER + INTRA:          -9.287
REMARK INTER:                  -8.778
REMARK INTRA:                  -0.509
REMARK UNBOUND:                -0.611
REMARK  Name = 
REMARK  4 active torsions:
REMARK  status: ('A' for Active; 'I' for Inactive)
REMARK    1  A    between atoms: C_2  and  C_4
REMARK    2  A    between atoms: N_8  and  C_9
REMARK    3  A    between atoms: C_9  and  C_10
REMARK    4  A    between atoms: C_14  and  C_15
REMARK                            x       y       z     vdW  Elec       q    Type
REMARK                         _______ _______ _______ _____ _____    ______ ____
ROOT
ATOM      1  C   UNL     1      48.033   7.313  14.076  0.00  0.00    +0.000 C 
ENDROOT
BRANCH   1   6
ATOM      2  C   UNL     1      49.077   5.322  18.736  0.00  0.00    +0.000 A 
ATOM      3  C   UNL     1      48.999   6.645  18.321  0.00  0.00    +0.000 A 
ATOM      4  C   UNL     1      48.710   6.923  16.982  0.00  0.00    +0.000 A 
ATOM      5  C   UNL     1      48.504   5.879  16.087  0.00  0.00    +0.000 A 
ATOM      6  N   UNL     1      48.140   6.058  14.782  0.00  0.00    +0.000 N 
ATOM      7  N   UNL     1      48.623   4.593  16.473  0.00  0.00    +0.000 NA
ATOM      8  C   UNL     1      48.911   4.338  17.776  0.00  0.00    +0.000 A 
ATOM      9  H   UNL     1      48.098   5.193  14.260  0.00  0.00    +0.000 HD
BRANCH   2  11
ATOM     10  N   UNL     1      48.591   3.897  20.638  0.00  0.00    +0.000 N 
ATOM     11  C   UNL     1      49.325   4.937  20.140  0.00  0.00    +0.000 C 
ATOM     12  O   UNL     1      50.178   5.497  20.817  0.00  0.00    +0.000 OA
ATOM     13  H   UNL     1      48.842   3.568  21.563  0.00  0.00    +0.000 HD
ATOM     14  H   UNL     1      48.073   3.262  20.045  0.00  0.00    +0.000 HD
ENDBRANCH   2  11
ENDBRANCH   1   6
BRANCH   1  15
ATOM     15  C   UNL     1      46.915   7.320  13.069  0.00  0.00    +0.000 A 
ATOM     16  C   UNL     1      46.101   8.438  12.933  0.00  0.00    +0.000 A 
ATOM     17  N   UNL     1      45.068   8.520  12.071  0.00  0.00    +0.000 NA
ATOM     18  C   UNL     1      44.827   7.427  11.304  0.00  0.00    +0.000 A 
ATOM     19  C   UNL     1      45.546   6.230  11.354  0.00  0.00    +0.000 A 
ATOM     20  C   UNL     1      46.599   6.204  12.281  0.00  0.00    +0.000 A 
BRANCH  19  21
ATOM     21  C   UNL     1      45.233   5.072  10.486  0.00  0.00    +0.000 A 
ATOM     22  C   UNL     1      44.474   3.983  10.962  0.00  0.00    +0.000 A 
ATOM     23  C   UNL     1      44.165   2.885  10.149  0.00  0.00    +0.000 A 
ATOM     24  C   UNL     1      44.625   2.843   8.839  0.00  0.00    +0.000 A 
ATOM     25  C   UNL     1      45.381   3.901   8.355  0.00  0.00    +0.000 A 
ATOM     26  F   UNL     1      45.831   3.864   7.094  0.00  0.00    +0.000 F 
ATOM     27  C   UNL     1      45.680   5.004   9.155  0.00  0.00    +0.000 A 
ENDBRANCH  19  21
ENDBRANCH   1  15
TORSDOF 4
ENDMDL
