MODEL 1
REMARK VINA RESULT:    -8.166      0.000      0.000
REMARK INTER + INTRA:         -11.844
REMARK INTER:                 -11.030
REMARK INTRA:                  -0.814
REMARK UNBOUND:                -0.814
REMARK  Name = 
REMARK  7 active torsions:
REMARK  status: ('A' for Active; 'I' for Inactive)
REMARK    1  A    between atoms: C_1  and  C_2
REMARK    2  A    between atoms: C_2  and  C_3
REMARK    3  A    between atoms: C_2  and  C_14
REMARK    4  A    between atoms: C_3  and  N_4
REMARK    5  A    between atoms: N_4  and  C_5
REMARK    6  A    between atoms: C_8  and  C_9
REMARK    7  A    between atoms: C_18  and  C_19
REMARK                            x       y       z     vdW  Elec       q    Type
REMARK                         _______ _______ _______ _____ _____    ______ ____
ROOT
ATOM      1  C   UNL     1      44.397   5.729  10.891  0.00  0.00    +0.000 C 
ENDROOT
BRANCH   1   3
ATOM      2  C   UNL     1      43.471   4.605  13.021  0.00  0.00    +0.000 C 
ATOM      3  C   UNL     1      44.660   4.975  12.171  0.00  0.00    +0.000 C 
BRANCH   3   4
ATOM      4  C   UNL     1      45.905   5.291  12.923  0.00  0.00    +0.000 A 
ATOM      5  C   UNL     1      46.636   6.459  12.661  0.00  0.00    +0.000 A 
ATOM      6  C   UNL     1      47.689   6.853  13.487  0.00  0.00    +0.000 A 
ATOM      7  C   UNL     1      48.025   6.088  14.598  0.00  0.00    +0.000 A 
ATOM      8  C   UNL     1      47.339   4.896  14.866  0.00  0.00    +0.000 A 
ATOM      9  C   UNL     1      46.310   4.485  13.997  0.00  0.00    +0.000 A 
BRANCH   8  10
ATOM     10  C   UNL     1      47.639   4.098  16.111  0.00  0.00    +0.000 C 
ATOM     11  F   UNL     1      46.593   4.043  16.983  0.00  0.00    +0.000 F 
ATOM     12  F   UNL     1      47.938   2.793  15.822  0.00  0.00    +0.000 F 
ATOM     13  F   UNL     1      48.694   4.579  16.809  0.00  0.00    +0.000 F 
ENDBRANCH   8  10
ENDBRANCH   3   4
ENDBRANCH   1   3
BRANCH   1  14
ATOM     14  N   UNL     1      43.795   4.866   9.882  0.00  0.00    +0.000 N 
ATOM     15  H   UNL     1      42.969   4.390  10.248  0.00  0.00    +0.000 HD
BRANCH  14  16
ATOM     16  C   UNL     1      44.674   3.964   9.249  0.00  0.00    +0.000 A 
ATOM     17  C   UNL     1      45.633   4.353   8.309  0.00  0.00    +0.000 A 
ATOM     18  C   UNL     1      46.439   3.405   7.676  0.00  0.00    +0.000 A 
ATOM     19  C   UNL     1      46.242   2.066   7.981  0.00  0.00    +0.000 A 
ATOM     20  N   UNL     1      45.300   1.625   8.857  0.00  0.00    +0.000 NA
ATOM     21  C   UNL     1      44.540   2.586   9.443  0.00  0.00    +0.000 A 
BRANCH  19  22
ATOM     22  C   UNL     1      47.089   1.022   7.320  0.00  0.00    +0.000 C 
ATOM     23  N   UNL     1      46.798  -0.268   7.664  0.00  0.00    +0.000 N 
ATOM     24  O   UNL     1      47.982   1.296   6.529  0.00  0.00    +0.000 OA
ATOM     25  H   UNL     1      46.047  -0.453   8.321  0.00  0.00    +0.000 HD
ATOM     26  H   UNL     1      47.320  -1.027   7.251  0.00  0.00    +0.000 HD
ENDBRANCH  19  22
ENDBRANCH  14  16
ENDBRANCH   1  14
TORSDOF 6
ENDMDL
MODEL 2
REMARK VINA RESULT:    -8.078      2.578      3.298
REMARK INTER + INTRA:         -11.726
REMARK INTER:                 -10.796
REMARK INTRA:                  -0.929
REMARK UNBOUND:                -0.814
REMARK  Name = 
REMARK  7 active torsions:
REMARK  status: ('A' for Active; 'I' for Inactive)
REMARK    1  A    between atoms: C_1  and  C_2
REMARK    2  A    between atoms: C_2  and  C_3
REMARK    3  A    between atoms: C_2  and  C_14
REMARK    4  A    between atoms: C_3  and  N_4
REMARK    5  A    between atoms: N_4  and  C_5
REMARK    6  A    between atoms: C_8  and  C_9
REMARK    7  A    between atoms: C_18  and  C_19
REMARK                            x       y       z     vdW  Elec       q    Type
REMARK                         _______ _______ _______ _____ _____    ______ ____
ROOT
ATOM      1  C   UNL     1      43.841   4.884  11.338  0.00  0.00    +0.000 C 
ENDROOT
BRANCH   1   3
ATOM      2  C   UNL     1      45.770   4.089  12.856  0.00  0.00    +0.000 C 
ATOM      3  C   UNL     1      45.262   5.054  11.815  0.00  0.00    +0.000 C 
BRANCH   3   4
ATOM      4  C   UNL     1      45.805   6.437  11.911  0.00  0.00    +0.000 A 
ATOM      5  C   UNL     1      45.006   7.502  12.353  0.00  0.00    +0.000 A 
ATOM      6  C   UNL     1      45.559   8.754  12.625  0.00  0.00    +0.000 A 
ATOM      7  C   UNL     1      46.925   8.961  12.470  0.00  0.00    +0.000 A 
ATOM      8  C   UNL     1      47.743   7.928  11.994  0.00  0.00    +0.000 A 
ATOM      9  C   UNL     1      47.165   6.683  11.677  0.00  0.00    +0.000 A 
BRANCH   8  10
ATOM     10  C   UNL     1      49.238   8.112  11.896  0.00  0.00    +0.000 C 
ATOM     11  F   UNL     1      49.795   7.456  10.840  0.00  0.00    +0.000 F 
ATOM     12  F   UNL     1      49.580   9.427  11.726  0.00  0.00    +0.000 F 
ATOM     13  F   UNL     1      49.898   7.693  13.000  0.00  0.00    +0.000 F 
ENDBRANCH   8  10
ENDBRANCH   3   4
ENDBRANCH   1   3
BRANCH   1  14
ATOM     14  N   UNL     1      43.770   4.852   9.883  0.00  0.00    +0.000 N 
ATOM     15  H   UNL     1      42.810   4.718   9.562  0.00  0.00    +0.000 HD
BRANCH  14  16
ATOM     16  C   UNL     1      44.656   3.957   9.250  0.00  0.00    +0.000 A 
ATOM     17  C   UNL     1      45.600   4.352   8.296  0.00  0.00    +0.000 A 
ATOM     18  C   UNL     1      46.414   3.409   7.665  0.00  0.00    +0.000 A 
ATOM     19  C   UNL     1      46.241   2.071   7.984  0.00  0.00    +0.000 A 
ATOM     20  N   UNL     1      45.315   1.624   8.874  0.00  0.00    +0.000 NA
ATOM     21  C   UNL     1      44.545   2.579   9.458  0.00  0.00    +0.000 A 
BRANCH  19  22
ATOM     22  C   UNL     1      47.096   1.033   7.325  0.00  0.00    +0.000 C 
ATOM     23  N   UNL     1      46.801  -0.260   7.652  0.00  0.00    +0.000 N 
ATOM     24  O   UNL     1      48.001   1.315   6.549  0.00  0.00    +0.000 OA
ATOM     25  H   UNL     1      46.041  -0.452   8.296  0.00  0.00    +0.000 HD
ATOM     26  H   UNL     1      47.329  -1.015   7.239  0.00  0.00    +0.000 HD
ENDBRANCH  19  22
ENDBRANCH  14  16
ENDBRANCH   1  14
TORSDOF 6
ENDMDL
MODEL 3
REMARK VINA RESULT:    -7.838      3.477      4.099
REMARK INTER + INTRA:         -11.402
REMARK INTER:                 -10.618
REMARK INTRA:                  -0.785
REMARK UNBOUND:                -0.814
REMARK  Name = 
REMARK  7 active torsions:
REMARK  status: ('A' for Active; 'I' for Inactive)
REMARK    1  A    between atoms: C_1  and  C_2
REMARK    2  A    between atoms: C_2  and  C_3
REMARK    3  A    between atoms: C_2  and  C_14
REMARK    4  A    between atoms: C_3  and  N_4
REMARK    5  A    between atoms: N_4  and  C_5
REMARK    6  A    between atoms: C_8  and  C_9
REMARK    7  A    between atoms: C_18  and  C_19
REMARK                            x       y       z     vdW  Elec       q    Type
REMARK                         _______ _______ _______ _____ _____    ______ ____
ROOT
ATOM      1  C   UNL     1      43.704   4.859  11.248  0.00  0.00    +0.000 C 
ENDROOT
BRANCH   1   3
ATOM      2  C   UNL     1      45.473   3.871  12.845  0.00  0.00    +0.000 C 
ATOM      3  C   UNL     1      45.087   4.932  11.847  0.00  0.00    +0.000 C 
BRANCH   3   4
ATOM      4  C   UNL     1      45.670   6.280  12.094  0.00  0.00    +0.000 A 
ATOM      5  C   UNL     1      47.010   6.432  12.478  0.00  0.00    +0.000 A 
ATOM      6  C   UNL     1      47.609   7.692  12.525  0.00  0.00    +0.000 A 
ATOM      7  C   UNL     1      46.879   8.823  12.178  0.00  0.00    +0.000 A 
ATOM      8  C   UNL     1      45.527   8.708  11.827  0.00  0.00    +0.000 A 
ATOM      9  C   UNL     1      44.922   7.436  11.830  0.00  0.00    +0.000 A 
BRANCH   8  10
ATOM     10  C   UNL     1      44.744   9.915  11.371  0.00  0.00    +0.000 C 
ATOM     11  F   UNL     1      45.533  10.941  10.945  0.00  0.00    +0.000 F 
ATOM     12  F   UNL     1      43.926   9.623  10.313  0.00  0.00    +0.000 F 
ATOM     13  F   UNL     1      43.943  10.423  12.336  0.00  0.00    +0.000 F 
ENDBRANCH   8  10
ENDBRANCH   3   4
ENDBRANCH   1   3
BRANCH   1  14
ATOM     14  N   UNL     1      43.754   4.907   9.792  0.00  0.00    +0.000 N 
ATOM     15  H   UNL     1      42.819   4.842   9.387  0.00  0.00    +0.000 HD
BRANCH  14  16
ATOM     16  C   UNL     1      44.645   3.999   9.184  0.00  0.00    +0.000 A 
ATOM     17  C   UNL     1      45.604   4.376   8.238  0.00  0.00    +0.000 A 
ATOM     18  C   UNL     1      46.422   3.422   7.631  0.00  0.00    +0.000 A 
ATOM     19  C   UNL     1      46.237   2.089   7.965  0.00  0.00    +0.000 A 
ATOM     20  N   UNL     1      45.296   1.658   8.848  0.00  0.00    +0.000 NA
ATOM     21  C   UNL     1      44.524   2.624   9.408  0.00  0.00    +0.000 A 
BRANCH  19  22
ATOM     22  C   UNL     1      47.097   1.038   7.333  0.00  0.00    +0.000 C 
ATOM     23  N   UNL     1      46.788  -0.250   7.669  0.00  0.00    +0.000 N 
ATOM     24  O   UNL     1      48.016   1.306   6.568  0.00  0.00    +0.000 OA
ATOM     25  H   UNL     1      46.017  -0.429   8.303  0.00  0.00    +0.000 HD
ATOM     26  H   UNL     1      47.318  -1.013   7.273  0.00  0.00    +0.000 HD
ENDBRANCH  19  22
ENDBRANCH  14  16
ENDBRANCH   1  14
TORSDOF 6
ENDMDL
MODEL 4
REMARK VINA RESULT:    -7.744      1.571      2.230
REMARK INTER + INTRA:         -11.275
REMARK INTER:                 -10.374
REMARK INTRA:                  -0.902
REMARK UNBOUND:                -0.814
REMARK  Name = 
REMARK  7 active torsions:
REMARK  status: ('A' for Active; 'I' for Inactive)
REMARK    1  A    between atoms: C_1  and  C_2
REMARK    2  A    between atoms: C_2  and  C_3
REMARK    3  A    between atoms: C_2  and  C_14
REMARK    4  A    between atoms: C_3  and  N_4
REMARK    5  A    between atoms: N_4  and  C_5
REMARK    6  A    between atoms: C_8  and  C_9
REMARK    7  A    between atoms: C_18  and  C_19
REMARK                            x       y       z     vdW  Elec       q    Type
REMARK                         _______ _______ _______ _____ _____    ______ ____
ROOT
ATOM      1  C   UNL     1      44.446   5.753  10.951  0.00  0.00    +0.000 C 
ENDROOT
BRANCH   1   3
ATOM      2  C   UNL     1      44.634   4.586  13.245  0.00  0.00    +0.000 C 
ATOM      3  C   UNL     1      45.319   5.199  12.050  0.00  0.00    +0.000 C 
BRANCH   3   4
ATOM      4  C   UNL     1      46.601   5.898  12.341  0.00  0.00    +0.000 A 
ATOM      5  C   UNL     1      47.179   6.772  11.410  0.00  0.00    +0.000 A 
ATOM      6  C   UNL     1      48.272   7.571  11.750  0.00  0.00    +0.000 A 
ATOM      7  C   UNL     1      48.801   7.515  13.035  0.00  0.00    +0.000 A 
ATOM      8  C   UNL     1      48.269   6.623  13.977  0.00  0.00    +0.000 A 
ATOM      9  C   UNL     1      47.197   5.789  13.605  0.00  0.00    +0.000 A 
BRANCH   8  10
ATOM     10  C   UNL     1      48.780   6.609  15.397  0.00  0.00    +0.000 C 
ATOM     11  F   UNL     1      50.140   6.636  15.483  0.00  0.00    +0.000 F 
ATOM     12  F   UNL     1      48.351   7.699  16.106  0.00  0.00    +0.000 F 
ATOM     13  F   UNL     1      48.374   5.523  16.096  0.00  0.00    +0.000 F 
ENDBRANCH   8  10
ENDBRANCH   3   4
ENDBRANCH   1   3
BRANCH   1  14
ATOM     14  N   UNL     1      43.788   4.687  10.208  0.00  0.00    +0.000 N 
ATOM     15  H   UNL     1      43.229   4.095  10.825  0.00  0.00    +0.000 HD
BRANCH  14  16
ATOM     16  C   UNL     1      44.627   3.918   9.376  0.00  0.00    +0.000 A 
ATOM     17  C   UNL     1      44.777   2.532   9.501  0.00  0.00    +0.000 A 
ATOM     18  C   UNL     1      45.664   1.834   8.680  0.00  0.00    +0.000 A 
ATOM     19  C   UNL     1      46.416   2.551   7.763  0.00  0.00    +0.000 A 
ATOM     20  N   UNL     1      46.342   3.902   7.622  0.00  0.00    +0.000 NA
ATOM     21  C   UNL     1      45.467   4.536   8.445  0.00  0.00    +0.000 A 
BRANCH  19  22
ATOM     22  C   UNL     1      47.378   1.833   6.867  0.00  0.00    +0.000 C 
ATOM     23  N   UNL     1      48.474   2.557   6.489  0.00  0.00    +0.000 N 
ATOM     24  O   UNL     1      47.202   0.680   6.494  0.00  0.00    +0.000 OA
ATOM     25  H   UNL     1      48.585   3.508   6.823  0.00  0.00    +0.000 HD
ATOM     26  H   UNL     1      49.172   2.135   5.893  0.00  0.00    +0.000 HD
ENDBRANCH  19  22
ENDBRANCH  14  16
ENDBRANCH   1  14
TORSDOF 6
ENDMDL
MODEL 5
REMARK VINA RESULT:    -7.620      2.855      3.431
REMARK INTER + INTRA:         -11.107
REMARK INTER:                 -10.373
REMARK INTRA:                  -0.733
REMARK UNBOUND:                -0.814
REMARK  Name = 
REMARK  7 active torsions:
REMARK  status: ('A' for Active; 'I' for Inactive)
REMARK    1  A    between atoms: C_1  and  C_2
REMARK    2  A    between atoms: C_2  and  C_3
REMARK    3  A    between atoms: C_2  and  C_14
REMARK    4  A    between atoms: C_3  and  N_4
REMARK    5  A    between atoms: N_4  and  C_5
REMARK    6  A    between atoms: C_8  and  C_9
REMARK    7  A    between atoms: C_18  and  C_19
REMARK                            x       y       z     vdW  Elec       q    Type
REMARK                         _______ _______ _______ _____ _____    ______ ____
ROOT
ATOM      1  C   UNL     1      44.528   3.286  11.892  0.00  0.00    +0.000 C 
ENDROOT
BRANCH   1   3
ATOM      2  C   UNL     1      42.935   5.064  12.872  0.00  0.00    +0.000 C 
ATOM      3  C   UNL     1      44.272   4.370  12.910  0.00  0.00    +0.000 C 
BRANCH   3   4
ATOM      4  C   UNL     1      45.420   5.223  13.324  0.00  0.00    +0.000 A 
ATOM      5  C   UNL     1      46.462   4.710  14.109  0.00  0.00    +0.000 A 
ATOM      6  C   UNL     1      47.625   5.446  14.337  0.00  0.00    +0.000 A 
ATOM      7  C   UNL     1      47.771   6.709  13.774  0.00  0.00    +0.000 A 
ATOM      8  C   UNL     1      46.732   7.266  13.016  0.00  0.00    +0.000 A 
ATOM      9  C   UNL     1      45.544   6.531  12.834  0.00  0.00    +0.000 A 
BRANCH   8  10
ATOM     10  C   UNL     1      46.906   8.600  12.334  0.00  0.00    +0.000 C 
ATOM     11  F   UNL     1      45.824   8.975  11.594  0.00  0.00    +0.000 F 
ATOM     12  F   UNL     1      47.097   9.614  13.235  0.00  0.00    +0.000 F 
ATOM     13  F   UNL     1      47.971   8.635  11.499  0.00  0.00    +0.000 F 
ENDBRANCH   8  10
ENDBRANCH   3   4
ENDBRANCH   1   3
BRANCH   1  14
ATOM     14  N   UNL     1      43.945   3.625  10.601  0.00  0.00    +0.000 N 
ATOM     15  H   UNL     1      43.012   3.222  10.499  0.00  0.00    +0.000 HD
BRANCH  14  16
ATOM     16  C   UNL     1      44.751   3.349   9.477  0.00  0.00    +0.000 A 
ATOM     17  C   UNL     1      45.185   2.064   9.137  0.00  0.00    +0.000 A 
ATOM     18  C   UNL     1      46.027   1.862   8.041  0.00  0.00    +0.000 A 
ATOM     19  C   UNL     1      46.447   2.970   7.321  0.00  0.00    +0.000 A 
ATOM     20  N   UNL     1      46.089   4.246   7.627  0.00  0.00    +0.000 NA
ATOM     21  C   UNL     1      45.272   4.390   8.703  0.00  0.00    +0.000 A 
BRANCH  19  22
ATOM     22  C   UNL     1      47.351   2.790   6.140  0.00  0.00    +0.000 C 
ATOM     23  N   UNL     1      48.650   2.493   6.440  0.00  0.00    +0.000 N 
ATOM     24  O   UNL     1      46.961   2.901   4.984  0.00  0.00    +0.000 OA
ATOM     25  H   UNL     1      48.931   2.405   7.411  0.00  0.00    +0.000 HD
ATOM     26  H   UNL     1      49.316   2.347   5.695  0.00  0.00    +0.000 HD
ENDBRANCH  19  22
ENDBRANCH  14  16
ENDBRANCH   1  14
TORSDOF 6
ENDMDL
MODEL 6
REMARK VINA RESULT:    -7.379      4.679      7.077
REMARK INTER + INTRA:         -10.782
REMARK INTER:                  -9.873
REMARK INTRA:                  -0.908
REMARK UNBOUND:                -0.814
REMARK  Name = 
REMARK  7 active torsions:
REMARK  status: ('A' for Active; 'I' for Inactive)
REMARK    1  A    between atoms: C_1  and  C_2
REMARK    2  A    between atoms: C_2  and  C_3
REMARK    3  A    between atoms: C_2  and  C_14
REMARK    4  A    between atoms: C_3  and  N_4
REMARK    5  A    between atoms: N_4  and  C_5
REMARK    6  A    between atoms: C_8  and  C_9
REMARK    7  A    between atoms: C_18  and  C_19
REMARK                            x       y       z     vdW  Elec       q    Type
REMARK                         _______ _______ _______ _____ _____    ______ ____
ROOT
ATOM      1  C   UNL     1      45.311   3.615  12.374  0.00  0.00    +0.000 C 
ENDROOT
BRANCH   1   3
ATOM      2  C   UNL     1      43.352   2.261  11.380  0.00  0.00    +0.000 C 
ATOM      3  C   UNL     1      44.414   3.315  11.198  0.00  0.00    +0.000 C 
BRANCH   3   4
ATOM      4  C   UNL     1      45.003   3.396   9.833  0.00  0.00    +0.000 A 
ATOM      5  C   UNL     1      45.251   4.633   9.221  0.00  0.00    +0.000 A 
ATOM      6  C   UNL     1      45.974   4.718   8.030  0.00  0.00    +0.000 A 
ATOM      7  C   UNL     1      46.471   3.564   7.435  0.00  0.00    +0.000 A 
ATOM      8  C   UNL     1      46.208   2.310   8.002  0.00  0.00    +0.000 A 
ATOM      9  C   UNL     1      45.436   2.235   9.178  0.00  0.00    +0.000 A 
BRANCH   8  10
ATOM     10  C   UNL     1      46.807   1.057   7.411  0.00  0.00    +0.000 C 
ATOM     11  F   UNL     1      46.588   0.932   6.072  0.00  0.00    +0.000 F 
ATOM     12  F   UNL     1      48.168   1.023   7.561  0.00  0.00    +0.000 F 
ATOM     13  F   UNL     1      46.338  -0.076   7.983  0.00  0.00    +0.000 F 
ENDBRANCH   8  10
ENDBRANCH   3   4
ENDBRANCH   1   3
BRANCH   1  14
ATOM     14  N   UNL     1      45.177   5.001  12.803  0.00  0.00    +0.000 N 
ATOM     15  H   UNL     1      44.442   5.481  12.281  0.00  0.00    +0.000 HD
BRANCH  14  16
ATOM     16  C   UNL     1      46.371   5.750  12.822  0.00  0.00    +0.000 A 
ATOM     17  C   UNL     1      46.750   6.623  11.797  0.00  0.00    +0.000 A 
ATOM     18  C   UNL     1      47.971   7.298  11.849  0.00  0.00    +0.000 A 
ATOM     19  C   UNL     1      48.811   7.055  12.925  0.00  0.00    +0.000 A 
ATOM     20  N   UNL     1      48.515   6.190  13.931  0.00  0.00    +0.000 NA
ATOM     21  C   UNL     1      47.317   5.556  13.833  0.00  0.00    +0.000 A 
BRANCH  19  22
ATOM     22  C   UNL     1      50.130   7.762  13.012  0.00  0.00    +0.000 C 
ATOM     23  N   UNL     1      50.890   7.720  11.877  0.00  0.00    +0.000 N 
ATOM     24  O   UNL     1      50.508   8.336  14.025  0.00  0.00    +0.000 OA
ATOM     25  H   UNL     1      50.538   7.237  11.058  0.00  0.00    +0.000 HD
ATOM     26  H   UNL     1      51.787   8.183  11.857  0.00  0.00    +0.000 HD
ENDBRANCH  19  22
ENDBRANCH  14  16
ENDBRANCH   1  14
TORSDOF 6
ENDMDL
MODEL 7
REMARK VINA RESULT:    -7.044      4.711      7.150
REMARK INTER + INTRA:         -10.330
REMARK INTER:                  -9.487
REMARK INTRA:                  -0.843
REMARK UNBOUND:                -0.814
REMARK  Name = 
REMARK  7 active torsions:
REMARK  status: ('A' for Active; 'I' for Inactive)
REMARK    1  A    between atoms: C_1  and  C_2
REMARK    2  A    between atoms: C_2  and  C_3
REMARK    3  A    between atoms: C_2  and  C_14
REMARK    4  A    between atoms: C_3  and  N_4
REMARK    5  A    between atoms: N_4  and  C_5
REMARK    6  A    between atoms: C_8  and  C_9
REMARK    7  A    between atoms: C_18  and  C_19
REMARK                            x       y       z     vdW  Elec       q    Type
REMARK                         _______ _______ _______ _____ _____    ______ ____
ROOT
ATOM      1  C   UNL     1      46.334   7.673  12.892  0.00  0.00    +0.000 C 
ENDROOT
BRANCH   1   3
ATOM      2  C   UNL     1      44.503   8.659  11.363  0.00  0.00    +0.000 C 
ATOM      3  C   UNL     1      45.465   7.538  11.666  0.00  0.00    +0.000 C 
BRANCH   3   4
ATOM      4  C   UNL     1      44.991   6.176  11.294  0.00  0.00    +0.000 A 
ATOM      5  C   UNL     1      43.889   5.590  11.934  0.00  0.00    +0.000 A 
ATOM      6  C   UNL     1      43.327   4.403  11.463  0.00  0.00    +0.000 A 
ATOM      7  C   UNL     1      43.853   3.785  10.333  0.00  0.00    +0.000 A 
ATOM      8  C   UNL     1      44.976   4.325   9.694  0.00  0.00    +0.000 A 
ATOM      9  C   UNL     1      45.563   5.498  10.209  0.00  0.00    +0.000 A 
BRANCH   8  10
ATOM     10  C   UNL     1      45.508   3.711   8.422  0.00  0.00    +0.000 C 
ATOM     11  F   UNL     1      46.513   4.434   7.852  0.00  0.00    +0.000 F 
ATOM     12  F   UNL     1      46.036   2.466   8.638  0.00  0.00    +0.000 F 
ATOM     13  F   UNL     1      44.559   3.556   7.470  0.00  0.00    +0.000 F 
ENDBRANCH   8  10
ENDBRANCH   3   4
ENDBRANCH   1   3
BRANCH   1  14
ATOM     14  N   UNL     1      47.436   6.721  12.868  0.00  0.00    +0.000 N 
ATOM     15  H   UNL     1      47.423   6.160  12.014  0.00  0.00    +0.000 HD
BRANCH  14  16
ATOM     16  C   UNL     1      47.566   5.912  14.015  0.00  0.00    +0.000 A 
ATOM     17  C   UNL     1      48.271   6.303  15.158  0.00  0.00    +0.000 A 
ATOM     18  C   UNL     1      48.410   5.435  16.243  0.00  0.00    +0.000 A 
ATOM     19  C   UNL     1      47.860   4.166  16.145  0.00  0.00    +0.000 A 
ATOM     20  N   UNL     1      47.198   3.716  15.045  0.00  0.00    +0.000 NA
ATOM     21  C   UNL     1      47.093   4.596  14.016  0.00  0.00    +0.000 A 
BRANCH  19  22
ATOM     22  C   UNL     1      47.991   3.209  17.290  0.00  0.00    +0.000 C 
ATOM     23  N   UNL     1      46.817   2.676  17.742  0.00  0.00    +0.000 N 
ATOM     24  O   UNL     1      49.070   2.921  17.792  0.00  0.00    +0.000 OA
ATOM     25  H   UNL     1      45.945   2.938  17.295  0.00  0.00    +0.000 HD
ATOM     26  H   UNL     1      46.827   2.015  18.505  0.00  0.00    +0.000 HD
ENDBRANCH  19  22
ENDBRANCH  14  16
ENDBRANCH   1  14
TORSDOF 6
ENDMDL
MODEL 8
REMARK VINA RESULT:    -6.433      2.748      4.680
REMARK INTER + INTRA:          -9.504
REMARK INTER:                  -8.644
REMARK INTRA:                  -0.860
REMARK UNBOUND:                -0.814
REMARK  Name = 
REMARK  7 active torsions:
REMARK  status: ('A' for Active; 'I' for Inactive)
REMARK    1  A    between atoms: C_1  and  C_2
REMARK    2  A    between atoms: C_2  and  C_3
REMARK    3  A    between atoms: C_2  and  C_14
REMARK    4  A    between atoms: C_3  and  N_4
REMARK    5  A    between atoms: N_4  and  C_5
REMARK    6  A    between atoms: C_8  and  C_9
REMARK    7  A    between atoms: C_18  and  C_19
REMARK                            x       y       z     vdW  Elec       q    Type
REMARK                         _______ _______ _______ _____ _____    ______ ____
ROOT
ATOM      1  C   UNL     1      48.488   7.050  13.940  0.00  0.00    +0.000 C 
ENDROOT
BRANCH   1   3
ATOM      2  C   UNL     1      50.138   8.436  15.358  0.00  0.00    +0.000 C 
ATOM      3  C   UNL     1      48.911   7.563  15.294  0.00  0.00    +0.000 C 
BRANCH   3   4
ATOM      4  C   UNL     1      48.698   6.678  16.472  0.00  0.00    +0.000 A 
ATOM      5  C   UNL     1      48.428   7.212  17.741  0.00  0.00    +0.000 A 
ATOM      6  C   UNL     1      48.040   6.392  18.802  0.00  0.00    +0.000 A 
ATOM      7  C   UNL     1      47.907   5.021  18.609  0.00  0.00    +0.000 A 
ATOM      8  C   UNL     1      48.206   4.454  17.363  0.00  0.00    +0.000 A 
ATOM      9  C   UNL     1      48.643   5.286  16.315  0.00  0.00    +0.000 A 
BRANCH   8  10
ATOM     10  C   UNL     1      47.990   2.980  17.117  0.00  0.00    +0.000 C 
ATOM     11  F   UNL     1      46.854   2.497  17.694  0.00  0.00    +0.000 F 
ATOM     12  F   UNL     1      47.866   2.699  15.782  0.00  0.00    +0.000 F 
ATOM     13  F   UNL     1      49.007   2.211  17.569  0.00  0.00    +0.000 F 
ENDBRANCH   8  10
ENDBRANCH   3   4
ENDBRANCH   1   3
BRANCH   1  14
ATOM     14  N   UNL     1      47.066   7.269  13.710  0.00  0.00    +0.000 N 
ATOM     15  H   UNL     1      46.580   7.491  14.581  0.00  0.00    +0.000 HD
BRANCH  14  16
ATOM     16  C   UNL     1      46.401   6.254  12.992  0.00  0.00    +0.000 A 
ATOM     17  C   UNL     1      46.022   6.380  11.652  0.00  0.00    +0.000 A 
ATOM     18  C   UNL     1      45.318   5.359  11.010  0.00  0.00    +0.000 A 
ATOM     19  C   UNL     1      44.978   4.232  11.744  0.00  0.00    +0.000 A 
ATOM     20  N   UNL     1      45.286   4.070  13.059  0.00  0.00    +0.000 NA
ATOM     21  C   UNL     1      45.967   5.093  13.638  0.00  0.00    +0.000 A 
BRANCH  19  22
ATOM     22  C   UNL     1      44.222   3.118  11.088  0.00  0.00    +0.000 C 
ATOM     23  N   UNL     1      44.918   2.420  10.141  0.00  0.00    +0.000 N 
ATOM     24  O   UNL     1      43.062   2.847  11.371  0.00  0.00    +0.000 OA
ATOM     25  H   UNL     1      45.879   2.674   9.939  0.00  0.00    +0.000 HD
ATOM     26  H   UNL     1      44.477   1.648   9.663  0.00  0.00    +0.000 HD
ENDBRANCH  19  22
ENDBRANCH  14  16
ENDBRANCH   1  14
TORSDOF 6
ENDMDL
MODEL 9
REMARK VINA RESULT:    -6.099      3.263      5.111
REMARK INTER + INTRA:          -9.052
REMARK INTER:                  -8.357
REMARK INTRA:                  -0.696
REMARK UNBOUND:                -0.814
REMARK  Name = 
REMARK  7 active torsions:
REMARK  status: ('A' for Active; 'I' for Inactive)
REMARK    1  A    between atoms: C_1  and  C_2
REMARK    2  A    between atoms: C_2  and  C_3
REMARK    3  A    between atoms: C_2  and  C_14
REMARK    4  A    between atoms: C_3  and  N_4
REMARK    5  A    between atoms: N_4  and  C_5
REMARK    6  A    between atoms: C_8  and  C_9
REMARK    7  A    between atoms: C_18  and  C_19
REMARK                            x       y       z     vdW  Elec       q    Type
REMARK                         _______ _______ _______ _____ _____    ______ ____
ROOT
ATOM      1  C   UNL     1      48.398   6.533  14.353  0.00  0.00    +0.000 C 
ENDROOT
BRANCH   1   3
ATOM      2  C   UNL     1      49.091   7.825  16.476  0.00  0.00    +0.000 C 
ATOM      3  C   UNL     1      48.502   6.583  15.857  0.00  0.00    +0.000 C 
BRANCH   3   4
ATOM      4  C   UNL     1      48.793   5.314  16.579  0.00  0.00    +0.000 A 
ATOM      5  C   UNL     1      47.873   4.255  16.586  0.00  0.00    +0.000 A 
ATOM      6  C   UNL     1      48.218   3.002  17.095  0.00  0.00    +0.000 A 
ATOM      7  C   UNL     1      49.495   2.784  17.600  0.00  0.00    +0.000 A 
ATOM      8  C   UNL     1      50.423   3.832  17.643  0.00  0.00    +0.000 A 
ATOM      9  C   UNL     1      50.047   5.104  17.169  0.00  0.00    +0.000 A 
BRANCH   8  10
ATOM     10  C   UNL     1      51.837   3.590  18.114  0.00  0.00    +0.000 C 
ATOM     11  F   UNL     1      52.770   4.284  17.403  0.00  0.00    +0.000 F 
ATOM     12  F   UNL     1      52.014   3.974  19.416  0.00  0.00    +0.000 F 
ATOM     13  F   UNL     1      52.201   2.288  18.054  0.00  0.00    +0.000 F 
ENDBRANCH   8  10
ENDBRANCH   3   4
ENDBRANCH   1   3
BRANCH   1  14
ATOM     14  N   UNL     1      47.081   6.957  13.898  0.00  0.00    +0.000 N 
ATOM     15  H   UNL     1      46.505   7.278  14.678  0.00  0.00    +0.000 HD
BRANCH  14  16
ATOM     16  C   UNL     1      46.388   6.030  13.092  0.00  0.00    +0.000 A 
ATOM     17  C   UNL     1      45.998   6.294  11.775  0.00  0.00    +0.000 A 
ATOM     18  C   UNL     1      45.267   5.355  11.045  0.00  0.00    +0.000 A 
ATOM     19  C   UNL     1      44.909   4.170  11.670  0.00  0.00    +0.000 A 
ATOM     20  N   UNL     1      45.225   3.874  12.959  0.00  0.00    +0.000 NA
ATOM     21  C   UNL     1      45.934   4.821  13.627  0.00  0.00    +0.000 A 
BRANCH  19  22
ATOM     22  C   UNL     1      44.123   3.141  10.917  0.00  0.00    +0.000 C 
ATOM     23  N   UNL     1      43.373   2.299  11.689  0.00  0.00    +0.000 N 
ATOM     24  O   UNL     1      44.147   3.052   9.696  0.00  0.00    +0.000 OA
ATOM     25  H   UNL     1      43.377   2.409  12.697  0.00  0.00    +0.000 HD
ATOM     26  H   UNL     1      42.808   1.586  11.251  0.00  0.00    +0.000 HD
ENDBRANCH  19  22
ENDBRANCH  14  16
ENDBRANCH   1  14
TORSDOF 6
ENDMDL
