MODEL 1
REMARK VINA RESULT:    -9.384      0.000      0.000
REMARK INTER + INTRA:         -14.538
REMARK INTER:                 -13.224
REMARK INTRA:                  -1.313
REMARK UNBOUND:                -1.313
REMARK  Name = 
REMARK  7 active torsions:
REMARK  status: ('A' for Active; 'I' for Inactive)
REMARK    1  A    between atoms: C_2  and  C_4
REMARK    2  A    between atoms: C_7  and  N_8
REMARK    3  A    between atoms: N_8  and  C_9
REMARK    4  A    between atoms: C_9  and  C_10
REMARK    5  A    between atoms: C_10  and  C_13
REMARK    6  A    between atoms: C_17  and  O_18
REMARK    7  A    between atoms: O_18  and  C_19
REMARK                            x       y       z     vdW  Elec       q    Type
REMARK                         _______ _______ _______ _____ _____    ______ ____
ROOT
ATOM      1  C   UNL     1      43.898   4.831  12.332  0.00  0.00    +0.000 C 
ATOM      2  F   UNL     1      43.001   5.447  13.159  0.00  0.00    +0.000 F 
ATOM      3  F   UNL     1      43.794   3.497  12.623  0.00  0.00    +0.000 F 
ENDROOT
BRANCH   1   4
ATOM      4  C   UNL     1      45.308   5.348  12.535  0.00  0.00    +0.000 A 
ATOM      5  C   UNL     1      45.874   6.252  11.627  0.00  0.00    +0.000 A 
ATOM      6  C   UNL     1      47.155   6.761  11.844  0.00  0.00    +0.000 A 
ATOM      7  C   UNL     1      47.892   6.367  12.965  0.00  0.00    +0.000 A 
ATOM      8  C   UNL     1      47.348   5.454  13.864  0.00  0.00    +0.000 A 
ATOM      9  C   UNL     1      46.059   4.956  13.655  0.00  0.00    +0.000 A 
BRANCH   8  10
ATOM     10  O   UNL     1      47.970   5.013  15.005  0.00  0.00    +0.000 OA
BRANCH  10  11
ATOM     11  C   UNL     1      47.306   4.040  15.842  0.00  0.00    +0.000 C 
ATOM     12  C   UNL     1      47.152   4.385  17.336  0.00  0.00    +0.000 C 
ATOM     13  C   UNL     1      47.698   2.995  17.697  0.00  0.00    +0.000 C 
ATOM     14  F   UNL     1      48.657   2.978  18.652  0.00  0.00    +0.000 F 
ATOM     15  F   UNL     1      46.768   2.088  18.068  0.00  0.00    +0.000 F 
ATOM     16  C   UNL     1      48.206   2.855  16.254  0.00  0.00    +0.000 C 
ENDBRANCH  10  11
ENDBRANCH   8  10
ENDBRANCH   1   4
BRANCH   1  17
ATOM     17  C   UNL     1      43.451   5.034  10.859  0.00  0.00    +0.000 C 
BRANCH  17  18
ATOM     18  N   UNL     1      43.511   3.794  10.067  0.00  0.00    +0.000 N 
ATOM     19  H   UNL     1      43.042   2.993  10.489  0.00  0.00    +0.000 HD
BRANCH  18  23
ATOM     20  C   UNL     1      46.673   2.649   7.528  0.00  0.00    +0.000 A 
ATOM     21  C   UNL     1      46.319   3.996   7.616  0.00  0.00    +0.000 A 
ATOM     22  C   UNL     1      45.288   4.396   8.477  0.00  0.00    +0.000 A 
ATOM     23  C   UNL     1      44.615   3.473   9.284  0.00  0.00    +0.000 A 
ATOM     24  C   UNL     1      44.981   2.123   9.178  0.00  0.00    +0.000 A 
ATOM     25  C   UNL     1      45.994   1.710   8.306  0.00  0.00    +0.000 A 
BRANCH  20  27
ATOM     26  N   UNL     1      47.950   2.942   5.474  0.00  0.00    +0.000 N 
ATOM     27  C   UNL     1      47.714   2.173   6.580  0.00  0.00    +0.000 C 
ATOM     28  O   UNL     1      48.357   1.154   6.788  0.00  0.00    +0.000 OA
ATOM     29  H   UNL     1      48.725   2.655   4.891  0.00  0.00    +0.000 HD
ATOM     30  H   UNL     1      47.631   3.896   5.400  0.00  0.00    +0.000 HD
ENDBRANCH  20  27
ENDBRANCH  18  23
ENDBRANCH  17  18
ENDBRANCH   1  17
TORSDOF 7
ENDMDL
MODEL 2
REMARK VINA RESULT:    -8.005      3.073      4.354
REMARK INTER + INTRA:         -12.594
REMARK INTER:                 -11.383
REMARK INTRA:                  -1.211
REMARK UNBOUND:                -1.313
REMARK  Name = 
REMARK  7 active torsions:
REMARK  status: ('A' for Active; 'I' for Inactive)
REMARK    1  A    between atoms: C_2  and  C_4
REMARK    2  A    between atoms: C_7  and  N_8
REMARK    3  A    between atoms: N_8  and  C_9
REMARK    4  A    between atoms: C_9  and  C_10
REMARK    5  A    between atoms: C_10  and  C_13
REMARK    6  A    between atoms: C_17  and  O_18
REMARK    7  A    between atoms: O_18  and  C_19
REMARK                            x       y       z     vdW  Elec       q    Type
REMARK                         _______ _______ _______ _____ _____    ______ ____
ROOT
ATOM      1  C   UNL     1      43.842   4.889  12.421  0.00  0.00    +0.000 C 
ATOM      2  F   UNL     1      42.872   5.400  13.238  0.00  0.00    +0.000 F 
ATOM      3  F   UNL     1      43.646   3.534  12.439  0.00  0.00    +0.000 F 
ENDROOT
BRANCH   1   4
ATOM      4  C   UNL     1      45.234   5.267  12.886  0.00  0.00    +0.000 A 
ATOM      5  C   UNL     1      45.862   4.552  13.913  0.00  0.00    +0.000 A 
ATOM      6  C   UNL     1      47.162   4.874  14.305  0.00  0.00    +0.000 A 
ATOM      7  C   UNL     1      47.849   5.921  13.683  0.00  0.00    +0.000 A 
ATOM      8  C   UNL     1      47.228   6.652  12.674  0.00  0.00    +0.000 A 
ATOM      9  C   UNL     1      45.932   6.320  12.271  0.00  0.00    +0.000 A 
BRANCH   8  10
ATOM     10  O   UNL     1      47.812   7.683  11.982  0.00  0.00    +0.000 OA
BRANCH  10  11
ATOM     11  C   UNL     1      49.142   8.115  12.345  0.00  0.00    +0.000 C 
ATOM     12  C   UNL     1      49.524   9.571  12.012  0.00  0.00    +0.000 C 
ATOM     13  C   UNL     1      50.832   9.067  11.382  0.00  0.00    +0.000 C 
ATOM     14  F   UNL     1      51.129   9.585  10.168  0.00  0.00    +0.000 F 
ATOM     15  F   UNL     1      51.936   9.215  12.146  0.00  0.00    +0.000 F 
ATOM     16  C   UNL     1      50.238   7.649  11.363  0.00  0.00    +0.000 C 
ENDBRANCH  10  11
ENDBRANCH   8  10
ENDBRANCH   1   4
BRANCH   1  17
ATOM     17  C   UNL     1      43.598   5.387  10.972  0.00  0.00    +0.000 C 
BRANCH  17  18
ATOM     18  N   UNL     1      43.408   4.287  10.013  0.00  0.00    +0.000 N 
ATOM     19  H   UNL     1      42.669   3.629  10.258  0.00  0.00    +0.000 HD
BRANCH  18  23
ATOM     20  C   UNL     1      46.428   2.423   7.743  0.00  0.00    +0.000 A 
ATOM     21  C   UNL     1      46.218   3.796   7.606  0.00  0.00    +0.000 A 
ATOM     22  C   UNL     1      45.235   4.435   8.374  0.00  0.00    +0.000 A 
ATOM     23  C   UNL     1      44.470   3.730   9.309  0.00  0.00    +0.000 A 
ATOM     24  C   UNL     1      44.693   2.350   9.429  0.00  0.00    +0.000 A 
ATOM     25  C   UNL     1      45.656   1.698   8.652  0.00  0.00    +0.000 A 
BRANCH  20  27
ATOM     26  N   UNL     1      48.561   2.356   6.567  0.00  0.00    +0.000 N 
ATOM     27  C   UNL     1      47.412   1.694   6.901  0.00  0.00    +0.000 C 
ATOM     28  O   UNL     1      47.223   0.540   6.542  0.00  0.00    +0.000 OA
ATOM     29  H   UNL     1      49.260   1.815   6.075  0.00  0.00    +0.000 HD
ATOM     30  H   UNL     1      48.862   3.193   7.045  0.00  0.00    +0.000 HD
ENDBRANCH  20  27
ENDBRANCH  18  23
ENDBRANCH  17  18
ENDBRANCH   1  17
TORSDOF 7
ENDMDL
MODEL 3
REMARK VINA RESULT:    -7.898      1.410      1.697
REMARK INTER + INTRA:         -12.443
REMARK INTER:                 -12.050
REMARK INTRA:                  -0.392
REMARK UNBOUND:                -1.313
REMARK  Name = 
REMARK  7 active torsions:
REMARK  status: ('A' for Active; 'I' for Inactive)
REMARK    1  A    between atoms: C_2  and  C_4
REMARK    2  A    between atoms: C_7  and  N_8
REMARK    3  A    between atoms: N_8  and  C_9
REMARK    4  A    between atoms: C_9  and  C_10
REMARK    5  A    between atoms: C_10  and  C_13
REMARK    6  A    between atoms: C_17  and  O_18
REMARK    7  A    between atoms: O_18  and  C_19
REMARK                            x       y       z     vdW  Elec       q    Type
REMARK                         _______ _______ _______ _____ _____    ______ ____
ROOT
ATOM      1  C   UNL     1      45.045   6.553  11.407  0.00  0.00    +0.000 C 
ATOM      2  F   UNL     1      45.541   6.728  10.146  0.00  0.00    +0.000 F 
ATOM      3  F   UNL     1      44.174   7.593  11.596  0.00  0.00    +0.000 F 
ENDROOT
BRANCH   1   4
ATOM      4  C   UNL     1      46.143   6.536  12.452  0.00  0.00    +0.000 A 
ATOM      5  C   UNL     1      46.937   7.668  12.671  0.00  0.00    +0.000 A 
ATOM      6  C   UNL     1      47.915   7.662  13.667  0.00  0.00    +0.000 A 
ATOM      7  C   UNL     1      48.118   6.523  14.451  0.00  0.00    +0.000 A 
ATOM      8  C   UNL     1      47.348   5.385  14.230  0.00  0.00    +0.000 A 
ATOM      9  C   UNL     1      46.359   5.395  13.244  0.00  0.00    +0.000 A 
BRANCH   8  10
ATOM     10  O   UNL     1      47.446   4.221  14.951  0.00  0.00    +0.000 OA
BRANCH  10  11
ATOM     11  C   UNL     1      47.543   4.287  16.391  0.00  0.00    +0.000 C 
ATOM     12  C   UNL     1      48.942   4.534  16.991  0.00  0.00    +0.000 C 
ATOM     13  C   UNL     1      48.717   3.361  17.957  0.00  0.00    +0.000 C 
ATOM     14  F   UNL     1      49.741   2.482  18.052  0.00  0.00    +0.000 F 
ATOM     15  F   UNL     1      48.387   3.709  19.220  0.00  0.00    +0.000 F 
ATOM     16  C   UNL     1      47.541   2.905  17.079  0.00  0.00    +0.000 C 
ENDBRANCH  10  11
ENDBRANCH   8  10
ENDBRANCH   1   4
BRANCH   1  17
ATOM     17  C   UNL     1      44.230   5.233  11.452  0.00  0.00    +0.000 C 
BRANCH  17  18
ATOM     18  N   UNL     1      43.907   4.714  10.113  0.00  0.00    +0.000 N 
ATOM     19  H   UNL     1      42.935   4.435   9.984  0.00  0.00    +0.000 HD
BRANCH  18  23
ATOM     20  C   UNL     1      46.453   2.348   7.729  0.00  0.00    +0.000 A 
ATOM     21  C   UNL     1      46.448   3.734   7.560  0.00  0.00    +0.000 A 
ATOM     22  C   UNL     1      45.626   4.536   8.363  0.00  0.00    +0.000 A 
ATOM     23  C   UNL     1      44.824   3.982   9.366  0.00  0.00    +0.000 A 
ATOM     24  C   UNL     1      44.839   2.587   9.518  0.00  0.00    +0.000 A 
ATOM     25  C   UNL     1      45.638   1.775   8.707  0.00  0.00    +0.000 A 
BRANCH  20  27
ATOM     26  N   UNL     1      48.285   2.025   6.156  0.00  0.00    +0.000 N 
ATOM     27  C   UNL     1      47.256   1.456   6.855  0.00  0.00    +0.000 C 
ATOM     28  O   UNL     1      47.033   0.255   6.780  0.00  0.00    +0.000 OA
ATOM     29  H   UNL     1      48.879   1.389   5.641  0.00  0.00    +0.000 HD
ATOM     30  H   UNL     1      48.653   2.937   6.382  0.00  0.00    +0.000 HD
ENDBRANCH  20  27
ENDBRANCH  18  23
ENDBRANCH  17  18
ENDBRANCH   1  17
TORSDOF 7
ENDMDL
MODEL 4
REMARK VINA RESULT:    -7.384      3.673      8.318
REMARK INTER + INTRA:         -11.719
REMARK INTER:                 -10.780
REMARK INTRA:                  -0.938
REMARK UNBOUND:                -1.313
REMARK  Name = 
REMARK  7 active torsions:
REMARK  status: ('A' for Active; 'I' for Inactive)
REMARK    1  A    between atoms: C_2  and  C_4
REMARK    2  A    between atoms: C_7  and  N_8
REMARK    3  A    between atoms: N_8  and  C_9
REMARK    4  A    between atoms: C_9  and  C_10
REMARK    5  A    between atoms: C_10  and  C_13
REMARK    6  A    between atoms: C_17  and  O_18
REMARK    7  A    between atoms: O_18  and  C_19
REMARK                            x       y       z     vdW  Elec       q    Type
REMARK                         _______ _______ _______ _____ _____    ______ ____
ROOT
ATOM      1  C   UNL     1      45.673   6.711  11.741  0.00  0.00    +0.000 C 
ATOM      2  F   UNL     1      44.858   7.755  11.405  0.00  0.00    +0.000 F 
ATOM      3  F   UNL     1      46.730   6.790  10.872  0.00  0.00    +0.000 F 
ENDROOT
BRANCH   1   4
ATOM      4  C   UNL     1      44.959   5.377  11.645  0.00  0.00    +0.000 A 
ATOM      5  C   UNL     1      44.074   4.968  12.650  0.00  0.00    +0.000 A 
ATOM      6  C   UNL     1      43.384   3.761  12.534  0.00  0.00    +0.000 A 
ATOM      7  C   UNL     1      43.576   2.942  11.418  0.00  0.00    +0.000 A 
ATOM      8  C   UNL     1      44.468   3.328  10.421  0.00  0.00    +0.000 A 
ATOM      9  C   UNL     1      45.147   4.544  10.529  0.00  0.00    +0.000 A 
BRANCH   8  10
ATOM     10  O   UNL     1      44.718   2.615   9.276  0.00  0.00    +0.000 OA
BRANCH  10  11
ATOM     11  C   UNL     1      46.045   2.638   8.704  0.00  0.00    +0.000 C 
ATOM     12  C   UNL     1      46.255   3.506   7.448  0.00  0.00    +0.000 C 
ATOM     13  C   UNL     1      46.956   2.320   6.766  0.00  0.00    +0.000 C 
ATOM     14  F   UNL     1      46.552   2.055   5.503  0.00  0.00    +0.000 F 
ATOM     15  F   UNL     1      48.305   2.389   6.734  0.00  0.00    +0.000 F 
ATOM     16  C   UNL     1      46.377   1.397   7.849  0.00  0.00    +0.000 C 
ENDBRANCH  10  11
ENDBRANCH   8  10
ENDBRANCH   1   4
BRANCH   1  17
ATOM     17  C   UNL     1      46.218   6.935  13.177  0.00  0.00    +0.000 C 
BRANCH  17  18
ATOM     18  N   UNL     1      47.448   6.174  13.446  0.00  0.00    +0.000 N 
ATOM     19  H   UNL     1      47.787   5.615  12.664  0.00  0.00    +0.000 HD
BRANCH  18  23
ATOM     20  C   UNL     1      48.172   4.810  17.367  0.00  0.00    +0.000 A 
ATOM     21  C   UNL     1      47.326   4.077  16.532  0.00  0.00    +0.000 A 
ATOM     22  C   UNL     1      47.097   4.504  15.217  0.00  0.00    +0.000 A 
ATOM     23  C   UNL     1      47.726   5.641  14.701  0.00  0.00    +0.000 A 
ATOM     24  C   UNL     1      48.569   6.367  15.557  0.00  0.00    +0.000 A 
ATOM     25  C   UNL     1      48.787   5.962  16.878  0.00  0.00    +0.000 A 
BRANCH  20  27
ATOM     26  N   UNL     1      48.228   3.114  19.116  0.00  0.00    +0.000 N 
ATOM     27  C   UNL     1      48.390   4.431  18.787  0.00  0.00    +0.000 C 
ATOM     28  O   UNL     1      48.728   5.253  19.628  0.00  0.00    +0.000 OA
ATOM     29  H   UNL     1      48.471   2.858  20.063  0.00  0.00    +0.000 HD
ATOM     30  H   UNL     1      48.202   2.382  18.421  0.00  0.00    +0.000 HD
ENDBRANCH  20  27
ENDBRANCH  18  23
ENDBRANCH  17  18
ENDBRANCH   1  17
TORSDOF 7
ENDMDL
MODEL 5
REMARK VINA RESULT:    -7.258      2.914      4.134
REMARK INTER + INTRA:         -11.542
REMARK INTER:                 -10.790
REMARK INTRA:                  -0.752
REMARK UNBOUND:                -1.313
REMARK  Name = 
REMARK  7 active torsions:
REMARK  status: ('A' for Active; 'I' for Inactive)
REMARK    1  A    between atoms: C_2  and  C_4
REMARK    2  A    between atoms: C_7  and  N_8
REMARK    3  A    between atoms: N_8  and  C_9
REMARK    4  A    between atoms: C_9  and  C_10
REMARK    5  A    between atoms: C_10  and  C_13
REMARK    6  A    between atoms: C_17  and  O_18
REMARK    7  A    between atoms: O_18  and  C_19
REMARK                            x       y       z     vdW  Elec       q    Type
REMARK                         _______ _______ _______ _____ _____    ______ ____
ROOT
ATOM      1  C   UNL     1      43.918   4.620  12.997  0.00  0.00    +0.000 C 
ATOM      2  F   UNL     1      42.645   4.584  13.492  0.00  0.00    +0.000 F 
ATOM      3  F   UNL     1      44.726   4.351  14.069  0.00  0.00    +0.000 F 
ENDROOT
BRANCH   1   4
ATOM      4  C   UNL     1      44.244   5.958  12.364  0.00  0.00    +0.000 A 
ATOM      5  C   UNL     1      43.304   6.615  11.559  0.00  0.00    +0.000 A 
ATOM      6  C   UNL     1      43.592   7.868  11.018  0.00  0.00    +0.000 A 
ATOM      7  C   UNL     1      44.825   8.478  11.263  0.00  0.00    +0.000 A 
ATOM      8  C   UNL     1      45.776   7.827  12.045  0.00  0.00    +0.000 A 
ATOM      9  C   UNL     1      45.482   6.579  12.601  0.00  0.00    +0.000 A 
BRANCH   8  10
ATOM     10  O   UNL     1      47.007   8.338  12.368  0.00  0.00    +0.000 OA
BRANCH  10  11
ATOM     11  C   UNL     1      48.183   7.825  11.703  0.00  0.00    +0.000 C 
ATOM     12  C   UNL     1      49.187   7.032  12.562  0.00  0.00    +0.000 C 
ATOM     13  C   UNL     1      50.329   7.881  11.981  0.00  0.00    +0.000 C 
ATOM     14  F   UNL     1      51.208   8.370  12.887  0.00  0.00    +0.000 F 
ATOM     15  F   UNL     1      51.062   7.281  11.017  0.00  0.00    +0.000 F 
ATOM     16  C   UNL     1      49.282   8.884  11.474  0.00  0.00    +0.000 C 
ENDBRANCH  10  11
ENDBRANCH   8  10
ENDBRANCH   1   4
BRANCH   1  17
ATOM     17  C   UNL     1      44.094   3.473  11.966  0.00  0.00    +0.000 C 
BRANCH  17  18
ATOM     18  N   UNL     1      43.871   3.913  10.579  0.00  0.00    +0.000 N 
ATOM     19  H   UNL     1      42.896   4.082  10.334  0.00  0.00    +0.000 HD
BRANCH  18  23
ATOM     20  C   UNL     1      46.498   2.706   7.513  0.00  0.00    +0.000 A 
ATOM     21  C   UNL     1      45.916   1.740   8.336  0.00  0.00    +0.000 A 
ATOM     22  C   UNL     1      45.020   2.124   9.343  0.00  0.00    +0.000 A 
ATOM     23  C   UNL     1      44.663   3.463   9.528  0.00  0.00    +0.000 A 
ATOM     24  C   UNL     1      45.261   4.420   8.693  0.00  0.00    +0.000 A 
ATOM     25  C   UNL     1      46.174   4.050   7.699  0.00  0.00    +0.000 A 
BRANCH  20  27
ATOM     26  N   UNL     1      47.516   3.099   5.334  0.00  0.00    +0.000 N 
ATOM     27  C   UNL     1      47.503   2.350   6.478  0.00  0.00    +0.000 C 
ATOM     28  O   UNL     1      48.309   1.445   6.648  0.00  0.00    +0.000 OA
ATOM     29  H   UNL     1      48.266   2.906   4.684  0.00  0.00    +0.000 HD
ATOM     30  H   UNL     1      47.052   3.993   5.268  0.00  0.00    +0.000 HD
ENDBRANCH  20  27
ENDBRANCH  18  23
ENDBRANCH  17  18
ENDBRANCH   1  17
TORSDOF 7
ENDMDL
MODEL 6
REMARK VINA RESULT:    -6.730      2.499      4.652
REMARK INTER + INTRA:         -10.797
REMARK INTER:                 -10.557
REMARK INTRA:                  -0.240
REMARK UNBOUND:                -1.313
REMARK  Name = 
REMARK  7 active torsions:
REMARK  status: ('A' for Active; 'I' for Inactive)
REMARK    1  A    between atoms: C_2  and  C_4
REMARK    2  A    between atoms: C_7  and  N_8
REMARK    3  A    between atoms: N_8  and  C_9
REMARK    4  A    between atoms: C_9  and  C_10
REMARK    5  A    between atoms: C_10  and  C_13
REMARK    6  A    between atoms: C_17  and  O_18
REMARK    7  A    between atoms: O_18  and  C_19
REMARK                            x       y       z     vdW  Elec       q    Type
REMARK                         _______ _______ _______ _____ _____    ______ ____
ROOT
ATOM      1  C   UNL     1      45.242   4.547  12.740  0.00  0.00    +0.000 C 
ATOM      2  F   UNL     1      44.075   4.386  13.432  0.00  0.00    +0.000 F 
ATOM      3  F   UNL     1      45.577   3.291  12.308  0.00  0.00    +0.000 F 
ENDROOT
BRANCH   1   4
ATOM      4  C   UNL     1      46.332   5.161  13.596  0.00  0.00    +0.000 A 
ATOM      5  C   UNL     1      46.808   4.493  14.731  0.00  0.00    +0.000 A 
ATOM      6  C   UNL     1      47.844   5.041  15.489  0.00  0.00    +0.000 A 
ATOM      7  C   UNL     1      48.411   6.267  15.130  0.00  0.00    +0.000 A 
ATOM      8  C   UNL     1      47.933   6.950  14.014  0.00  0.00    +0.000 A 
ATOM      9  C   UNL     1      46.907   6.394  13.246  0.00  0.00    +0.000 A 
BRANCH   8  10
ATOM     10  O   UNL     1      48.427   8.146  13.558  0.00  0.00    +0.000 OA
BRANCH  10  11
ATOM     11  C   UNL     1      47.540   9.282  13.451  0.00  0.00    +0.000 C 
ATOM     12  C   UNL     1      46.298   9.123  12.552  0.00  0.00    +0.000 C 
ATOM     13  C   UNL     1      46.636  10.460  11.875  0.00  0.00    +0.000 C 
ATOM     14  F   UNL     1      46.590  10.455  10.523  0.00  0.00    +0.000 F 
ATOM     15  F   UNL     1      45.898  11.516  12.283  0.00  0.00    +0.000 F 
ATOM     16  C   UNL     1      48.044  10.376  12.485  0.00  0.00    +0.000 C 
ENDBRANCH  10  11
ENDBRANCH   8  10
ENDBRANCH   1   4
BRANCH   1  17
ATOM     17  C   UNL     1      44.973   5.426  11.489  0.00  0.00    +0.000 C 
BRANCH  17  18
ATOM     18  N   UNL     1      44.231   4.712  10.438  0.00  0.00    +0.000 N 
ATOM     19  H   UNL     1      43.311   4.373  10.718  0.00  0.00    +0.000 HD
BRANCH  18  23
ATOM     20  C   UNL     1      46.434   2.446   7.652  0.00  0.00    +0.000 A 
ATOM     21  C   UNL     1      45.639   1.789   8.593  0.00  0.00    +0.000 A 
ATOM     22  C   UNL     1      44.880   2.530   9.509  0.00  0.00    +0.000 A 
ATOM     23  C   UNL     1      44.872   3.928   9.485  0.00  0.00    +0.000 A 
ATOM     24  C   UNL     1      45.681   4.570   8.535  0.00  0.00    +0.000 A 
ATOM     25  C   UNL     1      46.460   3.840   7.630  0.00  0.00    +0.000 A 
BRANCH  20  27
ATOM     26  N   UNL     1      48.315   2.398   6.103  0.00  0.00    +0.000 N 
ATOM     27  C   UNL     1      47.307   1.700   6.708  0.00  0.00    +0.000 C 
ATOM     28  O   UNL     1      47.154   0.505   6.497  0.00  0.00    +0.000 OA
ATOM     29  H   UNL     1      48.956   1.856   5.539  0.00  0.00    +0.000 HD
ATOM     30  H   UNL     1      48.626   3.299   6.438  0.00  0.00    +0.000 HD
ENDBRANCH  20  27
ENDBRANCH  18  23
ENDBRANCH  17  18
ENDBRANCH   1  17
TORSDOF 7
ENDMDL
MODEL 7
REMARK VINA RESULT:    -6.676      3.520      4.848
REMARK INTER + INTRA:         -10.722
REMARK INTER:                  -9.208
REMARK INTRA:                  -1.514
REMARK UNBOUND:                -1.313
REMARK  Name = 
REMARK  7 active torsions:
REMARK  status: ('A' for Active; 'I' for Inactive)
REMARK    1  A    between atoms: C_2  and  C_4
REMARK    2  A    between atoms: C_7  and  N_8
REMARK    3  A    between atoms: N_8  and  C_9
REMARK    4  A    between atoms: C_9  and  C_10
REMARK    5  A    between atoms: C_10  and  C_13
REMARK    6  A    between atoms: C_17  and  O_18
REMARK    7  A    between atoms: O_18  and  C_19
REMARK                            x       y       z     vdW  Elec       q    Type
REMARK                         _______ _______ _______ _____ _____    ______ ____
ROOT
ATOM      1  C   UNL     1      48.260   8.768  12.468  0.00  0.00    +0.000 C 
ATOM      2  F   UNL     1      48.574   7.667  11.722  0.00  0.00    +0.000 F 
ATOM      3  F   UNL     1      49.021   9.781  11.949  0.00  0.00    +0.000 F 
ENDROOT
BRANCH   1   4
ATOM      4  C   UNL     1      48.533   8.552  13.944  0.00  0.00    +0.000 A 
ATOM      5  C   UNL     1      48.352   9.594  14.862  0.00  0.00    +0.000 A 
ATOM      6  C   UNL     1      48.559   9.377  16.225  0.00  0.00    +0.000 A 
ATOM      7  C   UNL     1      48.960   8.120  16.688  0.00  0.00    +0.000 A 
ATOM      8  C   UNL     1      49.162   7.082  15.783  0.00  0.00    +0.000 A 
ATOM      9  C   UNL     1      48.939   7.294  14.420  0.00  0.00    +0.000 A 
BRANCH   8  10
ATOM     10  O   UNL     1      49.533   5.806  16.125  0.00  0.00    +0.000 OA
BRANCH  10  11
ATOM     11  C   UNL     1      48.607   4.971  16.856  0.00  0.00    +0.000 C 
ATOM     12  C   UNL     1      49.182   3.717  17.542  0.00  0.00    +0.000 C 
ATOM     13  C   UNL     1      48.052   2.880  16.923  0.00  0.00    +0.000 C 
ATOM     14  F   UNL     1      48.440   1.723  16.338  0.00  0.00    +0.000 F 
ATOM     15  F   UNL     1      47.039   2.569  17.761  0.00  0.00    +0.000 F 
ATOM     16  C   UNL     1      47.766   4.040  15.957  0.00  0.00    +0.000 C 
ENDBRANCH  10  11
ENDBRANCH   8  10
ENDBRANCH   1   4
BRANCH   1  17
ATOM     17  C   UNL     1      46.767   9.127  12.238  0.00  0.00    +0.000 C 
BRANCH  17  18
ATOM     18  N   UNL     1      45.848   8.256  12.990  0.00  0.00    +0.000 N 
ATOM     19  H   UNL     1      45.940   8.309  14.004  0.00  0.00    +0.000 HD
BRANCH  18  23
ATOM     20  C   UNL     1      44.485   4.456  11.783  0.00  0.00    +0.000 A 
ATOM     21  C   UNL     1      44.164   5.576  11.012  0.00  0.00    +0.000 A 
ATOM     22  C   UNL     1      44.632   6.842  11.387  0.00  0.00    +0.000 A 
ATOM     23  C   UNL     1      45.450   7.014  12.508  0.00  0.00    +0.000 A 
ATOM     24  C   UNL     1      45.758   5.878  13.272  0.00  0.00    +0.000 A 
ATOM     25  C   UNL     1      45.277   4.612  12.920  0.00  0.00    +0.000 A 
BRANCH  20  27
ATOM     26  N   UNL     1      43.731   2.256  12.508  0.00  0.00    +0.000 N 
ATOM     27  C   UNL     1      43.954   3.106  11.461  0.00  0.00    +0.000 C 
ATOM     28  O   UNL     1      43.696   2.773  10.313  0.00  0.00    +0.000 OA
ATOM     29  H   UNL     1      43.282   1.379  12.281  0.00  0.00    +0.000 HD
ATOM     30  H   UNL     1      43.689   2.575  13.465  0.00  0.00    +0.000 HD
ENDBRANCH  20  27
ENDBRANCH  18  23
ENDBRANCH  17  18
ENDBRANCH   1  17
TORSDOF 7
ENDMDL
MODEL 8
REMARK VINA RESULT:    -6.588      4.023      5.829
REMARK INTER + INTRA:         -10.597
REMARK INTER:                  -8.899
REMARK INTRA:                  -1.698
REMARK UNBOUND:                -1.313
REMARK  Name = 
REMARK  7 active torsions:
REMARK  status: ('A' for Active; 'I' for Inactive)
REMARK    1  A    between atoms: C_2  and  C_4
REMARK    2  A    between atoms: C_7  and  N_8
REMARK    3  A    between atoms: N_8  and  C_9
REMARK    4  A    between atoms: C_9  and  C_10
REMARK    5  A    between atoms: C_10  and  C_13
REMARK    6  A    between atoms: C_17  and  O_18
REMARK    7  A    between atoms: O_18  and  C_19
REMARK                            x       y       z     vdW  Elec       q    Type
REMARK                         _______ _______ _______ _____ _____    ______ ____
ROOT
ATOM      1  C   UNL     1      49.346   8.709  14.377  0.00  0.00    +0.000 C 
ATOM      2  F   UNL     1      50.426   9.539  14.274  0.00  0.00    +0.000 F 
ATOM      3  F   UNL     1      48.337   9.351  13.710  0.00  0.00    +0.000 F 
ENDROOT
BRANCH   1   4
ATOM      4  C   UNL     1      48.981   8.426  15.821  0.00  0.00    +0.000 A 
ATOM      5  C   UNL     1      48.202   9.332  16.551  0.00  0.00    +0.000 A 
ATOM      6  C   UNL     1      47.830   9.045  17.864  0.00  0.00    +0.000 A 
ATOM      7  C   UNL     1      48.238   7.853  18.470  0.00  0.00    +0.000 A 
ATOM      8  C   UNL     1      49.028   6.952  17.761  0.00  0.00    +0.000 A 
ATOM      9  C   UNL     1      49.389   7.232  16.441  0.00  0.00    +0.000 A 
BRANCH   8  10
ATOM     10  O   UNL     1      49.468   5.746  18.246  0.00  0.00    +0.000 OA
BRANCH  10  11
ATOM     11  C   UNL     1      48.530   4.657  18.390  0.00  0.00    +0.000 C 
ATOM     12  C   UNL     1      48.992   3.263  17.921  0.00  0.00    +0.000 C 
ATOM     13  C   UNL     1      47.677   3.107  17.141  0.00  0.00    +0.000 C 
ATOM     14  F   UNL     1      47.805   2.664  15.869  0.00  0.00    +0.000 F 
ATOM     15  F   UNL     1      46.747   2.324  17.731  0.00  0.00    +0.000 F 
ATOM     16  C   UNL     1      47.446   4.619  17.291  0.00  0.00    +0.000 C 
ENDBRANCH  10  11
ENDBRANCH   8  10
ENDBRANCH   1   4
BRANCH   1  17
ATOM     17  C   UNL     1      49.650   7.386  13.623  0.00  0.00    +0.000 C 
BRANCH  17  18
ATOM     18  N   UNL     1      48.804   7.199  12.434  0.00  0.00    +0.000 N 
ATOM     19  H   UNL     1      48.826   7.969  11.766  0.00  0.00    +0.000 HD
BRANCH  18  23
ATOM     20  C   UNL     1      45.100   5.239  12.880  0.00  0.00    +0.000 A 
ATOM     21  C   UNL     1      45.259   6.178  11.860  0.00  0.00    +0.000 A 
ATOM     22  C   UNL     1      46.493   6.819  11.682  0.00  0.00    +0.000 A 
ATOM     23  C   UNL     1      47.594   6.515  12.490  0.00  0.00    +0.000 A 
ATOM     24  C   UNL     1      47.413   5.572  13.513  0.00  0.00    +0.000 A 
ATOM     25  C   UNL     1      46.179   4.943  13.714  0.00  0.00    +0.000 A 
BRANCH  20  27
ATOM     26  N   UNL     1      42.677   5.378  13.097  0.00  0.00    +0.000 N 
ATOM     27  C   UNL     1      43.792   4.587  13.147  0.00  0.00    +0.000 C 
ATOM     28  O   UNL     1      43.704   3.389  13.373  0.00  0.00    +0.000 OA
ATOM     29  H   UNL     1      41.790   4.902  13.186  0.00  0.00    +0.000 HD
ATOM     30  H   UNL     1      42.682   6.293  12.671  0.00  0.00    +0.000 HD
ENDBRANCH  20  27
ENDBRANCH  18  23
ENDBRANCH  17  18
ENDBRANCH   1  17
TORSDOF 7
ENDMDL
MODEL 9
REMARK VINA RESULT:    -6.471      4.236      8.299
REMARK INTER + INTRA:         -10.433
REMARK INTER:                  -9.301
REMARK INTRA:                  -1.132
REMARK UNBOUND:                -1.313
REMARK  Name = 
REMARK  7 active torsions:
REMARK  status: ('A' for Active; 'I' for Inactive)
REMARK    1  A    between atoms: C_2  and  C_4
REMARK    2  A    between atoms: C_7  and  N_8
REMARK    3  A    between atoms: N_8  and  C_9
REMARK    4  A    between atoms: C_9  and  C_10
REMARK    5  A    between atoms: C_10  and  C_13
REMARK    6  A    between atoms: C_17  and  O_18
REMARK    7  A    between atoms: O_18  and  C_19
REMARK                            x       y       z     vdW  Elec       q    Type
REMARK                         _______ _______ _______ _____ _____    ______ ____
ROOT
ATOM      1  C   UNL     1      48.631   7.817  12.723  0.00  0.00    +0.000 C 
ATOM      2  F   UNL     1      49.221   8.726  11.891  0.00  0.00    +0.000 F 
ATOM      3  F   UNL     1      49.415   6.697  12.643  0.00  0.00    +0.000 F 
ENDROOT
BRANCH   1   4
ATOM      4  C   UNL     1      47.194   7.533  12.329  0.00  0.00    +0.000 A 
ATOM      5  C   UNL     1      46.264   8.575  12.224  0.00  0.00    +0.000 A 
ATOM      6  C   UNL     1      44.956   8.314  11.815  0.00  0.00    +0.000 A 
ATOM      7  C   UNL     1      44.556   7.009  11.515  0.00  0.00    +0.000 A 
ATOM      8  C   UNL     1      45.466   5.962  11.634  0.00  0.00    +0.000 A 
ATOM      9  C   UNL     1      46.781   6.224  12.028  0.00  0.00    +0.000 A 
BRANCH   8  10
ATOM     10  O   UNL     1      45.191   4.648  11.347  0.00  0.00    +0.000 OA
BRANCH  10  11
ATOM     11  C   UNL     1      44.686   4.301  10.038  0.00  0.00    +0.000 C 
ATOM     12  C   UNL     1      44.793   2.824   9.612  0.00  0.00    +0.000 C 
ATOM     13  C   UNL     1      45.398   3.271   8.272  0.00  0.00    +0.000 C 
ATOM     14  F   UNL     1      46.508   2.602   7.884  0.00  0.00    +0.000 F 
ATOM     15  F   UNL     1      44.549   3.253   7.221  0.00  0.00    +0.000 F 
ATOM     16  C   UNL     1      45.647   4.658   8.885  0.00  0.00    +0.000 C 
ENDBRANCH  10  11
ENDBRANCH   8  10
ENDBRANCH   1   4
BRANCH   1  17
ATOM     17  C   UNL     1      48.700   8.345  14.181  0.00  0.00    +0.000 C 
BRANCH  17  18
ATOM     18  N   UNL     1      48.118   7.409  15.156  0.00  0.00    +0.000 N 
ATOM     19  H   UNL     1      47.252   7.727  15.591  0.00  0.00    +0.000 HD
BRANCH  18  23
ATOM     20  C   UNL     1      50.465   4.731  17.410  0.00  0.00    +0.000 A 
ATOM     21  C   UNL     1      51.056   5.877  16.875  0.00  0.00    +0.000 A 
ATOM     22  C   UNL     1      50.282   6.791  16.146  0.00  0.00    +0.000 A 
ATOM     23  C   UNL     1      48.909   6.599  15.964  0.00  0.00    +0.000 A 
ATOM     24  C   UNL     1      48.334   5.439  16.505  0.00  0.00    +0.000 A 
ATOM     25  C   UNL     1      49.101   4.510  17.215  0.00  0.00    +0.000 A 
BRANCH  20  27
ATOM     26  N   UNL     1      50.907   2.396  17.946  0.00  0.00    +0.000 N 
ATOM     27  C   UNL     1      51.260   3.704  18.131  0.00  0.00    +0.000 C 
ATOM     28  O   UNL     1      52.211   4.006  18.838  0.00  0.00    +0.000 OA
ATOM     29  H   UNL     1      51.516   1.707  18.366  0.00  0.00    +0.000 HD
ATOM     30  H   UNL     1      50.309   2.099  17.188  0.00  0.00    +0.000 HD
ENDBRANCH  20  27
ENDBRANCH  18  23
ENDBRANCH  17  18
ENDBRANCH   1  17
TORSDOF 7
ENDMDL
