MODEL 1
REMARK VINA RESULT:    -8.480      0.000      0.000
REMARK INTER + INTRA:         -12.205
REMARK INTER:                 -11.206
REMARK INTRA:                  -0.999
REMARK UNBOUND:                -0.999
REMARK  Name = 
REMARK  7 active torsions:
REMARK  status: ('A' for Active; 'I' for Inactive)
REMARK    1  A    between atoms: C_1  and  C_2
REMARK    2  A    between atoms: C_2  and  C_3
REMARK    3  A    between atoms: C_7  and  C_8
REMARK    4  A    between atoms: C_8  and  C_9
REMARK    5  A    between atoms: C_9  and  N_10
REMARK    6  A    between atoms: C_14  and  C_15
REMARK    7  A    between atoms: C_23  and  O_24
REMARK                            x       y       z     vdW  Elec       q    Type
REMARK                         _______ _______ _______ _____ _____    ______ ____
ROOT
ATOM      1  C   UNL     1      46.781   6.662  12.899  0.00  0.00    +0.000 A 
ATOM      2  C   UNL     1      47.445   5.568  13.474  0.00  0.00    +0.000 A 
ATOM      3  C   UNL     1      46.792   4.345  13.668  0.00  0.00    +0.000 A 
ATOM      4  C   UNL     1      45.455   4.189  13.299  0.00  0.00    +0.000 A 
ATOM      5  C   UNL     1      44.759   5.250  12.715  0.00  0.00    +0.000 A 
ATOM      6  C   UNL     1      45.449   6.459  12.508  0.00  0.00    +0.000 A 
ENDROOT
BRANCH   1   8
ATOM      7  C   UNL     1      46.362   9.035  12.297  0.00  0.00    +0.000 C 
ATOM      8  C   UNL     1      47.454   8.052  12.787  0.00  0.00    +0.000 C 
ATOM      9  C   UNL     1      48.005   8.489  14.172  0.00  0.00    +0.000 C 
ATOM     10  C   UNL     1      48.800   9.800  14.141  0.00  0.00    +0.000 C 
ATOM     11  C   UNL     1      49.919   9.805  13.102  0.00  0.00    +0.000 C 
ATOM     12  C   UNL     1      49.420   9.388  11.724  0.00  0.00    +0.000 C 
ATOM     13  C   UNL     1      48.636   8.076  11.767  0.00  0.00    +0.000 C 
BRANCH  11  14
ATOM     14  O   UNL     1      50.981   8.947  13.515  0.00  0.00    +0.000 OA
ATOM     15  H   UNL     1      50.853   8.713  14.449  0.00  0.00    +0.000 HD
ENDBRANCH  11  14
ENDBRANCH   1   8
BRANCH   5  16
ATOM     16  C   UNL     1      43.284   5.092  12.369  0.00  0.00    +0.000 C 
BRANCH  16  17
ATOM     17  C   UNL     1      43.039   4.421  11.012  0.00  0.00    +0.000 C 
BRANCH  17  18
ATOM     18  N   UNL     1      43.828   4.996   9.920  0.00  0.00    +0.000 N 
ATOM     19  C   UNL     1      44.621   4.001   9.299  0.00  0.00    +0.000 A 
ATOM     20  C   UNL     1      45.457   4.368   8.250  0.00  0.00    +0.000 A 
ATOM     21  C   UNL     1      46.238   3.392   7.625  0.00  0.00    +0.000 A 
ATOM     22  C   UNL     1      46.174   2.065   8.049  0.00  0.00    +0.000 A 
ATOM     23  C   UNL     1      45.312   1.785   9.093  0.00  0.00    +0.000 A 
ATOM     24  N   UNL     1      44.543   2.716   9.710  0.00  0.00    +0.000 NA
ATOM     25  H   UNL     1      44.444   5.737  10.242  0.00  0.00    +0.000 HD
BRANCH  22  26
ATOM     26  C   UNL     1      47.016   1.039   7.386  0.00  0.00    +0.000 C 
ATOM     27  N   UNL     1      46.784  -0.284   7.645  0.00  0.00    +0.000 N 
ATOM     28  O   UNL     1      47.915   1.362   6.617  0.00  0.00    +0.000 OA
ATOM     29  H   UNL     1      46.067  -0.661   8.244  0.00  0.00    +0.000 HD
ATOM     30  H   UNL     1      47.384  -0.947   7.168  0.00  0.00    +0.000 HD
ENDBRANCH  22  26
ENDBRANCH  17  18
ENDBRANCH  16  17
ENDBRANCH   5  16
TORSDOF 6
ENDMDL
MODEL 2
REMARK VINA RESULT:    -7.364      1.903      2.785
REMARK INTER + INTRA:         -10.730
REMARK INTER:                  -9.818
REMARK INTRA:                  -0.912
REMARK UNBOUND:                -0.999
REMARK  Name = 
REMARK  7 active torsions:
REMARK  status: ('A' for Active; 'I' for Inactive)
REMARK    1  A    between atoms: C_1  and  C_2
REMARK    2  A    between atoms: C_2  and  C_3
REMARK    3  A    between atoms: C_7  and  C_8
REMARK    4  A    between atoms: C_8  and  C_9
REMARK    5  A    between atoms: C_9  and  N_10
REMARK    6  A    between atoms: C_14  and  C_15
REMARK    7  A    between atoms: C_23  and  O_24
REMARK                            x       y       z     vdW  Elec       q    Type
REMARK                         _______ _______ _______ _____ _____    ______ ____
ROOT
ATOM      1  C   UNL     1      46.638   7.106  13.124  0.00  0.00    +0.000 A 
ATOM      2  C   UNL     1      46.255   8.100  12.210  0.00  0.00    +0.000 A 
ATOM      3  C   UNL     1      45.140   7.930  11.381  0.00  0.00    +0.000 A 
ATOM      4  C   UNL     1      44.385   6.758  11.440  0.00  0.00    +0.000 A 
ATOM      5  C   UNL     1      44.726   5.746  12.341  0.00  0.00    +0.000 A 
ATOM      6  C   UNL     1      45.836   5.956  13.180  0.00  0.00    +0.000 A 
ENDROOT
BRANCH   1   8
ATOM      7  C   UNL     1      49.117   7.062  12.974  0.00  0.00    +0.000 C 
ATOM      8  C   UNL     1      47.935   7.230  13.961  0.00  0.00    +0.000 C 
ATOM      9  C   UNL     1      47.990   8.619  14.653  0.00  0.00    +0.000 C 
ATOM     10  C   UNL     1      49.179   8.793  15.606  0.00  0.00    +0.000 C 
ATOM     11  C   UNL     1      49.290   7.679  16.645  0.00  0.00    +0.000 C 
ATOM     12  C   UNL     1      49.247   6.296  16.007  0.00  0.00    +0.000 C 
ATOM     13  C   UNL     1      48.054   6.133  15.065  0.00  0.00    +0.000 C 
BRANCH  11  14
ATOM     14  O   UNL     1      48.250   7.801  17.614  0.00  0.00    +0.000 OA
ATOM     15  H   UNL     1      48.566   7.449  18.463  0.00  0.00    +0.000 HD
ENDBRANCH  11  14
ENDBRANCH   1   8
BRANCH   5  16
ATOM     16  C   UNL     1      43.935   4.445  12.358  0.00  0.00    +0.000 C 
BRANCH  16  17
ATOM     17  C   UNL     1      43.450   4.002  10.972  0.00  0.00    +0.000 C 
BRANCH  17  18
ATOM     18  N   UNL     1      43.824   2.629  10.628  0.00  0.00    +0.000 N 
ATOM     19  C   UNL     1      44.736   2.616   9.545  0.00  0.00    +0.000 A 
ATOM     20  C   UNL     1      45.186   1.391   9.063  0.00  0.00    +0.000 A 
ATOM     21  C   UNL     1      46.093   1.367   8.000  0.00  0.00    +0.000 A 
ATOM     22  C   UNL     1      46.540   2.560   7.432  0.00  0.00    +0.000 A 
ATOM     23  C   UNL     1      46.047   3.732   7.975  0.00  0.00    +0.000 A 
ATOM     24  N   UNL     1      45.171   3.777   9.010  0.00  0.00    +0.000 NA
ATOM     25  H   UNL     1      43.018   2.066  10.372  0.00  0.00    +0.000 HD
BRANCH  22  26
ATOM     26  C   UNL     1      47.493   2.523   6.295  0.00  0.00    +0.000 C 
ATOM     27  N   UNL     1      47.296   3.361   5.232  0.00  0.00    +0.000 N 
ATOM     28  O   UNL     1      48.445   1.750   6.296  0.00  0.00    +0.000 OA
ATOM     29  H   UNL     1      46.562   4.043   5.133  0.00  0.00    +0.000 HD
ATOM     30  H   UNL     1      47.975   3.300   4.481  0.00  0.00    +0.000 HD
ENDBRANCH  22  26
ENDBRANCH  17  18
ENDBRANCH  16  17
ENDBRANCH   5  16
TORSDOF 6
ENDMDL
MODEL 3
REMARK VINA RESULT:    -7.314      4.232      7.660
REMARK INTER + INTRA:         -10.665
REMARK INTER:                  -9.442
REMARK INTRA:                  -1.223
REMARK UNBOUND:                -0.999
REMARK  Name = 
REMARK  7 active torsions:
REMARK  status: ('A' for Active; 'I' for Inactive)
REMARK    1  A    between atoms: C_1  and  C_2
REMARK    2  A    between atoms: C_2  and  C_3
REMARK    3  A    between atoms: C_7  and  C_8
REMARK    4  A    between atoms: C_8  and  C_9
REMARK    5  A    between atoms: C_9  and  N_10
REMARK    6  A    between atoms: C_14  and  C_15
REMARK    7  A    between atoms: C_23  and  O_24
REMARK                            x       y       z     vdW  Elec       q    Type
REMARK                         _______ _______ _______ _____ _____    ______ ____
ROOT
ATOM      1  C   UNL     1      45.556   7.281  11.604  0.00  0.00    +0.000 A 
ATOM      2  C   UNL     1      44.677   8.354  11.391  0.00  0.00    +0.000 A 
ATOM      3  C   UNL     1      45.041   9.664  11.723  0.00  0.00    +0.000 A 
ATOM      4  C   UNL     1      46.290   9.933  12.285  0.00  0.00    +0.000 A 
ATOM      5  C   UNL     1      47.199   8.895  12.507  0.00  0.00    +0.000 A 
ATOM      6  C   UNL     1      46.816   7.592  12.138  0.00  0.00    +0.000 A 
ENDROOT
BRANCH   1   8
ATOM      7  C   UNL     1      45.589   5.456   9.919  0.00  0.00    +0.000 C 
ATOM      8  C   UNL     1      45.124   5.815  11.352  0.00  0.00    +0.000 C 
ATOM      9  C   UNL     1      45.788   4.879  12.397  0.00  0.00    +0.000 C 
ATOM     10  C   UNL     1      45.325   3.419  12.309  0.00  0.00    +0.000 C 
ATOM     11  C   UNL     1      43.806   3.263  12.349  0.00  0.00    +0.000 C 
ATOM     12  C   UNL     1      43.113   4.162  11.332  0.00  0.00    +0.000 C 
ATOM     13  C   UNL     1      43.578   5.614  11.436  0.00  0.00    +0.000 C 
BRANCH  11  14
ATOM     14  O   UNL     1      43.315   3.540  13.659  0.00  0.00    +0.000 OA
ATOM     15  H   UNL     1      43.216   2.703  14.143  0.00  0.00    +0.000 HD
ENDBRANCH  11  14
ENDBRANCH   1   8
BRANCH   5  16
ATOM     16  C   UNL     1      48.536   9.186  13.175  0.00  0.00    +0.000 C 
BRANCH  16  17
ATOM     17  C   UNL     1      49.321   7.924  13.554  0.00  0.00    +0.000 C 
BRANCH  17  18
ATOM     18  N   UNL     1      49.775   7.909  14.946  0.00  0.00    +0.000 N 
ATOM     19  C   UNL     1      49.207   6.815  15.644  0.00  0.00    +0.000 A 
ATOM     20  C   UNL     1      49.508   6.652  16.992  0.00  0.00    +0.000 A 
ATOM     21  C   UNL     1      48.960   5.571  17.688  0.00  0.00    +0.000 A 
ATOM     22  C   UNL     1      48.123   4.667  17.035  0.00  0.00    +0.000 A 
ATOM     23  C   UNL     1      47.882   4.900  15.693  0.00  0.00    +0.000 A 
ATOM     24  N   UNL     1      48.407   5.939  14.999  0.00  0.00    +0.000 NA
ATOM     25  H   UNL     1      49.527   8.763  15.439  0.00  0.00    +0.000 HD
BRANCH  22  26
ATOM     26  C   UNL     1      47.537   3.530  17.786  0.00  0.00    +0.000 C 
ATOM     27  N   UNL     1      48.173   3.073  18.908  0.00  0.00    +0.000 N 
ATOM     28  O   UNL     1      46.499   2.996  17.412  0.00  0.00    +0.000 OA
ATOM     29  H   UNL     1      49.018   3.445  19.313  0.00  0.00    +0.000 HD
ATOM     30  H   UNL     1      47.734   2.295  19.388  0.00  0.00    +0.000 HD
ENDBRANCH  22  26
ENDBRANCH  17  18
ENDBRANCH  16  17
ENDBRANCH   5  16
TORSDOF 6
ENDMDL
MODEL 4
REMARK VINA RESULT:    -7.187      1.591      2.628
REMARK INTER + INTRA:         -10.496
REMARK INTER:                  -9.697
REMARK INTRA:                  -0.799
REMARK UNBOUND:                -0.999
REMARK  Name = 
REMARK  7 active torsions:
REMARK  status: ('A' for Active; 'I' for Inactive)
REMARK    1  A    between atoms: C_1  and  C_2
REMARK    2  A    between atoms: C_2  and  C_3
REMARK    3  A    between atoms: C_7  and  C_8
REMARK    4  A    between atoms: C_8  and  C_9
REMARK    5  A    between atoms: C_9  and  N_10
REMARK    6  A    between atoms: C_14  and  C_15
REMARK    7  A    between atoms: C_23  and  O_24
REMARK                            x       y       z     vdW  Elec       q    Type
REMARK                         _______ _______ _______ _____ _____    ______ ____
ROOT
ATOM      1  C   UNL     1      47.228   9.016  12.092  0.00  0.00    +0.000 A 
ATOM      2  C   UNL     1      46.289  10.024  11.828  0.00  0.00    +0.000 A 
ATOM      3  C   UNL     1      44.926   9.729  11.706  0.00  0.00    +0.000 A 
ATOM      4  C   UNL     1      44.470   8.416  11.837  0.00  0.00    +0.000 A 
ATOM      5  C   UNL     1      45.371   7.383  12.108  0.00  0.00    +0.000 A 
ATOM      6  C   UNL     1      46.731   7.714  12.252  0.00  0.00    +0.000 A 
ENDROOT
BRANCH   1   8
ATOM      7  C   UNL     1      48.986  10.485  11.132  0.00  0.00    +0.000 C 
ATOM      8  C   UNL     1      48.749   9.309  12.112  0.00  0.00    +0.000 C 
ATOM      9  C   UNL     1      49.198   9.691  13.548  0.00  0.00    +0.000 C 
ATOM     10  C   UNL     1      50.712   9.881  13.698  0.00  0.00    +0.000 C 
ATOM     11  C   UNL     1      51.524   8.692  13.189  0.00  0.00    +0.000 C 
ATOM     12  C   UNL     1      51.120   8.286  11.777  0.00  0.00    +0.000 C 
ATOM     13  C   UNL     1      49.609   8.093  11.643  0.00  0.00    +0.000 C 
BRANCH  11  14
ATOM     14  O   UNL     1      51.383   7.582  14.074  0.00  0.00    +0.000 OA
ATOM     15  H   UNL     1      51.348   7.909  14.988  0.00  0.00    +0.000 HD
ENDBRANCH  11  14
ENDBRANCH   1   8
BRANCH   5  16
ATOM     16  C   UNL     1      44.875   5.945  12.191  0.00  0.00    +0.000 C 
BRANCH  16  17
ATOM     17  C   UNL     1      44.134   5.478  10.932  0.00  0.00    +0.000 C 
BRANCH  17  18
ATOM     18  N   UNL     1      44.108   4.023  10.771  0.00  0.00    +0.000 N 
ATOM     19  C   UNL     1      44.906   3.628   9.670  0.00  0.00    +0.000 A 
ATOM     20  C   UNL     1      44.983   2.277   9.348  0.00  0.00    +0.000 A 
ATOM     21  C   UNL     1      45.776   1.877   8.268  0.00  0.00    +0.000 A 
ATOM     22  C   UNL     1      46.481   2.823   7.526  0.00  0.00    +0.000 A 
ATOM     23  C   UNL     1      46.353   4.143   7.918  0.00  0.00    +0.000 A 
ATOM     24  N   UNL     1      45.594   4.552   8.964  0.00  0.00    +0.000 NA
ATOM     25  H   UNL     1      43.166   3.671  10.621  0.00  0.00    +0.000 HD
BRANCH  22  26
ATOM     26  C   UNL     1      47.309   2.388   6.374  0.00  0.00    +0.000 C 
ATOM     27  N   UNL     1      47.266   3.108   5.212  0.00  0.00    +0.000 N 
ATOM     28  O   UNL     1      48.023   1.395   6.452  0.00  0.00    +0.000 OA
ATOM     29  H   UNL     1      46.731   3.945   5.043  0.00  0.00    +0.000 HD
ATOM     30  H   UNL     1      47.850   2.772   4.454  0.00  0.00    +0.000 HD
ENDBRANCH  22  26
ENDBRANCH  17  18
ENDBRANCH  16  17
ENDBRANCH   5  16
TORSDOF 6
ENDMDL
MODEL 5
REMARK VINA RESULT:    -6.928      2.515      3.374
REMARK INTER + INTRA:         -10.154
REMARK INTER:                  -9.256
REMARK INTRA:                  -0.898
REMARK UNBOUND:                -0.999
REMARK  Name = 
REMARK  7 active torsions:
REMARK  status: ('A' for Active; 'I' for Inactive)
REMARK    1  A    between atoms: C_1  and  C_2
REMARK    2  A    between atoms: C_2  and  C_3
REMARK    3  A    between atoms: C_7  and  C_8
REMARK    4  A    between atoms: C_8  and  C_9
REMARK    5  A    between atoms: C_9  and  N_10
REMARK    6  A    between atoms: C_14  and  C_15
REMARK    7  A    between atoms: C_23  and  O_24
REMARK                            x       y       z     vdW  Elec       q    Type
REMARK                         _______ _______ _______ _____ _____    ______ ____
ROOT
ATOM      1  C   UNL     1      48.361   7.239  13.992  0.00  0.00    +0.000 A 
ATOM      2  C   UNL     1      49.150   7.385  12.841  0.00  0.00    +0.000 A 
ATOM      3  C   UNL     1      48.587   7.298  11.563  0.00  0.00    +0.000 A 
ATOM      4  C   UNL     1      47.222   7.054  11.404  0.00  0.00    +0.000 A 
ATOM      5  C   UNL     1      46.399   6.911  12.523  0.00  0.00    +0.000 A 
ATOM      6  C   UNL     1      46.987   7.030  13.796  0.00  0.00    +0.000 A 
ENDROOT
BRANCH   1   8
ATOM      7  C   UNL     1      48.631   8.567  16.074  0.00  0.00    +0.000 C 
ATOM      8  C   UNL     1      48.988   7.215  15.408  0.00  0.00    +0.000 C 
ATOM      9  C   UNL     1      48.408   6.029  16.226  0.00  0.00    +0.000 C 
ATOM     10  C   UNL     1      49.059   5.845  17.603  0.00  0.00    +0.000 C 
ATOM     11  C   UNL     1      50.582   5.752  17.545  0.00  0.00    +0.000 C 
ATOM     12  C   UNL     1      51.194   6.903  16.755  0.00  0.00    +0.000 C 
ATOM     13  C   UNL     1      50.543   7.072  15.382  0.00  0.00    +0.000 C 
BRANCH  11  14
ATOM     14  O   UNL     1      50.981   4.506  16.977  0.00  0.00    +0.000 OA
ATOM     15  H   UNL     1      50.585   4.420  16.094  0.00  0.00    +0.000 HD
ENDBRANCH  11  14
ENDBRANCH   1   8
BRANCH   5  16
ATOM     16  C   UNL     1      44.921   6.586  12.343  0.00  0.00    +0.000 C 
BRANCH  16  17
ATOM     17  C   UNL     1      44.581   6.018  10.960  0.00  0.00    +0.000 C 
BRANCH  17  18
ATOM     18  N   UNL     1      44.435   4.561  10.941  0.00  0.00    +0.000 N 
ATOM     19  C   UNL     1      45.069   4.010   9.801  0.00  0.00    +0.000 A 
ATOM     20  C   UNL     1      45.014   2.635   9.603  0.00  0.00    +0.000 A 
ATOM     21  C   UNL     1      45.643   2.080   8.485  0.00  0.00    +0.000 A 
ATOM     22  C   UNL     1      46.320   2.900   7.582  0.00  0.00    +0.000 A 
ATOM     23  C   UNL     1      46.331   4.254   7.858  0.00  0.00    +0.000 A 
ATOM     24  N   UNL     1      45.731   4.812   8.939  0.00  0.00    +0.000 NA
ATOM     25  H   UNL     1      43.461   4.274  10.932  0.00  0.00    +0.000 HD
BRANCH  22  26
ATOM     26  C   UNL     1      46.974   2.302   6.392  0.00  0.00    +0.000 C 
ATOM     27  N   UNL     1      47.243   3.095   5.310  0.00  0.00    +0.000 N 
ATOM     28  O   UNL     1      47.270   1.112   6.366  0.00  0.00    +0.000 OA
ATOM     29  H   UNL     1      47.060   4.082   5.228  0.00  0.00    +0.000 HD
ATOM     30  H   UNL     1      47.692   2.641   4.522  0.00  0.00    +0.000 HD
ENDBRANCH  22  26
ENDBRANCH  17  18
ENDBRANCH  16  17
ENDBRANCH   5  16
TORSDOF 6
ENDMDL
MODEL 6
REMARK VINA RESULT:    -6.897      4.963      7.843
REMARK INTER + INTRA:         -10.113
REMARK INTER:                  -9.283
REMARK INTRA:                  -0.830
REMARK UNBOUND:                -0.999
REMARK  Name = 
REMARK  7 active torsions:
REMARK  status: ('A' for Active; 'I' for Inactive)
REMARK    1  A    between atoms: C_1  and  C_2
REMARK    2  A    between atoms: C_2  and  C_3
REMARK    3  A    between atoms: C_7  and  C_8
REMARK    4  A    between atoms: C_8  and  C_9
REMARK    5  A    between atoms: C_9  and  N_10
REMARK    6  A    between atoms: C_14  and  C_15
REMARK    7  A    between atoms: C_23  and  O_24
REMARK                            x       y       z     vdW  Elec       q    Type
REMARK                         _______ _______ _______ _____ _____    ______ ____
ROOT
ATOM      1  C   UNL     1      46.994   6.715  12.252  0.00  0.00    +0.000 A 
ATOM      2  C   UNL     1      48.005   7.169  11.391  0.00  0.00    +0.000 A 
ATOM      3  C   UNL     1      49.088   7.912  11.875  0.00  0.00    +0.000 A 
ATOM      4  C   UNL     1      49.182   8.227  13.232  0.00  0.00    +0.000 A 
ATOM      5  C   UNL     1      48.202   7.788  14.125  0.00  0.00    +0.000 A 
ATOM      6  C   UNL     1      47.139   7.020  13.614  0.00  0.00    +0.000 A 
ENDROOT
BRANCH   1   8
ATOM      7  C   UNL     1      46.028   5.626  10.240  0.00  0.00    +0.000 C 
ATOM      8  C   UNL     1      45.733   5.995  11.715  0.00  0.00    +0.000 C 
ATOM      9  C   UNL     1      45.450   4.720  12.555  0.00  0.00    +0.000 C 
ATOM     10  C   UNL     1      44.148   4.002  12.178  0.00  0.00    +0.000 C 
ATOM     11  C   UNL     1      42.928   4.920  12.184  0.00  0.00    +0.000 C 
ATOM     12  C   UNL     1      43.160   6.184  11.364  0.00  0.00    +0.000 C 
ATOM     13  C   UNL     1      44.456   6.893  11.753  0.00  0.00    +0.000 C 
BRANCH  11  14
ATOM     14  O   UNL     1      42.575   5.266  13.521  0.00  0.00    +0.000 OA
ATOM     15  H   UNL     1      43.387   5.396  14.039  0.00  0.00    +0.000 HD
ENDBRANCH  11  14
ENDBRANCH   1   8
BRANCH   5  16
ATOM     16  C   UNL     1      48.280   8.185  15.593  0.00  0.00    +0.000 C 
BRANCH  16  17
ATOM     17  C   UNL     1      49.002   7.156  16.471  0.00  0.00    +0.000 C 
BRANCH  17  18
ATOM     18  N   UNL     1      48.302   5.874  16.572  0.00  0.00    +0.000 N 
ATOM     19  C   UNL     1      49.214   4.828  16.858  0.00  0.00    +0.000 A 
ATOM     20  C   UNL     1      48.731   3.529  16.967  0.00  0.00    +0.000 A 
ATOM     21  C   UNL     1      49.621   2.491  17.258  0.00  0.00    +0.000 A 
ATOM     22  C   UNL     1      50.978   2.760  17.437  0.00  0.00    +0.000 A 
ATOM     23  C   UNL     1      51.372   4.080  17.317  0.00  0.00    +0.000 A 
ATOM     24  N   UNL     1      50.524   5.101  17.041  0.00  0.00    +0.000 NA
ATOM     25  H   UNL     1      47.809   5.639  15.715  0.00  0.00    +0.000 HD
BRANCH  22  26
ATOM     26  C   UNL     1      51.916   1.650  17.733  0.00  0.00    +0.000 C 
ATOM     27  N   UNL     1      51.413   0.423  18.068  0.00  0.00    +0.000 N 
ATOM     28  O   UNL     1      53.129   1.820  17.686  0.00  0.00    +0.000 OA
ATOM     29  H   UNL     1      50.440   0.167  18.122  0.00  0.00    +0.000 HD
ATOM     30  H   UNL     1      52.093  -0.304  18.261  0.00  0.00    +0.000 HD
ENDBRANCH  22  26
ENDBRANCH  17  18
ENDBRANCH  16  17
ENDBRANCH   5  16
TORSDOF 6
ENDMDL
MODEL 7
REMARK VINA RESULT:    -6.862      4.046      6.470
REMARK INTER + INTRA:         -10.067
REMARK INTER:                  -8.917
REMARK INTRA:                  -1.150
REMARK UNBOUND:                -0.999
REMARK  Name = 
REMARK  7 active torsions:
REMARK  status: ('A' for Active; 'I' for Inactive)
REMARK    1  A    between atoms: C_1  and  C_2
REMARK    2  A    between atoms: C_2  and  C_3
REMARK    3  A    between atoms: C_7  and  C_8
REMARK    4  A    between atoms: C_8  and  C_9
REMARK    5  A    between atoms: C_9  and  N_10
REMARK    6  A    between atoms: C_14  and  C_15
REMARK    7  A    between atoms: C_23  and  O_24
REMARK                            x       y       z     vdW  Elec       q    Type
REMARK                         _______ _______ _______ _____ _____    ______ ____
ROOT
ATOM      1  C   UNL     1      48.650   6.685  17.165  0.00  0.00    +0.000 A 
ATOM      2  C   UNL     1      48.304   7.777  17.976  0.00  0.00    +0.000 A 
ATOM      3  C   UNL     1      48.289   9.081  17.467  0.00  0.00    +0.000 A 
ATOM      4  C   UNL     1      48.628   9.326  16.135  0.00  0.00    +0.000 A 
ATOM      5  C   UNL     1      48.971   8.267  15.291  0.00  0.00    +0.000 A 
ATOM      6  C   UNL     1      48.951   6.964  15.823  0.00  0.00    +0.000 A 
ENDROOT
BRANCH   1   8
ATOM      7  C   UNL     1      48.742   5.395  19.286  0.00  0.00    +0.000 C 
ATOM      8  C   UNL     1      48.785   5.255  17.744  0.00  0.00    +0.000 C 
ATOM      9  C   UNL     1      47.617   4.365  17.240  0.00  0.00    +0.000 C 
ATOM     10  C   UNL     1      47.729   2.894  17.659  0.00  0.00    +0.000 C 
ATOM     11  C   UNL     1      49.071   2.262  17.296  0.00  0.00    +0.000 C 
ATOM     12  C   UNL     1      50.248   3.101  17.779  0.00  0.00    +0.000 C 
ATOM     13  C   UNL     1      50.128   4.563  17.348  0.00  0.00    +0.000 C 
BRANCH  11  14
ATOM     14  O   UNL     1      49.160   2.065  15.886  0.00  0.00    +0.000 OA
ATOM     15  H   UNL     1      48.552   2.680  15.442  0.00  0.00    +0.000 HD
ENDBRANCH  11  14
ENDBRANCH   1   8
BRANCH   5  16
ATOM     16  C   UNL     1      49.398   8.547  13.856  0.00  0.00    +0.000 C 
BRANCH  16  17
ATOM     17  C   UNL     1      49.208   7.352  12.914  0.00  0.00    +0.000 C 
BRANCH  17  18
ATOM     18  N   UNL     1      48.148   7.546  11.922  0.00  0.00    +0.000 N 
ATOM     19  C   UNL     1      47.062   6.674  12.176  0.00  0.00    +0.000 A 
ATOM     20  C   UNL     1      45.967   6.700  11.318  0.00  0.00    +0.000 A 
ATOM     21  C   UNL     1      44.886   5.849  11.564  0.00  0.00    +0.000 A 
ATOM     22  C   UNL     1      44.907   4.987  12.659  0.00  0.00    +0.000 A 
ATOM     23  C   UNL     1      46.030   5.029  13.464  0.00  0.00    +0.000 A 
ATOM     24  N   UNL     1      47.087   5.850  13.246  0.00  0.00    +0.000 NA
ATOM     25  H   UNL     1      48.476   7.378  10.975  0.00  0.00    +0.000 HD
BRANCH  22  26
ATOM     26  C   UNL     1      43.759   4.080  12.904  0.00  0.00    +0.000 C 
ATOM     27  N   UNL     1      43.886   2.749  12.612  0.00  0.00    +0.000 N 
ATOM     28  O   UNL     1      42.703   4.507  13.358  0.00  0.00    +0.000 OA
ATOM     29  H   UNL     1      44.707   2.289  12.253  0.00  0.00    +0.000 HD
ATOM     30  H   UNL     1      43.075   2.169  12.798  0.00  0.00    +0.000 HD
ENDBRANCH  22  26
ENDBRANCH  17  18
ENDBRANCH  16  17
ENDBRANCH   5  16
TORSDOF 6
ENDMDL
MODEL 8
REMARK VINA RESULT:    -6.836      3.558      5.823
REMARK INTER + INTRA:         -10.033
REMARK INTER:                  -8.917
REMARK INTRA:                  -1.116
REMARK UNBOUND:                -0.999
REMARK  Name = 
REMARK  7 active torsions:
REMARK  status: ('A' for Active; 'I' for Inactive)
REMARK    1  A    between atoms: C_1  and  C_2
REMARK    2  A    between atoms: C_2  and  C_3
REMARK    3  A    between atoms: C_7  and  C_8
REMARK    4  A    between atoms: C_8  and  C_9
REMARK    5  A    between atoms: C_9  and  N_10
REMARK    6  A    between atoms: C_14  and  C_15
REMARK    7  A    between atoms: C_23  and  O_24
REMARK                            x       y       z     vdW  Elec       q    Type
REMARK                         _______ _______ _______ _____ _____    ______ ____
ROOT
ATOM      1  C   UNL     1      49.479   6.733  15.993  0.00  0.00    +0.000 A 
ATOM      2  C   UNL     1      50.834   7.052  15.823  0.00  0.00    +0.000 A 
ATOM      3  C   UNL     1      51.233   8.088  14.970  0.00  0.00    +0.000 A 
ATOM      4  C   UNL     1      50.285   8.825  14.258  0.00  0.00    +0.000 A 
ATOM      5  C   UNL     1      48.924   8.546  14.404  0.00  0.00    +0.000 A 
ATOM      6  C   UNL     1      48.551   7.517  15.289  0.00  0.00    +0.000 A 
ENDROOT
BRANCH   1   8
ATOM      7  C   UNL     1      48.470   6.083  18.168  0.00  0.00    +0.000 C 
ATOM      8  C   UNL     1      49.031   5.516  16.840  0.00  0.00    +0.000 C 
ATOM      9  C   UNL     1      47.941   4.713  16.081  0.00  0.00    +0.000 C 
ATOM     10  C   UNL     1      47.519   3.417  16.784  0.00  0.00    +0.000 C 
ATOM     11  C   UNL     1      48.696   2.509  17.135  0.00  0.00    +0.000 C 
ATOM     12  C   UNL     1      49.789   3.258  17.889  0.00  0.00    +0.000 C 
ATOM     13  C   UNL     1      50.205   4.543  17.174  0.00  0.00    +0.000 C 
BRANCH  11  14
ATOM     14  O   UNL     1      49.235   1.919  15.955  0.00  0.00    +0.000 OA
ATOM     15  H   UNL     1      49.832   1.194  16.207  0.00  0.00    +0.000 HD
ENDBRANCH  11  14
ENDBRANCH   1   8
BRANCH   5  16
ATOM     16  C   UNL     1      47.899   9.313  13.579  0.00  0.00    +0.000 C 
BRANCH  16  17
ATOM     17  C   UNL     1      46.596   8.539  13.342  0.00  0.00    +0.000 C 
BRANCH  17  18
ATOM     18  N   UNL     1      46.444   8.047  11.971  0.00  0.00    +0.000 N 
ATOM     19  C   UNL     1      45.831   6.771  11.964  0.00  0.00    +0.000 A 
ATOM     20  C   UNL     1      45.626   6.134  10.744  0.00  0.00    +0.000 A 
ATOM     21  C   UNL     1      45.014   4.877  10.725  0.00  0.00    +0.000 A 
ATOM     22  C   UNL     1      44.613   4.273  11.916  0.00  0.00    +0.000 A 
ATOM     23  C   UNL     1      44.849   4.978  13.082  0.00  0.00    +0.000 A 
ATOM     24  N   UNL     1      45.436   6.200  13.122  0.00  0.00    +0.000 NA
ATOM     25  H   UNL     1      47.337   7.974  11.491  0.00  0.00    +0.000 HD
BRANCH  22  26
ATOM     26  C   UNL     1      43.975   2.934  11.885  0.00  0.00    +0.000 C 
ATOM     27  N   UNL     1      44.029   2.196  10.735  0.00  0.00    +0.000 N 
ATOM     28  O   UNL     1      43.400   2.487  12.871  0.00  0.00    +0.000 OA
ATOM     29  H   UNL     1      44.487   2.456   9.876  0.00  0.00    +0.000 HD
ATOM     30  H   UNL     1      43.580   1.287  10.763  0.00  0.00    +0.000 HD
ENDBRANCH  22  26
ENDBRANCH  17  18
ENDBRANCH  16  17
ENDBRANCH   5  16
TORSDOF 6
ENDMDL
MODEL 9
REMARK VINA RESULT:    -6.309      4.602      7.921
REMARK INTER + INTRA:          -9.336
REMARK INTER:                  -8.394
REMARK INTRA:                  -0.942
REMARK UNBOUND:                -0.999
REMARK  Name = 
REMARK  7 active torsions:
REMARK  status: ('A' for Active; 'I' for Inactive)
REMARK    1  A    between atoms: C_1  and  C_2
REMARK    2  A    between atoms: C_2  and  C_3
REMARK    3  A    between atoms: C_7  and  C_8
REMARK    4  A    between atoms: C_8  and  C_9
REMARK    5  A    between atoms: C_9  and  N_10
REMARK    6  A    between atoms: C_14  and  C_15
REMARK    7  A    between atoms: C_23  and  O_24
REMARK                            x       y       z     vdW  Elec       q    Type
REMARK                         _______ _______ _______ _____ _____    ______ ____
ROOT
ATOM      1  C   UNL     1      47.062   6.995  12.038  0.00  0.00    +0.000 A 
ATOM      2  C   UNL     1      48.221   7.032  11.248  0.00  0.00    +0.000 A 
ATOM      3  C   UNL     1      49.322   7.816  11.615  0.00  0.00    +0.000 A 
ATOM      4  C   UNL     1      49.287   8.589  12.777  0.00  0.00    +0.000 A 
ATOM      5  C   UNL     1      48.155   8.574  13.596  0.00  0.00    +0.000 A 
ATOM      6  C   UNL     1      47.075   7.756  13.216  0.00  0.00    +0.000 A 
ENDROOT
BRANCH   1   8
ATOM      7  C   UNL     1      46.034   5.811  10.111  0.00  0.00    +0.000 C 
ATOM      8  C   UNL     1      45.796   6.227  11.584  0.00  0.00    +0.000 C 
ATOM      9  C   UNL     1      45.583   4.978  12.481  0.00  0.00    +0.000 C 
ATOM     10  C   UNL     1      44.283   4.217  12.190  0.00  0.00    +0.000 C 
ATOM     11  C   UNL     1      43.042   5.107  12.219  0.00  0.00    +0.000 C 
ATOM     12  C   UNL     1      43.206   6.344  11.344  0.00  0.00    +0.000 C 
ATOM     13  C   UNL     1      44.501   7.097  11.649  0.00  0.00    +0.000 C 
BRANCH  11  14
ATOM     14  O   UNL     1      42.741   5.494  13.558  0.00  0.00    +0.000 OA
ATOM     15  H   UNL     1      43.550   5.827  13.980  0.00  0.00    +0.000 HD
ENDBRANCH  11  14
ENDBRANCH   1   8
BRANCH   5  16
ATOM     16  C   UNL     1      48.100   9.465  14.831  0.00  0.00    +0.000 C 
BRANCH  16  17
ATOM     17  C   UNL     1      49.213   9.178  15.846  0.00  0.00    +0.000 C 
BRANCH  17  18
ATOM     18  N   UNL     1      48.724   8.952  17.208  0.00  0.00    +0.000 N 
ATOM     19  C   UNL     1      48.434   7.581  17.413  0.00  0.00    +0.000 A 
ATOM     20  C   UNL     1      47.934   7.180  18.647  0.00  0.00    +0.000 A 
ATOM     21  C   UNL     1      47.652   5.829  18.863  0.00  0.00    +0.000 A 
ATOM     22  C   UNL     1      47.872   4.895  17.851  0.00  0.00    +0.000 A 
ATOM     23  C   UNL     1      48.377   5.378  16.658  0.00  0.00    +0.000 A 
ATOM     24  N   UNL     1      48.662   6.684  16.430  0.00  0.00    +0.000 NA
ATOM     25  H   UNL     1      47.884   9.488  17.406  0.00  0.00    +0.000 HD
BRANCH  22  26
ATOM     26  C   UNL     1      47.558   3.465  18.087  0.00  0.00    +0.000 C 
ATOM     27  N   UNL     1      48.231   2.787  19.067  0.00  0.00    +0.000 N 
ATOM     28  O   UNL     1      46.711   2.886  17.415  0.00  0.00    +0.000 OA
ATOM     29  H   UNL     1      48.930   3.164  19.686  0.00  0.00    +0.000 HD
ATOM     30  H   UNL     1      47.980   1.812  19.191  0.00  0.00    +0.000 HD
ENDBRANCH  22  26
ENDBRANCH  17  18
ENDBRANCH  16  17
ENDBRANCH   5  16
TORSDOF 6
ENDMDL
