MODEL 1
REMARK VINA RESULT:    -7.881      0.000      0.000
REMARK INTER + INTRA:          -9.791
REMARK INTER:                  -9.263
REMARK INTRA:                  -0.528
REMARK UNBOUND:                -0.528
REMARK  Name = 
REMARK  3 active torsions:
REMARK  status: ('A' for Active; 'I' for Inactive)
REMARK    1  A    between atoms: C_2  and  C_4
REMARK    2  A    between atoms: N_11  and  C_12
REMARK    3  A    between atoms: C_12  and  C_13
REMARK                            x       y       z     vdW  Elec       q    Type
REMARK                         _______ _______ _______ _____ _____    ______ ____
ROOT
ATOM      1  C   UNL     1      45.669   7.476  12.573  0.00  0.00    +0.000 A 
ATOM      2  C   UNL     1      44.896   7.292  11.432  0.00  0.00    +0.000 A 
ATOM      3  N   UNL     1      44.550   6.092  10.895  0.00  0.00    +0.000 NA
ATOM      4  C   UNL     1      45.009   5.042  11.607  0.00  0.00    +0.000 A 
ATOM      5  C   UNL     1      45.755   5.091  12.784  0.00  0.00    +0.000 A 
ATOM      6  C   UNL     1      45.986   3.751  13.191  0.00  0.00    +0.000 A 
ATOM      7  C   UNL     1      45.405   2.925  12.253  0.00  0.00    +0.000 A 
ATOM      8  N   UNL     1      44.820   3.716  11.291  0.00  0.00    +0.000 N 
ATOM      9  C   UNL     1      46.100   6.356  13.289  0.00  0.00    +0.000 A 
ENDROOT
BRANCH   1  11
ATOM     10  N   UNL     1      46.754   9.003  14.124  0.00  0.00    +0.000 N 
ATOM     11  C   UNL     1      46.006   8.855  12.987  0.00  0.00    +0.000 C 
ATOM     12  O   UNL     1      45.670   9.825  12.320  0.00  0.00    +0.000 OA
ATOM     13  H   UNL     1      47.070   9.941  14.336  0.00  0.00    +0.000 HD
ATOM     14  H   UNL     1      47.245   8.235  14.559  0.00  0.00    +0.000 HD
ENDBRANCH   1  11
BRANCH   8  15
ATOM     15  C   UNL     1      44.164   3.224  10.087  0.00  0.00    +0.000 C 
BRANCH  15  16
ATOM     16  C   UNL     1      45.154   2.968   8.978  0.00  0.00    +0.000 A 
ATOM     17  C   UNL     1      45.583   4.019   8.152  0.00  0.00    +0.000 A 
ATOM     18  C   UNL     1      46.461   3.779   7.093  0.00  0.00    +0.000 A 
ATOM     19  C   UNL     1      46.926   2.487   6.860  0.00  0.00    +0.000 A 
ATOM     20 CL   UNL     1      47.980   2.184   5.534  0.00  0.00    +0.000 Cl
ATOM     21  C   UNL     1      46.536   1.438   7.689  0.00  0.00    +0.000 A 
ATOM     22  C   UNL     1      45.654   1.676   8.746  0.00  0.00    +0.000 A 
ENDBRANCH  15  16
ENDBRANCH   8  15
TORSDOF 3
ENDMDL
MODEL 2
REMARK VINA RESULT:    -7.676      2.327      3.331
REMARK INTER + INTRA:          -9.550
REMARK INTER:                  -9.077
REMARK INTRA:                  -0.473
REMARK UNBOUND:                -0.528
REMARK  Name = 
REMARK  3 active torsions:
REMARK  status: ('A' for Active; 'I' for Inactive)
REMARK    1  A    between atoms: C_2  and  C_4
REMARK    2  A    between atoms: N_11  and  C_12
REMARK    3  A    between atoms: C_12  and  C_13
REMARK                            x       y       z     vdW  Elec       q    Type
REMARK                         _______ _______ _______ _____ _____    ______ ____
ROOT
ATOM      1  C   UNL     1      46.783   4.365  14.376  0.00  0.00    +0.000 A 
ATOM      2  C   UNL     1      46.411   3.283  13.586  0.00  0.00    +0.000 A 
ATOM      3  N   UNL     1      45.652   3.347  12.461  0.00  0.00    +0.000 NA
ATOM      4  C   UNL     1      45.294   4.606  12.135  0.00  0.00    +0.000 A 
ATOM      5  C   UNL     1      45.634   5.775  12.816  0.00  0.00    +0.000 A 
ATOM      6  C   UNL     1      45.064   6.859  12.098  0.00  0.00    +0.000 A 
ATOM      7  C   UNL     1      44.379   6.334  11.024  0.00  0.00    +0.000 A 
ATOM      8  N   UNL     1      44.518   4.965  11.058  0.00  0.00    +0.000 N 
ATOM      9  C   UNL     1      46.407   5.652  13.982  0.00  0.00    +0.000 A 
ENDROOT
BRANCH   1  11
ATOM     10  N   UNL     1      47.573   5.098  16.556  0.00  0.00    +0.000 N 
ATOM     11  C   UNL     1      47.563   4.112  15.606  0.00  0.00    +0.000 C 
ATOM     12  O   UNL     1      48.141   3.049  15.791  0.00  0.00    +0.000 OA
ATOM     13  H   UNL     1      48.018   4.870  17.436  0.00  0.00    +0.000 HD
ATOM     14  H   UNL     1      46.926   5.873  16.546  0.00  0.00    +0.000 HD
ENDBRANCH   1  11
BRANCH   8  15
ATOM     15  C   UNL     1      43.880   4.036  10.134  0.00  0.00    +0.000 C 
BRANCH  15  16
ATOM     16  C   UNL     1      44.866   3.470   9.142  0.00  0.00    +0.000 A 
ATOM     17  C   UNL     1      45.130   2.091   9.110  0.00  0.00    +0.000 A 
ATOM     18  C   UNL     1      46.077   1.569   8.228  0.00  0.00    +0.000 A 
ATOM     19  C   UNL     1      46.759   2.419   7.362  0.00  0.00    +0.000 A 
ATOM     20 CL   UNL     1      47.952   1.781   6.299  0.00  0.00    +0.000 Cl
ATOM     21  C   UNL     1      46.487   3.785   7.357  0.00  0.00    +0.000 A 
ATOM     22  C   UNL     1      45.542   4.311   8.243  0.00  0.00    +0.000 A 
ENDBRANCH  15  16
ENDBRANCH   8  15
TORSDOF 3
ENDMDL
MODEL 3
REMARK VINA RESULT:    -7.327      1.893      2.290
REMARK INTER + INTRA:          -9.140
REMARK INTER:                  -8.661
REMARK INTRA:                  -0.479
REMARK UNBOUND:                -0.528
REMARK  Name = 
REMARK  3 active torsions:
REMARK  status: ('A' for Active; 'I' for Inactive)
REMARK    1  A    between atoms: C_2  and  C_4
REMARK    2  A    between atoms: N_11  and  C_12
REMARK    3  A    between atoms: C_12  and  C_13
REMARK                            x       y       z     vdW  Elec       q    Type
REMARK                         _______ _______ _______ _____ _____    ______ ____
ROOT
ATOM      1  C   UNL     1      47.077   5.898  13.459  0.00  0.00    +0.000 A 
ATOM      2  C   UNL     1      46.962   6.281  12.127  0.00  0.00    +0.000 A 
ATOM      3  N   UNL     1      46.024   5.833  11.252  0.00  0.00    +0.000 NA
ATOM      4  C   UNL     1      45.150   4.969  11.809  0.00  0.00    +0.000 A 
ATOM      5  C   UNL     1      45.131   4.538  13.135  0.00  0.00    +0.000 A 
ATOM      6  C   UNL     1      44.024   3.661  13.275  0.00  0.00    +0.000 A 
ATOM      7  C   UNL     1      43.414   3.559  12.043  0.00  0.00    +0.000 A 
ATOM      8  N   UNL     1      44.109   4.351  11.157  0.00  0.00    +0.000 N 
ATOM      9  C   UNL     1      46.132   5.019  13.995  0.00  0.00    +0.000 A 
ENDROOT
BRANCH   1  11
ATOM     10  N   UNL     1      48.779   7.597  13.821  0.00  0.00    +0.000 N 
ATOM     11  C   UNL     1      48.198   6.437  14.259  0.00  0.00    +0.000 C 
ATOM     12  O   UNL     1      48.566   5.896  15.293  0.00  0.00    +0.000 OA
ATOM     13  H   UNL     1      49.469   8.013  14.433  0.00  0.00    +0.000 HD
ATOM     14  H   UNL     1      48.355   8.191  13.123  0.00  0.00    +0.000 HD
ENDBRANCH   1  11
BRANCH   8  15
ATOM     15  C   UNL     1      43.826   4.460   9.732  0.00  0.00    +0.000 C 
BRANCH  15  16
ATOM     16  C   UNL     1      44.836   3.706   8.903  0.00  0.00    +0.000 A 
ATOM     17  C   UNL     1      44.971   2.315   9.042  0.00  0.00    +0.000 A 
ATOM     18  C   UNL     1      45.937   1.618   8.314  0.00  0.00    +0.000 A 
ATOM     19  C   UNL     1      46.767   2.305   7.432  0.00  0.00    +0.000 A 
ATOM     20 CL   UNL     1      47.982   1.453   6.561  0.00  0.00    +0.000 Cl
ATOM     21  C   UNL     1      46.626   3.680   7.258  0.00  0.00    +0.000 A 
ATOM     22  C   UNL     1      45.663   4.379   7.990  0.00  0.00    +0.000 A 
ENDBRANCH  15  16
ENDBRANCH   8  15
TORSDOF 3
ENDMDL
MODEL 4
REMARK VINA RESULT:    -7.063      1.885      1.981
REMARK INTER + INTRA:          -8.829
REMARK INTER:                  -8.388
REMARK INTRA:                  -0.440
REMARK UNBOUND:                -0.528
REMARK  Name = 
REMARK  3 active torsions:
REMARK  status: ('A' for Active; 'I' for Inactive)
REMARK    1  A    between atoms: C_2  and  C_4
REMARK    2  A    between atoms: N_11  and  C_12
REMARK    3  A    between atoms: C_12  and  C_13
REMARK                            x       y       z     vdW  Elec       q    Type
REMARK                         _______ _______ _______ _____ _____    ______ ____
ROOT
ATOM      1  C   UNL     1      47.906   6.834  12.910  0.00  0.00    +0.000 A 
ATOM      2  C   UNL     1      47.469   7.023  11.603  0.00  0.00    +0.000 A 
ATOM      3  N   UNL     1      46.417   6.389  11.020  0.00  0.00    +0.000 NA
ATOM      4  C   UNL     1      45.780   5.544  11.856  0.00  0.00    +0.000 A 
ATOM      5  C   UNL     1      46.091   5.296  13.193  0.00  0.00    +0.000 A 
ATOM      6  C   UNL     1      45.138   4.363  13.680  0.00  0.00    +0.000 A 
ATOM      7  C   UNL     1      44.293   4.048  12.638  0.00  0.00    +0.000 A 
ATOM      8  N   UNL     1      44.694   4.764  11.533  0.00  0.00    +0.000 N 
ATOM      9  C   UNL     1      47.197   5.966  13.743  0.00  0.00    +0.000 A 
ENDROOT
BRANCH   1  11
ATOM     10  N   UNL     1      50.251   7.412  12.627  0.00  0.00    +0.000 N 
ATOM     11  C   UNL     1      49.109   7.562  13.367  0.00  0.00    +0.000 C 
ATOM     12  O   UNL     1      49.079   8.303  14.341  0.00  0.00    +0.000 OA
ATOM     13  H   UNL     1      51.035   7.998  12.886  0.00  0.00    +0.000 HD
ATOM     14  H   UNL     1      50.254   7.011  11.701  0.00  0.00    +0.000 HD
ENDBRANCH   1  11
BRANCH   8  15
ATOM     15  C   UNL     1      44.102   4.657  10.205  0.00  0.00    +0.000 C 
BRANCH  15  16
ATOM     16  C   UNL     1      44.963   3.838   9.275  0.00  0.00    +0.000 A 
ATOM     17  C   UNL     1      45.714   4.464   8.267  0.00  0.00    +0.000 A 
ATOM     18  C   UNL     1      46.474   3.708   7.373  0.00  0.00    +0.000 A 
ATOM     19  C   UNL     1      46.498   2.321   7.487  0.00  0.00    +0.000 A 
ATOM     20 CL   UNL     1      47.405   1.386   6.363  0.00  0.00    +0.000 Cl
ATOM     21  C   UNL     1      45.785   1.684   8.500  0.00  0.00    +0.000 A 
ATOM     22  C   UNL     1      45.020   2.440   9.393  0.00  0.00    +0.000 A 
ENDBRANCH  15  16
ENDBRANCH   8  15
TORSDOF 3
ENDMDL
MODEL 5
REMARK VINA RESULT:    -6.158      4.783      7.161
REMARK INTER + INTRA:          -7.766
REMARK INTER:                  -7.501
REMARK INTRA:                  -0.265
REMARK UNBOUND:                -0.528
REMARK  Name = 
REMARK  3 active torsions:
REMARK  status: ('A' for Active; 'I' for Inactive)
REMARK    1  A    between atoms: C_2  and  C_4
REMARK    2  A    between atoms: N_11  and  C_12
REMARK    3  A    between atoms: C_12  and  C_13
REMARK                            x       y       z     vdW  Elec       q    Type
REMARK                         _______ _______ _______ _____ _____    ______ ____
ROOT
ATOM      1  C   UNL     1      45.450   5.040  11.587  0.00  0.00    +0.000 A 
ATOM      2  C   UNL     1      45.018   4.185  12.596  0.00  0.00    +0.000 A 
ATOM      3  N   UNL     1      45.548   4.102  13.844  0.00  0.00    +0.000 NA
ATOM      4  C   UNL     1      46.554   4.977  14.052  0.00  0.00    +0.000 A 
ATOM      5  C   UNL     1      47.052   5.909  13.143  0.00  0.00    +0.000 A 
ATOM      6  C   UNL     1      48.082   6.630  13.802  0.00  0.00    +0.000 A 
ATOM      7  C   UNL     1      48.205   6.112  15.073  0.00  0.00    +0.000 A 
ATOM      8  N   UNL     1      47.278   5.104  15.214  0.00  0.00    +0.000 N 
ATOM      9  C   UNL     1      46.480   5.944  11.860  0.00  0.00    +0.000 A 
ENDROOT
BRANCH   1  11
ATOM     10  N   UNL     1      45.579   5.225   9.166  0.00  0.00    +0.000 N 
ATOM     11  C   UNL     1      44.801   4.958  10.261  0.00  0.00    +0.000 C 
ATOM     12  O   UNL     1      43.630   4.623  10.140  0.00  0.00    +0.000 OA
ATOM     13  H   UNL     1      45.154   5.060   8.262  0.00  0.00    +0.000 HD
ATOM     14  H   UNL     1      46.587   5.267   9.208  0.00  0.00    +0.000 HD
ENDBRANCH   1  11
BRANCH   8  15
ATOM     15  C   UNL     1      47.136   4.255  16.390  0.00  0.00    +0.000 C 
BRANCH  15  16
ATOM     16  C   UNL     1      48.446   3.616  16.779  0.00  0.00    +0.000 A 
ATOM     17  C   UNL     1      49.364   4.312  17.583  0.00  0.00    +0.000 A 
ATOM     18  C   UNL     1      50.599   3.745  17.905  0.00  0.00    +0.000 A 
ATOM     19  C   UNL     1      50.920   2.474  17.437  0.00  0.00    +0.000 A 
ATOM     20 CL   UNL     1      52.454   1.789  17.804  0.00  0.00    +0.000 Cl
ATOM     21  C   UNL     1      50.008   1.756  16.666  0.00  0.00    +0.000 A 
ATOM     22  C   UNL     1      48.774   2.324  16.338  0.00  0.00    +0.000 A 
ENDBRANCH  15  16
ENDBRANCH   8  15
TORSDOF 3
ENDMDL
MODEL 6
REMARK VINA RESULT:    -5.932      3.773      6.544
REMARK INTER + INTRA:          -7.500
REMARK INTER:                  -6.979
REMARK INTRA:                  -0.521
REMARK UNBOUND:                -0.528
REMARK  Name = 
REMARK  3 active torsions:
REMARK  status: ('A' for Active; 'I' for Inactive)
REMARK    1  A    between atoms: C_2  and  C_4
REMARK    2  A    between atoms: N_11  and  C_12
REMARK    3  A    between atoms: C_12  and  C_13
REMARK                            x       y       z     vdW  Elec       q    Type
REMARK                         _______ _______ _______ _____ _____    ______ ____
ROOT
ATOM      1  C   UNL     1      44.460   4.156  11.547  0.00  0.00    +0.000 A 
ATOM      2  C   UNL     1      45.514   4.116  12.453  0.00  0.00    +0.000 A 
ATOM      3  N   UNL     1      46.184   5.195  12.937  0.00  0.00    +0.000 NA
ATOM      4  C   UNL     1      45.705   6.368  12.472  0.00  0.00    +0.000 A 
ATOM      5  C   UNL     1      44.634   6.546  11.598  0.00  0.00    +0.000 A 
ATOM      6  C   UNL     1      44.471   7.944  11.412  0.00  0.00    +0.000 A 
ATOM      7  C   UNL     1      45.449   8.578  12.148  0.00  0.00    +0.000 A 
ATOM      8  N   UNL     1      46.198   7.614  12.783  0.00  0.00    +0.000 N 
ATOM      9  C   UNL     1      43.985   5.398  11.114  0.00  0.00    +0.000 A 
ENDROOT
BRANCH   1  11
ATOM     10  N   UNL     1      44.460   2.297   9.980  0.00  0.00    +0.000 N 
ATOM     11  C   UNL     1      43.881   2.881  11.074  0.00  0.00    +0.000 C 
ATOM     12  O   UNL     1      42.951   2.343  11.660  0.00  0.00    +0.000 OA
ATOM     13  H   UNL     1      44.127   1.374   9.733  0.00  0.00    +0.000 HD
ATOM     14  H   UNL     1      45.361   2.580   9.622  0.00  0.00    +0.000 HD
ENDBRANCH   1  11
BRANCH   8  15
ATOM     15  C   UNL     1      47.375   7.872  13.602  0.00  0.00    +0.000 C 
BRANCH  15  16
ATOM     16  C   UNL     1      48.553   8.304  12.764  0.00  0.00    +0.000 A 
ATOM     17  C   UNL     1      49.332   7.351  12.087  0.00  0.00    +0.000 A 
ATOM     18  C   UNL     1      50.451   7.741  11.350  0.00  0.00    +0.000 A 
ATOM     19  C   UNL     1      50.794   9.088  11.274  0.00  0.00    +0.000 A 
ATOM     20 CL   UNL     1      52.194   9.566  10.395  0.00  0.00    +0.000 Cl
ATOM     21  C   UNL     1      50.015  10.051  11.912  0.00  0.00    +0.000 A 
ATOM     22  C   UNL     1      48.897   9.661  12.654  0.00  0.00    +0.000 A 
ENDBRANCH  15  16
ENDBRANCH   8  15
TORSDOF 3
ENDMDL
MODEL 7
REMARK VINA RESULT:    -5.701      5.096      8.285
REMARK INTER + INTRA:          -7.228
REMARK INTER:                  -6.741
REMARK INTRA:                  -0.487
REMARK UNBOUND:                -0.528
REMARK  Name = 
REMARK  3 active torsions:
REMARK  status: ('A' for Active; 'I' for Inactive)
REMARK    1  A    between atoms: C_2  and  C_4
REMARK    2  A    between atoms: N_11  and  C_12
REMARK    3  A    between atoms: C_12  and  C_13
REMARK                            x       y       z     vdW  Elec       q    Type
REMARK                         _______ _______ _______ _____ _____    ______ ____
ROOT
ATOM      1  C   UNL     1      45.595   4.268  12.398  0.00  0.00    +0.000 A 
ATOM      2  C   UNL     1      46.570   3.870  13.306  0.00  0.00    +0.000 A 
ATOM      3  N   UNL     1      47.440   4.694  13.947  0.00  0.00    +0.000 NA
ATOM      4  C   UNL     1      47.256   5.996  13.644  0.00  0.00    +0.000 A 
ATOM      5  C   UNL     1      46.293   6.527  12.786  0.00  0.00    +0.000 A 
ATOM      6  C   UNL     1      46.454   7.937  12.797  0.00  0.00    +0.000 A 
ATOM      7  C   UNL     1      47.512   8.230  13.630  0.00  0.00    +0.000 A 
ATOM      8  N   UNL     1      47.998   7.045  14.135  0.00  0.00    +0.000 N 
ATOM      9  C   UNL     1      45.428   5.631  12.136  0.00  0.00    +0.000 A 
ENDROOT
BRANCH   1  11
ATOM     10  N   UNL     1      43.883   2.546  12.528  0.00  0.00    +0.000 N 
ATOM     11  C   UNL     1      44.770   3.231  11.742  0.00  0.00    +0.000 C 
ATOM     12  O   UNL     1      44.842   3.021  10.538  0.00  0.00    +0.000 OA
ATOM     13  H   UNL     1      43.249   1.919  12.050  0.00  0.00    +0.000 HD
ATOM     14  H   UNL     1      43.626   2.851  13.456  0.00  0.00    +0.000 HD
ENDBRANCH   1  11
BRANCH   8  15
ATOM     15  C   UNL     1      49.163   6.918  15.000  0.00  0.00    +0.000 C 
BRANCH  15  16
ATOM     16  C   UNL     1      48.780   6.938  16.458  0.00  0.00    +0.000 A 
ATOM     17  C   UNL     1      48.551   5.737  17.149  0.00  0.00    +0.000 A 
ATOM     18  C   UNL     1      48.149   5.751  18.486  0.00  0.00    +0.000 A 
ATOM     19  C   UNL     1      47.985   6.965  19.146  0.00  0.00    +0.000 A 
ATOM     20 CL   UNL     1      47.455   6.985  20.783  0.00  0.00    +0.000 Cl
ATOM     21  C   UNL     1      48.239   8.166  18.487  0.00  0.00    +0.000 A 
ATOM     22  C   UNL     1      48.637   8.154  17.147  0.00  0.00    +0.000 A 
ENDBRANCH  15  16
ENDBRANCH   8  15
TORSDOF 3
ENDMDL
MODEL 8
REMARK VINA RESULT:    -5.444      4.905      6.822
REMARK INTER + INTRA:          -6.927
REMARK INTER:                  -6.410
REMARK INTRA:                  -0.517
REMARK UNBOUND:                -0.528
REMARK  Name = 
REMARK  3 active torsions:
REMARK  status: ('A' for Active; 'I' for Inactive)
REMARK    1  A    between atoms: C_2  and  C_4
REMARK    2  A    between atoms: N_11  and  C_12
REMARK    3  A    between atoms: C_12  and  C_13
REMARK                            x       y       z     vdW  Elec       q    Type
REMARK                         _______ _______ _______ _____ _____    ______ ____
ROOT
ATOM      1  C   UNL     1      48.630   5.468  18.361  0.00  0.00    +0.000 A 
ATOM      2  C   UNL     1      48.546   4.563  17.308  0.00  0.00    +0.000 A 
ATOM      3  N   UNL     1      48.483   4.885  15.989  0.00  0.00    +0.000 NA
ATOM      4  C   UNL     1      48.542   6.215  15.766  0.00  0.00    +0.000 A 
ATOM      5  C   UNL     1      48.667   7.219  16.726  0.00  0.00    +0.000 A 
ATOM      6  C   UNL     1      48.718   8.457  16.033  0.00  0.00    +0.000 A 
ATOM      7  C   UNL     1      48.600   8.187  14.687  0.00  0.00    +0.000 A 
ATOM      8  N   UNL     1      48.487   6.824  14.534  0.00  0.00    +0.000 N 
ATOM      9  C   UNL     1      48.712   6.833  18.076  0.00  0.00    +0.000 A 
ENDROOT
BRANCH   1  11
ATOM     10  N   UNL     1      48.449   3.601  19.908  0.00  0.00    +0.000 N 
ATOM     11  C   UNL     1      48.627   4.948  19.745  0.00  0.00    +0.000 C 
ATOM     12  O   UNL     1      48.821   5.682  20.705  0.00  0.00    +0.000 OA
ATOM     13  H   UNL     1      48.558   3.243  20.849  0.00  0.00    +0.000 HD
ATOM     14  H   UNL     1      48.526   2.943  19.146  0.00  0.00    +0.000 HD
ENDBRANCH   1  11
BRANCH   8  15
ATOM     15  C   UNL     1      48.269   6.138  13.267  0.00  0.00    +0.000 C 
BRANCH  15  16
ATOM     16  C   UNL     1      46.802   6.038  12.931  0.00  0.00    +0.000 A 
ATOM     17  C   UNL     1      46.027   4.984  13.439  0.00  0.00    +0.000 A 
ATOM     18  C   UNL     1      44.680   4.859  13.093  0.00  0.00    +0.000 A 
ATOM     19  C   UNL     1      44.095   5.795  12.244  0.00  0.00    +0.000 A 
ATOM     20 CL   UNL     1      42.446   5.622  11.788  0.00  0.00    +0.000 Cl
ATOM     21  C   UNL     1      44.840   6.866  11.756  0.00  0.00    +0.000 A 
ATOM     22  C   UNL     1      46.190   6.989  12.099  0.00  0.00    +0.000 A 
ENDBRANCH  15  16
ENDBRANCH   8  15
TORSDOF 3
ENDMDL
MODEL 9
REMARK VINA RESULT:    -5.118      3.139      4.276
REMARK INTER + INTRA:          -6.544
REMARK INTER:                  -6.091
REMARK INTRA:                  -0.452
REMARK UNBOUND:                -0.528
REMARK  Name = 
REMARK  3 active torsions:
REMARK  status: ('A' for Active; 'I' for Inactive)
REMARK    1  A    between atoms: C_2  and  C_4
REMARK    2  A    between atoms: N_11  and  C_12
REMARK    3  A    between atoms: C_12  and  C_13
REMARK                            x       y       z     vdW  Elec       q    Type
REMARK                         _______ _______ _______ _____ _____    ______ ____
ROOT
ATOM      1  C   UNL     1      48.439   5.843  15.546  0.00  0.00    +0.000 A 
ATOM      2  C   UNL     1      47.325   5.083  15.208  0.00  0.00    +0.000 A 
ATOM      3  N   UNL     1      46.471   5.342  14.182  0.00  0.00    +0.000 NA
ATOM      4  C   UNL     1      46.822   6.428  13.462  0.00  0.00    +0.000 A 
ATOM      5  C   UNL     1      47.932   7.247  13.671  0.00  0.00    +0.000 A 
ATOM      6  C   UNL     1      47.915   8.242  12.660  0.00  0.00    +0.000 A 
ATOM      7  C   UNL     1      46.798   8.027  11.882  0.00  0.00    +0.000 A 
ATOM      8  N   UNL     1      46.137   6.928  12.380  0.00  0.00    +0.000 N 
ATOM      9  C   UNL     1      48.774   6.945  14.754  0.00  0.00    +0.000 A 
ENDROOT
BRANCH   1  11
ATOM     10  N   UNL     1      48.538   5.198  17.888  0.00  0.00    +0.000 N 
ATOM     11  C   UNL     1      49.229   5.455  16.734  0.00  0.00    +0.000 C 
ATOM     12  O   UNL     1      50.445   5.325  16.681  0.00  0.00    +0.000 OA
ATOM     13  H   UNL     1      49.076   4.828  18.662  0.00  0.00    +0.000 HD
ATOM     14  H   UNL     1      47.538   5.062  17.908  0.00  0.00    +0.000 HD
ENDBRANCH   1  11
BRANCH   8  15
ATOM     15  C   UNL     1      44.867   6.418  11.881  0.00  0.00    +0.000 C 
BRANCH  15  16
ATOM     16  C   UNL     1      45.057   5.189  11.027  0.00  0.00    +0.000 A 
ATOM     17  C   UNL     1      45.552   5.303   9.718  0.00  0.00    +0.000 A 
ATOM     18  C   UNL     1      45.684   4.175   8.906  0.00  0.00    +0.000 A 
ATOM     19  C   UNL     1      45.333   2.922   9.401  0.00  0.00    +0.000 A 
ATOM     20 CL   UNL     1      45.462   1.536   8.390  0.00  0.00    +0.000 Cl
ATOM     21  C   UNL     1      44.871   2.785  10.708  0.00  0.00    +0.000 A 
ATOM     22  C   UNL     1      44.734   3.914  11.520  0.00  0.00    +0.000 A 
ENDBRANCH  15  16
ENDBRANCH   8  15
TORSDOF 3
ENDMDL
