MODEL 1
REMARK VINA RESULT:    -7.792      0.000      0.000
REMARK INTER + INTRA:         -12.348
REMARK INTER:                 -11.208
REMARK INTRA:                  -1.140
REMARK UNBOUND:                -1.140
REMARK  Name = 
REMARK  9 active torsions:
REMARK  status: ('A' for Active; 'I' for Inactive)
REMARK    1  A    between atoms: C_1  and  O_2
REMARK    2  A    between atoms: O_2  and  C_3
REMARK    3  A    between atoms: C_6  and  C_7
REMARK    4  A    between atoms: C_7  and  N_8
REMARK    5  A    between atoms: N_8  and  C_9
REMARK    6  A    between atoms: C_12  and  C_13
REMARK    7  A    between atoms: C_21  and  C_22
REMARK    8  A    between atoms: C_25  and  C_26
REMARK    9  A    between atoms: C_26  and  O_27
REMARK                            x       y       z     vdW  Elec       q    Type
REMARK                         _______ _______ _______ _____ _____    ______ ____
ROOT
ATOM      1  C   UNL     1      46.004   9.075  11.847  0.00  0.00    +0.000 A 
ATOM      2  C   UNL     1      44.668   8.897  11.463  0.00  0.00    +0.000 A 
ATOM      3  C   UNL     1      44.122   7.615  11.342  0.00  0.00    +0.000 A 
ATOM      4  C   UNL     1      44.900   6.468  11.548  0.00  0.00    +0.000 A 
ATOM      5  C   UNL     1      46.247   6.671  11.868  0.00  0.00    +0.000 A 
ATOM      6  C   UNL     1      46.810   7.944  12.105  0.00  0.00    +0.000 A 
ENDROOT
BRANCH   6   7
ATOM      7  C   UNL     1      48.154   8.001  12.736  0.00  0.00    +0.000 A 
ATOM      8  C   UNL     1      49.344   8.142  12.009  0.00  0.00    +0.000 A 
ATOM      9  C   UNL     1      50.579   8.285  12.656  0.00  0.00    +0.000 A 
ATOM     10  C   UNL     1      50.661   8.259  14.053  0.00  0.00    +0.000 A 
ATOM     11  C   UNL     1      49.491   8.075  14.791  0.00  0.00    +0.000 A 
ATOM     12  C   UNL     1      48.263   7.962  14.142  0.00  0.00    +0.000 A 
BRANCH  10  13
ATOM     13  C   UNL     1      51.978   8.411  14.760  0.00  0.00    +0.000 C 
BRANCH  13  14
ATOM     14  O   UNL     1      52.828   7.305  14.471  0.00  0.00    +0.000 OA
ATOM     15  H   UNL     1      53.723   7.554  14.762  0.00  0.00    +0.000 HD
ENDBRANCH  13  14
ENDBRANCH  10  13
ENDBRANCH   6   7
BRANCH   4  16
ATOM     16  C   UNL     1      44.311   5.063  11.510  0.00  0.00    +0.000 C 
ATOM     17  C   UNL     1      43.460   4.679  12.713  0.00  0.00    +0.000 C 
ATOM     18  C   UNL     1      44.780   4.015  12.508  0.00  0.00    +0.000 C 
BRANCH  16  19
ATOM     19  N   UNL     1      43.866   4.628  10.172  0.00  0.00    +0.000 N 
ATOM     20  H   UNL     1      43.246   5.274   9.692  0.00  0.00    +0.000 HD
BRANCH  19  21
ATOM     21  C   UNL     1      44.681   3.907   9.273  0.00  0.00    +0.000 A 
ATOM     22  C   UNL     1      45.597   4.495   8.397  0.00  0.00    +0.000 A 
ATOM     23  C   UNL     1      46.453   3.707   7.624  0.00  0.00    +0.000 A 
ATOM     24  C   UNL     1      46.389   2.330   7.769  0.00  0.00    +0.000 A 
ATOM     25  N   UNL     1      45.527   1.702   8.618  0.00  0.00    +0.000 NA
ATOM     26  C   UNL     1      44.714   2.509   9.341  0.00  0.00    +0.000 A 
BRANCH  24  27
ATOM     27  C   UNL     1      47.327   1.457   7.000  0.00  0.00    +0.000 C 
ATOM     28  N   UNL     1      48.460   2.079   6.550  0.00  0.00    +0.000 N 
ATOM     29  O   UNL     1      47.100   0.278   6.765  0.00  0.00    +0.000 OA
ATOM     30  H   UNL     1      48.590   3.067   6.736  0.00  0.00    +0.000 HD
ATOM     31  H   UNL     1      49.117   1.568   5.978  0.00  0.00    +0.000 HD
ENDBRANCH  24  27
ENDBRANCH  19  21
ENDBRANCH  16  19
ENDBRANCH   4  16
BRANCH   1  33
ATOM     32  C   UNL     1      45.922  11.450  11.523  0.00  0.00    +0.000 C 
ATOM     33  O   UNL     1      46.577  10.305  12.048  0.00  0.00    +0.000 OA
ENDBRANCH   1  33
TORSDOF 8
ENDMDL
MODEL 2
REMARK VINA RESULT:    -6.784      4.498      6.772
REMARK INTER + INTRA:         -10.898
REMARK INTER:                  -9.680
REMARK INTRA:                  -1.218
REMARK UNBOUND:                -1.140
REMARK  Name = 
REMARK  9 active torsions:
REMARK  status: ('A' for Active; 'I' for Inactive)
REMARK    1  A    between atoms: C_1  and  O_2
REMARK    2  A    between atoms: O_2  and  C_3
REMARK    3  A    between atoms: C_6  and  C_7
REMARK    4  A    between atoms: C_7  and  N_8
REMARK    5  A    between atoms: N_8  and  C_9
REMARK    6  A    between atoms: C_12  and  C_13
REMARK    7  A    between atoms: C_21  and  C_22
REMARK    8  A    between atoms: C_25  and  C_26
REMARK    9  A    between atoms: C_26  and  O_27
REMARK                            x       y       z     vdW  Elec       q    Type
REMARK                         _______ _______ _______ _____ _____    ______ ____
ROOT
ATOM      1  C   UNL     1      49.359   6.714  18.345  0.00  0.00    +0.000 A 
ATOM      2  C   UNL     1      48.586   7.848  18.061  0.00  0.00    +0.000 A 
ATOM      3  C   UNL     1      48.291   8.200  16.739  0.00  0.00    +0.000 A 
ATOM      4  C   UNL     1      48.798   7.468  15.658  0.00  0.00    +0.000 A 
ATOM      5  C   UNL     1      49.620   6.379  15.967  0.00  0.00    +0.000 A 
ATOM      6  C   UNL     1      49.854   5.925  17.283  0.00  0.00    +0.000 A 
ENDROOT
BRANCH   6   7
ATOM      7  C   UNL     1      50.480   4.589  17.455  0.00  0.00    +0.000 A 
ATOM      8  C   UNL     1      49.781   3.383  17.306  0.00  0.00    +0.000 A 
ATOM      9  C   UNL     1      50.438   2.148  17.387  0.00  0.00    +0.000 A 
ATOM     10  C   UNL     1      51.811   2.083  17.651  0.00  0.00    +0.000 A 
ATOM     11  C   UNL     1      52.514   3.273  17.844  0.00  0.00    +0.000 A 
ATOM     12  C   UNL     1      51.860   4.499  17.735  0.00  0.00    +0.000 A 
BRANCH  10  13
ATOM     13  C   UNL     1      52.528   0.765  17.740  0.00  0.00    +0.000 C 
BRANCH  13  14
ATOM     14  O   UNL     1      51.733  -0.186  18.441  0.00  0.00    +0.000 OA
ATOM     15  H   UNL     1      52.346  -0.838  18.822  0.00  0.00    +0.000 HD
ENDBRANCH  13  14
ENDBRANCH  10  13
ENDBRANCH   6   7
BRANCH   4  16
ATOM     16  C   UNL     1      48.423   7.777  14.214  0.00  0.00    +0.000 C 
ATOM     17  C   UNL     1      49.000   9.069  13.651  0.00  0.00    +0.000 C 
ATOM     18  C   UNL     1      47.532   8.969  13.898  0.00  0.00    +0.000 C 
BRANCH  16  19
ATOM     19  N   UNL     1      48.372   6.593  13.334  0.00  0.00    +0.000 N 
ATOM     20  H   UNL     1      49.139   5.937  13.448  0.00  0.00    +0.000 HD
BRANCH  19  21
ATOM     21  C   UNL     1      47.173   5.949  12.959  0.00  0.00    +0.000 A 
ATOM     22  C   UNL     1      46.493   6.188  11.761  0.00  0.00    +0.000 A 
ATOM     23  C   UNL     1      45.379   5.424  11.408  0.00  0.00    +0.000 A 
ATOM     24  C   UNL     1      44.981   4.406  12.263  0.00  0.00    +0.000 A 
ATOM     25  N   UNL     1      45.614   4.119  13.435  0.00  0.00    +0.000 NA
ATOM     26  C   UNL     1      46.686   4.892  13.735  0.00  0.00    +0.000 A 
BRANCH  24  27
ATOM     27  C   UNL     1      43.827   3.533  11.892  0.00  0.00    +0.000 C 
ATOM     28  N   UNL     1      43.754   2.349  12.574  0.00  0.00    +0.000 N 
ATOM     29  O   UNL     1      43.013   3.834  11.030  0.00  0.00    +0.000 OA
ATOM     30  H   UNL     1      44.471   2.123  13.254  0.00  0.00    +0.000 HD
ATOM     31  H   UNL     1      43.031   1.682  12.342  0.00  0.00    +0.000 HD
ENDBRANCH  24  27
ENDBRANCH  19  21
ENDBRANCH  16  19
ENDBRANCH   4  16
BRANCH   1  33
ATOM     32  C   UNL     1      48.561   5.734  20.384  0.00  0.00    +0.000 C 
ATOM     33  O   UNL     1      49.625   6.279  19.619  0.00  0.00    +0.000 OA
ENDBRANCH   1  33
TORSDOF 8
ENDMDL
MODEL 3
REMARK VINA RESULT:    -6.583      4.525      7.871
REMARK INTER + INTRA:         -10.610
REMARK INTER:                  -9.346
REMARK INTRA:                  -1.264
REMARK UNBOUND:                -1.140
REMARK  Name = 
REMARK  9 active torsions:
REMARK  status: ('A' for Active; 'I' for Inactive)
REMARK    1  A    between atoms: C_1  and  O_2
REMARK    2  A    between atoms: O_2  and  C_3
REMARK    3  A    between atoms: C_6  and  C_7
REMARK    4  A    between atoms: C_7  and  N_8
REMARK    5  A    between atoms: N_8  and  C_9
REMARK    6  A    between atoms: C_12  and  C_13
REMARK    7  A    between atoms: C_21  and  C_22
REMARK    8  A    between atoms: C_25  and  C_26
REMARK    9  A    between atoms: C_26  and  O_27
REMARK                            x       y       z     vdW  Elec       q    Type
REMARK                         _______ _______ _______ _____ _____    ______ ____
ROOT
ATOM      1  C   UNL     1      49.509   7.636  13.042  0.00  0.00    +0.000 A 
ATOM      2  C   UNL     1      50.446   8.255  13.882  0.00  0.00    +0.000 A 
ATOM      3  C   UNL     1      50.134   8.537  15.216  0.00  0.00    +0.000 A 
ATOM      4  C   UNL     1      48.866   8.264  15.743  0.00  0.00    +0.000 A 
ATOM      5  C   UNL     1      47.928   7.706  14.867  0.00  0.00    +0.000 A 
ATOM      6  C   UNL     1      48.232   7.306  13.548  0.00  0.00    +0.000 A 
ENDROOT
BRANCH   6   7
ATOM      7  C   UNL     1      47.247   6.451  12.838  0.00  0.00    +0.000 A 
ATOM      8  C   UNL     1      46.847   5.188  13.296  0.00  0.00    +0.000 A 
ATOM      9  C   UNL     1      45.846   4.460  12.639  0.00  0.00    +0.000 A 
ATOM     10  C   UNL     1      45.236   4.964  11.484  0.00  0.00    +0.000 A 
ATOM     11  C   UNL     1      45.652   6.200  10.990  0.00  0.00    +0.000 A 
ATOM     12  C   UNL     1      46.630   6.931  11.663  0.00  0.00    +0.000 A 
BRANCH  10  13
ATOM     13  C   UNL     1      44.160   4.194  10.770  0.00  0.00    +0.000 C 
BRANCH  13  14
ATOM     14  O   UNL     1      43.524   5.016   9.797  0.00  0.00    +0.000 OA
ATOM     15  H   UNL     1      43.347   4.452   9.024  0.00  0.00    +0.000 HD
ENDBRANCH  13  14
ENDBRANCH  10  13
ENDBRANCH   6   7
BRANCH   4  16
ATOM     16  C   UNL     1      48.527   8.480  17.213  0.00  0.00    +0.000 C 
ATOM     17  C   UNL     1      48.023   9.872  17.569  0.00  0.00    +0.000 C 
ATOM     18  C   UNL     1      49.363   9.433  18.054  0.00  0.00    +0.000 C 
BRANCH  16  19
ATOM     19  N   UNL     1      47.891   7.320  17.867  0.00  0.00    +0.000 N 
ATOM     20  H   UNL     1      46.878   7.363  17.934  0.00  0.00    +0.000 HD
BRANCH  19  21
ATOM     21  C   UNL     1      48.358   5.994  17.732  0.00  0.00    +0.000 A 
ATOM     22  C   UNL     1      47.557   4.912  17.355  0.00  0.00    +0.000 A 
ATOM     23  C   UNL     1      48.119   3.654  17.128  0.00  0.00    +0.000 A 
ATOM     24  C   UNL     1      49.492   3.513  17.258  0.00  0.00    +0.000 A 
ATOM     25  N   UNL     1      50.323   4.534  17.608  0.00  0.00    +0.000 NA
ATOM     26  C   UNL     1      49.730   5.733  17.824  0.00  0.00    +0.000 A 
BRANCH  24  27
ATOM     27  C   UNL     1      50.134   2.195  16.969  0.00  0.00    +0.000 C 
ATOM     28  N   UNL     1      51.047   1.778  17.900  0.00  0.00    +0.000 N 
ATOM     29  O   UNL     1      49.886   1.538  15.967  0.00  0.00    +0.000 OA
ATOM     30  H   UNL     1      51.249   2.372  18.697  0.00  0.00    +0.000 HD
ATOM     31  H   UNL     1      51.561   0.922  17.748  0.00  0.00    +0.000 HD
ENDBRANCH  24  27
ENDBRANCH  19  21
ENDBRANCH  16  19
ENDBRANCH   4  16
BRANCH   1  33
ATOM     32  C   UNL     1      50.952   7.782  11.131  0.00  0.00    +0.000 C 
ATOM     33  O   UNL     1      49.778   7.273  11.747  0.00  0.00    +0.000 OA
ENDBRANCH   1  33
TORSDOF 8
ENDMDL
MODEL 4
REMARK VINA RESULT:    -6.337      5.169      8.374
REMARK INTER + INTRA:         -10.256
REMARK INTER:                  -9.647
REMARK INTRA:                  -0.609
REMARK UNBOUND:                -1.140
REMARK  Name = 
REMARK  9 active torsions:
REMARK  status: ('A' for Active; 'I' for Inactive)
REMARK    1  A    between atoms: C_1  and  O_2
REMARK    2  A    between atoms: O_2  and  C_3
REMARK    3  A    between atoms: C_6  and  C_7
REMARK    4  A    between atoms: C_7  and  N_8
REMARK    5  A    between atoms: N_8  and  C_9
REMARK    6  A    between atoms: C_12  and  C_13
REMARK    7  A    between atoms: C_21  and  C_22
REMARK    8  A    between atoms: C_25  and  C_26
REMARK    9  A    between atoms: C_26  and  O_27
REMARK                            x       y       z     vdW  Elec       q    Type
REMARK                         _______ _______ _______ _____ _____    ______ ____
ROOT
ATOM      1  C   UNL     1      48.985   7.012  13.335  0.00  0.00    +0.000 A 
ATOM      2  C   UNL     1      50.016   7.431  14.187  0.00  0.00    +0.000 A 
ATOM      3  C   UNL     1      50.012   7.080  15.541  0.00  0.00    +0.000 A 
ATOM      4  C   UNL     1      48.960   6.346  16.102  0.00  0.00    +0.000 A 
ATOM      5  C   UNL     1      47.911   5.994  15.244  0.00  0.00    +0.000 A 
ATOM      6  C   UNL     1      47.926   6.234  13.854  0.00  0.00    +0.000 A 
ENDROOT
BRANCH   6   7
ATOM      7  C   UNL     1      46.911   5.541  13.019  0.00  0.00    +0.000 A 
ATOM      8  C   UNL     1      46.479   4.229  13.258  0.00  0.00    +0.000 A 
ATOM      9  C   UNL     1      45.451   3.653  12.498  0.00  0.00    +0.000 A 
ATOM     10  C   UNL     1      44.846   4.365  11.456  0.00  0.00    +0.000 A 
ATOM     11  C   UNL     1      45.294   5.657  11.177  0.00  0.00    +0.000 A 
ATOM     12  C   UNL     1      46.298   6.234  11.954  0.00  0.00    +0.000 A 
BRANCH  10  13
ATOM     13  C   UNL     1      43.743   3.760  10.635  0.00  0.00    +0.000 C 
BRANCH  13  14
ATOM     14  O   UNL     1      43.779   2.339  10.726  0.00  0.00    +0.000 OA
ATOM     15  H   UNL     1      44.717   2.081  10.744  0.00  0.00    +0.000 HD
ENDBRANCH  13  14
ENDBRANCH  10  13
ENDBRANCH   6   7
BRANCH   4  16
ATOM     16  C   UNL     1      48.973   5.874  17.551  0.00  0.00    +0.000 C 
ATOM     17  C   UNL     1      48.188   6.741  18.526  0.00  0.00    +0.000 C 
ATOM     18  C   UNL     1      49.676   6.705  18.614  0.00  0.00    +0.000 C 
BRANCH  16  19
ATOM     19  N   UNL     1      48.910   4.409  17.714  0.00  0.00    +0.000 N 
ATOM     20  H   UNL     1      48.066   3.971  17.357  0.00  0.00    +0.000 HD
BRANCH  19  21
ATOM     21  C   UNL     1      50.034   3.562  17.607  0.00  0.00    +0.000 A 
ATOM     22  C   UNL     1      51.287   3.845  18.157  0.00  0.00    +0.000 A 
ATOM     23  C   UNL     1      52.317   2.902  18.111  0.00  0.00    +0.000 A 
ATOM     24  C   UNL     1      52.055   1.670  17.531  0.00  0.00    +0.000 A 
ATOM     25  N   UNL     1      50.849   1.333  16.993  0.00  0.00    +0.000 NA
ATOM     26  C   UNL     1      49.885   2.284  17.056  0.00  0.00    +0.000 A 
BRANCH  24  27
ATOM     27  C   UNL     1      53.114   0.617  17.514  0.00  0.00    +0.000 C 
ATOM     28  N   UNL     1      52.936  -0.400  18.412  0.00  0.00    +0.000 N 
ATOM     29  O   UNL     1      54.085   0.659  16.770  0.00  0.00    +0.000 OA
ATOM     30  H   UNL     1      52.137  -0.376  19.036  0.00  0.00    +0.000 HD
ATOM     31  H   UNL     1      53.638  -1.122  18.496  0.00  0.00    +0.000 HD
ENDBRANCH  24  27
ENDBRANCH  19  21
ENDBRANCH  16  19
ENDBRANCH   4  16
BRANCH   1  33
ATOM     32  C   UNL     1      49.946   8.144  11.451  0.00  0.00    +0.000 C 
ATOM     33  O   UNL     1      48.966   7.267  11.986  0.00  0.00    +0.000 OA
ENDBRANCH   1  33
TORSDOF 8
ENDMDL
MODEL 5
REMARK VINA RESULT:    -6.061      4.332      7.881
REMARK INTER + INTRA:          -9.859
REMARK INTER:                  -8.439
REMARK INTRA:                  -1.420
REMARK UNBOUND:                -1.140
REMARK  Name = 
REMARK  9 active torsions:
REMARK  status: ('A' for Active; 'I' for Inactive)
REMARK    1  A    between atoms: C_1  and  O_2
REMARK    2  A    between atoms: O_2  and  C_3
REMARK    3  A    between atoms: C_6  and  C_7
REMARK    4  A    between atoms: C_7  and  N_8
REMARK    5  A    between atoms: N_8  and  C_9
REMARK    6  A    between atoms: C_12  and  C_13
REMARK    7  A    between atoms: C_21  and  C_22
REMARK    8  A    between atoms: C_25  and  C_26
REMARK    9  A    between atoms: C_26  and  O_27
REMARK                            x       y       z     vdW  Elec       q    Type
REMARK                         _______ _______ _______ _____ _____    ______ ____
ROOT
ATOM      1  C   UNL     1      49.261   8.858  13.147  0.00  0.00    +0.000 A 
ATOM      2  C   UNL     1      50.213   9.701  13.738  0.00  0.00    +0.000 A 
ATOM      3  C   UNL     1      50.199   9.940  15.116  0.00  0.00    +0.000 A 
ATOM      4  C   UNL     1      49.209   9.393  15.942  0.00  0.00    +0.000 A 
ATOM      5  C   UNL     1      48.233   8.608  15.318  0.00  0.00    +0.000 A 
ATOM      6  C   UNL     1      48.271   8.254  13.953  0.00  0.00    +0.000 A 
ENDROOT
BRANCH   6   7
ATOM      7  C   UNL     1      47.363   7.173  13.491  0.00  0.00    +0.000 A 
ATOM      8  C   UNL     1      46.305   7.382  12.595  0.00  0.00    +0.000 A 
ATOM      9  C   UNL     1      45.535   6.313  12.118  0.00  0.00    +0.000 A 
ATOM     10  C   UNL     1      45.782   5.004  12.549  0.00  0.00    +0.000 A 
ATOM     11  C   UNL     1      46.804   4.784  13.473  0.00  0.00    +0.000 A 
ATOM     12  C   UNL     1      47.584   5.848  13.923  0.00  0.00    +0.000 A 
BRANCH  10  13
ATOM     13  C   UNL     1      44.964   3.849  12.044  0.00  0.00    +0.000 C 
BRANCH  13  14
ATOM     14  O   UNL     1      45.414   2.630  12.627  0.00  0.00    +0.000 OA
ATOM     15  H   UNL     1      46.255   2.825  13.076  0.00  0.00    +0.000 HD
ENDBRANCH  13  14
ENDBRANCH  10  13
ENDBRANCH   6   7
BRANCH   4  16
ATOM     16  C   UNL     1      49.221   9.565  17.456  0.00  0.00    +0.000 C 
ATOM     17  C   UNL     1      48.027  10.310  18.038  0.00  0.00    +0.000 C 
ATOM     18  C   UNL     1      49.374  10.952  18.062  0.00  0.00    +0.000 C 
BRANCH  16  19
ATOM     19  N   UNL     1      49.743   8.400  18.196  0.00  0.00    +0.000 N 
ATOM     20  H   UNL     1      49.985   8.577  19.166  0.00  0.00    +0.000 HD
BRANCH  19  21
ATOM     21  C   UNL     1      49.289   7.078  17.994  0.00  0.00    +0.000 A 
ATOM     22  C   UNL     1      48.037   6.606  18.401  0.00  0.00    +0.000 A 
ATOM     23  C   UNL     1      47.614   5.320  18.059  0.00  0.00    +0.000 A 
ATOM     24  C   UNL     1      48.454   4.535  17.283  0.00  0.00    +0.000 A 
ATOM     25  N   UNL     1      49.677   4.948  16.846  0.00  0.00    +0.000 NA
ATOM     26  C   UNL     1      50.045   6.201  17.209  0.00  0.00    +0.000 A 
BRANCH  24  27
ATOM     27  C   UNL     1      48.012   3.175  16.852  0.00  0.00    +0.000 C 
ATOM     28  N   UNL     1      47.016   2.621  17.610  0.00  0.00    +0.000 N 
ATOM     29  O   UNL     1      48.509   2.581  15.904  0.00  0.00    +0.000 OA
ATOM     30  H   UNL     1      46.659   3.134  18.409  0.00  0.00    +0.000 HD
ATOM     31  H   UNL     1      46.700   1.683  17.412  0.00  0.00    +0.000 HD
ENDBRANCH  24  27
ENDBRANCH  19  21
ENDBRANCH  16  19
ENDBRANCH   4  16
BRANCH   1  33
ATOM     32  C   UNL     1      50.326   7.735  11.314  0.00  0.00    +0.000 C 
ATOM     33  O   UNL     1      49.263   8.532  11.814  0.00  0.00    +0.000 OA
ENDBRANCH   1  33
TORSDOF 8
ENDMDL
MODEL 6
REMARK VINA RESULT:    -5.693      3.665      6.547
REMARK INTER + INTRA:          -9.329
REMARK INTER:                  -8.413
REMARK INTRA:                  -0.916
REMARK UNBOUND:                -1.140
REMARK  Name = 
REMARK  9 active torsions:
REMARK  status: ('A' for Active; 'I' for Inactive)
REMARK    1  A    between atoms: C_1  and  O_2
REMARK    2  A    between atoms: O_2  and  C_3
REMARK    3  A    between atoms: C_6  and  C_7
REMARK    4  A    between atoms: C_7  and  N_8
REMARK    5  A    between atoms: N_8  and  C_9
REMARK    6  A    between atoms: C_12  and  C_13
REMARK    7  A    between atoms: C_21  and  C_22
REMARK    8  A    between atoms: C_25  and  C_26
REMARK    9  A    between atoms: C_26  and  O_27
REMARK                            x       y       z     vdW  Elec       q    Type
REMARK                         _______ _______ _______ _____ _____    ______ ____
ROOT
ATOM      1  C   UNL     1      51.899   7.540  15.416  0.00  0.00    +0.000 A 
ATOM      2  C   UNL     1      52.178   8.217  14.221  0.00  0.00    +0.000 A 
ATOM      3  C   UNL     1      51.164   8.476  13.292  0.00  0.00    +0.000 A 
ATOM      4  C   UNL     1      49.854   8.024  13.496  0.00  0.00    +0.000 A 
ATOM      5  C   UNL     1      49.616   7.294  14.665  0.00  0.00    +0.000 A 
ATOM      6  C   UNL     1      50.581   7.105  15.678  0.00  0.00    +0.000 A 
ENDROOT
BRANCH   6   7
ATOM      7  C   UNL     1      50.116   6.590  16.991  0.00  0.00    +0.000 A 
ATOM      8  C   UNL     1      49.657   7.416  18.027  0.00  0.00    +0.000 A 
ATOM      9  C   UNL     1      49.142   6.876  19.213  0.00  0.00    +0.000 A 
ATOM     10  C   UNL     1      49.099   5.491  19.409  0.00  0.00    +0.000 A 
ATOM     11  C   UNL     1      49.592   4.655  18.407  0.00  0.00    +0.000 A 
ATOM     12  C   UNL     1      50.078   5.198  17.218  0.00  0.00    +0.000 A 
BRANCH  10  13
ATOM     13  C   UNL     1      48.549   4.899  20.676  0.00  0.00    +0.000 C 
BRANCH  13  14
ATOM     14  O   UNL     1      48.336   3.499  20.519  0.00  0.00    +0.000 OA
ATOM     15  H   UNL     1      47.862   3.379  19.678  0.00  0.00    +0.000 HD
ENDBRANCH  13  14
ENDBRANCH  10  13
ENDBRANCH   6   7
BRANCH   4  16
ATOM     16  C   UNL     1      48.714   8.367  12.544  0.00  0.00    +0.000 C 
ATOM     17  C   UNL     1      48.824   9.720  11.854  0.00  0.00    +0.000 C 
ATOM     18  C   UNL     1      47.761   9.505  12.879  0.00  0.00    +0.000 C 
BRANCH  16  19
ATOM     19  N   UNL     1      48.214   7.222  11.760  0.00  0.00    +0.000 N 
ATOM     20  H   UNL     1      48.930   6.594  11.407  0.00  0.00    +0.000 HD
BRANCH  19  21
ATOM     21  C   UNL     1      47.008   6.545  12.046  0.00  0.00    +0.000 A 
ATOM     22  C   UNL     1      45.858   6.618  11.256  0.00  0.00    +0.000 A 
ATOM     23  C   UNL     1      44.744   5.826  11.542  0.00  0.00    +0.000 A 
ATOM     24  C   UNL     1      44.820   4.945  12.610  0.00  0.00    +0.000 A 
ATOM     25  N   UNL     1      45.920   4.820  13.405  0.00  0.00    +0.000 NA
ATOM     26  C   UNL     1      46.971   5.615  13.092  0.00  0.00    +0.000 A 
BRANCH  24  27
ATOM     27  C   UNL     1      43.668   4.041  12.912  0.00  0.00    +0.000 C 
ATOM     28  N   UNL     1      43.884   2.717  12.642  0.00  0.00    +0.000 N 
ATOM     29  O   UNL     1      42.600   4.446  13.349  0.00  0.00    +0.000 OA
ATOM     30  H   UNL     1      44.773   2.431  12.245  0.00  0.00    +0.000 HD
ATOM     31  H   UNL     1      43.135   2.052  12.770  0.00  0.00    +0.000 HD
ENDBRANCH  24  27
ENDBRANCH  19  21
ENDBRANCH  16  19
ENDBRANCH   4  16
BRANCH   1  33
ATOM     32  C   UNL     1      53.985   6.552  16.068  0.00  0.00    +0.000 C 
ATOM     33  O   UNL     1      52.834   7.315  16.395  0.00  0.00    +0.000 OA
ENDBRANCH   1  33
TORSDOF 8
ENDMDL
MODEL 7
REMARK VINA RESULT:    -5.474      4.320      7.516
REMARK INTER + INTRA:          -9.014
REMARK INTER:                  -8.133
REMARK INTRA:                  -0.881
REMARK UNBOUND:                -1.140
REMARK  Name = 
REMARK  9 active torsions:
REMARK  status: ('A' for Active; 'I' for Inactive)
REMARK    1  A    between atoms: C_1  and  O_2
REMARK    2  A    between atoms: O_2  and  C_3
REMARK    3  A    between atoms: C_6  and  C_7
REMARK    4  A    between atoms: C_7  and  N_8
REMARK    5  A    between atoms: N_8  and  C_9
REMARK    6  A    between atoms: C_12  and  C_13
REMARK    7  A    between atoms: C_21  and  C_22
REMARK    8  A    between atoms: C_25  and  C_26
REMARK    9  A    between atoms: C_26  and  O_27
REMARK                            x       y       z     vdW  Elec       q    Type
REMARK                         _______ _______ _______ _____ _____    ______ ____
ROOT
ATOM      1  C   UNL     1      48.377   6.130  14.764  0.00  0.00    +0.000 A 
ATOM      2  C   UNL     1      49.320   7.048  15.247  0.00  0.00    +0.000 A 
ATOM      3  C   UNL     1      49.729   8.132  14.463  0.00  0.00    +0.000 A 
ATOM      4  C   UNL     1      49.255   8.309  13.157  0.00  0.00    +0.000 A 
ATOM      5  C   UNL     1      48.365   7.343  12.675  0.00  0.00    +0.000 A 
ATOM      6  C   UNL     1      47.844   6.297  13.467  0.00  0.00    +0.000 A 
ENDROOT
BRANCH   6   7
ATOM      7  C   UNL     1      46.682   5.538  12.936  0.00  0.00    +0.000 A 
ATOM      8  C   UNL     1      46.535   4.151  13.078  0.00  0.00    +0.000 A 
ATOM      9  C   UNL     1      45.377   3.495  12.641  0.00  0.00    +0.000 A 
ATOM     10  C   UNL     1      44.343   4.205  12.020  0.00  0.00    +0.000 A 
ATOM     11  C   UNL     1      44.491   5.579  11.832  0.00  0.00    +0.000 A 
ATOM     12  C   UNL     1      45.635   6.231  12.294  0.00  0.00    +0.000 A 
BRANCH  10  13
ATOM     13  C   UNL     1      43.095   3.514  11.547  0.00  0.00    +0.000 C 
BRANCH  13  14
ATOM     14  O   UNL     1      43.217   2.104  11.708  0.00  0.00    +0.000 OA
ATOM     15  H   UNL     1      43.966   1.821  11.155  0.00  0.00    +0.000 HD
ENDBRANCH  13  14
ENDBRANCH  10  13
ENDBRANCH   6   7
BRANCH   4  16
ATOM     16  C   UNL     1      49.616   9.526  12.315  0.00  0.00    +0.000 C 
ATOM     17  C   UNL     1      48.814  10.786  12.611  0.00  0.00    +0.000 C 
ATOM     18  C   UNL     1      48.615  10.080  11.312  0.00  0.00    +0.000 C 
BRANCH  16  19
ATOM     19  N   UNL     1      51.058   9.666  12.037  0.00  0.00    +0.000 N 
ATOM     20  H   UNL     1      51.651   9.743  12.858  0.00  0.00    +0.000 HD
BRANCH  19  21
ATOM     21  C   UNL     1      51.715   9.019  10.967  0.00  0.00    +0.000 A 
ATOM     22  C   UNL     1      51.671   7.642  10.734  0.00  0.00    +0.000 A 
ATOM     23  C   UNL     1      52.247   7.093   9.587  0.00  0.00    +0.000 A 
ATOM     24  C   UNL     1      52.838   7.952   8.672  0.00  0.00    +0.000 A 
ATOM     25  N   UNL     1      52.897   9.303   8.839  0.00  0.00    +0.000 NA
ATOM     26  C   UNL     1      52.330   9.786   9.970  0.00  0.00    +0.000 A 
BRANCH  24  27
ATOM     27  C   UNL     1      53.416   7.406   7.406  0.00  0.00    +0.000 C 
ATOM     28  N   UNL     1      54.766   7.581   7.262  0.00  0.00    +0.000 N 
ATOM     29  O   UNL     1      52.739   6.860   6.546  0.00  0.00    +0.000 OA
ATOM     30  H   UNL     1      55.281   8.073   7.984  0.00  0.00    +0.000 HD
ATOM     31  H   UNL     1      55.220   7.286   6.410  0.00  0.00    +0.000 HD
ENDBRANCH  24  27
ENDBRANCH  19  21
ENDBRANCH  16  19
ENDBRANCH   4  16
BRANCH   1  33
ATOM     32  C   UNL     1      48.317   4.955  16.855  0.00  0.00    +0.000 C 
ATOM     33  O   UNL     1      47.886   5.086  15.508  0.00  0.00    +0.000 OA
ENDBRANCH   1  33
TORSDOF 8
ENDMDL
MODEL 8
REMARK VINA RESULT:    -4.992      2.783      4.493
REMARK INTER + INTRA:          -8.321
REMARK INTER:                  -7.993
REMARK INTRA:                  -0.328
REMARK UNBOUND:                -1.140
REMARK  Name = 
REMARK  9 active torsions:
REMARK  status: ('A' for Active; 'I' for Inactive)
REMARK    1  A    between atoms: C_1  and  O_2
REMARK    2  A    between atoms: O_2  and  C_3
REMARK    3  A    between atoms: C_6  and  C_7
REMARK    4  A    between atoms: C_7  and  N_8
REMARK    5  A    between atoms: N_8  and  C_9
REMARK    6  A    between atoms: C_12  and  C_13
REMARK    7  A    between atoms: C_21  and  C_22
REMARK    8  A    between atoms: C_25  and  C_26
REMARK    9  A    between atoms: C_26  and  O_27
REMARK                            x       y       z     vdW  Elec       q    Type
REMARK                         _______ _______ _______ _____ _____    ______ ____
ROOT
ATOM      1  C   UNL     1      49.544   7.628  13.813  0.00  0.00    +0.000 A 
ATOM      2  C   UNL     1      49.320   8.395  12.661  0.00  0.00    +0.000 A 
ATOM      3  C   UNL     1      48.023   8.608  12.184  0.00  0.00    +0.000 A 
ATOM      4  C   UNL     1      46.912   8.022  12.803  0.00  0.00    +0.000 A 
ATOM      5  C   UNL     1      47.168   7.207  13.912  0.00  0.00    +0.000 A 
ATOM      6  C   UNL     1      48.446   7.054  14.491  0.00  0.00    +0.000 A 
ENDROOT
BRANCH   6   7
ATOM      7  C   UNL     1      48.529   6.424  15.833  0.00  0.00    +0.000 A 
ATOM      8  C   UNL     1      48.312   5.058  16.061  0.00  0.00    +0.000 A 
ATOM      9  C   UNL     1      48.493   4.495  17.332  0.00  0.00    +0.000 A 
ATOM     10  C   UNL     1      48.868   5.292  18.420  0.00  0.00    +0.000 A 
ATOM     11  C   UNL     1      49.046   6.661  18.220  0.00  0.00    +0.000 A 
ATOM     12  C   UNL     1      48.891   7.209  16.948  0.00  0.00    +0.000 A 
BRANCH  10  13
ATOM     13  C   UNL     1      49.067   4.700  19.788  0.00  0.00    +0.000 C 
BRANCH  13  14
ATOM     14  O   UNL     1      48.385   3.454  19.894  0.00  0.00    +0.000 OA
ATOM     15  H   UNL     1      47.434   3.655  19.924  0.00  0.00    +0.000 HD
ENDBRANCH  13  14
ENDBRANCH  10  13
ENDBRANCH   6   7
BRANCH   4  16
ATOM     16  C   UNL     1      45.483   8.306  12.358  0.00  0.00    +0.000 C 
ATOM     17  C   UNL     1      45.338   9.337  11.247  0.00  0.00    +0.000 C 
ATOM     18  C   UNL     1      44.862   9.670  12.621  0.00  0.00    +0.000 C 
BRANCH  16  19
ATOM     19  N   UNL     1      44.609   7.117  12.325  0.00  0.00    +0.000 N 
ATOM     20  H   UNL     1      43.662   7.268  12.659  0.00  0.00    +0.000 HD
BRANCH  19  21
ATOM     21  C   UNL     1      44.666   6.134  11.313  0.00  0.00    +0.000 A 
ATOM     22  C   UNL     1      45.712   6.009  10.396  0.00  0.00    +0.000 A 
ATOM     23  C   UNL     1      45.753   4.937   9.501  0.00  0.00    +0.000 A 
ATOM     24  C   UNL     1      44.744   3.987   9.566  0.00  0.00    +0.000 A 
ATOM     25  N   UNL     1      43.708   4.050  10.449  0.00  0.00    +0.000 NA
ATOM     26  C   UNL     1      43.710   5.111  11.291  0.00  0.00    +0.000 A 
BRANCH  24  27
ATOM     27  C   UNL     1      44.785   2.797   8.663  0.00  0.00    +0.000 C 
ATOM     28  N   UNL     1      44.247   2.994   7.420  0.00  0.00    +0.000 N 
ATOM     29  O   UNL     1      45.244   1.716   9.005  0.00  0.00    +0.000 OA
ATOM     30  H   UNL     1      43.843   3.897   7.192  0.00  0.00    +0.000 HD
ATOM     31  H   UNL     1      44.190   2.222   6.771  0.00  0.00    +0.000 HD
ENDBRANCH  24  27
ENDBRANCH  19  21
ENDBRANCH  16  19
ENDBRANCH   4  16
BRANCH   1  33
ATOM     32  C   UNL     1      51.702   8.523  14.356  0.00  0.00    +0.000 C 
ATOM     33  O   UNL     1      50.785   7.439  14.368  0.00  0.00    +0.000 OA
ENDBRANCH   1  33
TORSDOF 8
ENDMDL
