MODEL 1
REMARK VINA RESULT:    -8.196      0.000      0.000
REMARK INTER + INTRA:         -10.227
REMARK INTER:                  -9.634
REMARK INTRA:                  -0.594
REMARK UNBOUND:                -0.594
REMARK  Name = 
REMARK  3 active torsions:
REMARK  status: ('A' for Active; 'I' for Inactive)
REMARK    1  A    between atoms: C_2  and  C_4
REMARK    2  A    between atoms: N_8  and  C_9
REMARK    3  A    between atoms: C_9  and  C_10
REMARK                            x       y       z     vdW  Elec       q    Type
REMARK                         _______ _______ _______ _____ _____    ______ ____
ROOT
ATOM      1  C   UNL     1      46.493   2.654   7.514  0.00  0.00    +0.000 A 
ATOM      2  C   UNL     1      46.222   4.009   7.683  0.00  0.00    +0.000 A 
ATOM      3  C   UNL     1      45.357   4.413   8.702  0.00  0.00    +0.000 A 
ATOM      4  C   UNL     1      44.770   3.459   9.524  0.00  0.00    +0.000 A 
ATOM      5  N   UNL     1      43.808   3.765  10.489  0.00  0.00    +0.000 N 
ATOM      6  N   UNL     1      45.025   2.142   9.369  0.00  0.00    +0.000 NA
ATOM      7  C   UNL     1      45.872   1.766   8.373  0.00  0.00    +0.000 A 
ATOM      8  H   UNL     1      43.613   2.883  10.962  0.00  0.00    +0.000 HD
ENDROOT
BRANCH   1  10
ATOM      9  N   UNL     1      47.518   2.914   5.328  0.00  0.00    +0.000 N 
ATOM     10  C   UNL     1      47.364   2.131   6.438  0.00  0.00    +0.000 C 
ATOM     11  O   UNL     1      47.937   1.058   6.546  0.00  0.00    +0.000 OA
ATOM     12  H   UNL     1      48.175   2.587   4.631  0.00  0.00    +0.000 HD
ATOM     13  H   UNL     1      47.269   3.892   5.309  0.00  0.00    +0.000 HD
ENDBRANCH   1  10
BRANCH   5  14
ATOM     14  C   UNL     1      43.823   4.965  11.344  0.00  0.00    +0.000 C 
ATOM     15  C   UNL     1      42.460   5.327  11.926  0.00  0.00    +0.000 C 
ATOM     16  C   UNL     1      43.126   6.261  10.973  0.00  0.00    +0.000 C 
BRANCH  14  17
ATOM     17  C   UNL     1      45.041   5.046  12.253  0.00  0.00    +0.000 A 
ATOM     18  C   UNL     1      45.921   6.138  12.241  0.00  0.00    +0.000 A 
ATOM     19  C   UNL     1      46.994   6.204  13.130  0.00  0.00    +0.000 A 
ATOM     20  C   UNL     1      47.168   5.163  14.023  0.00  0.00    +0.000 A 
ATOM     21  N   UNL     1      46.366   4.080  14.071  0.00  0.00    +0.000 NA
ATOM     22  C   UNL     1      45.332   4.054  13.194  0.00  0.00    +0.000 A 
ENDBRANCH  14  17
ENDBRANCH   5  14
TORSDOF 3
ENDMDL
MODEL 2
REMARK VINA RESULT:    -6.202      3.045      6.365
REMARK INTER + INTRA:          -7.884
REMARK INTER:                  -8.316
REMARK INTRA:                   0.432
REMARK UNBOUND:                -0.594
REMARK  Name = 
REMARK  3 active torsions:
REMARK  status: ('A' for Active; 'I' for Inactive)
REMARK    1  A    between atoms: C_2  and  C_4
REMARK    2  A    between atoms: N_8  and  C_9
REMARK    3  A    between atoms: C_9  and  C_10
REMARK                            x       y       z     vdW  Elec       q    Type
REMARK                         _______ _______ _______ _____ _____    ______ ____
ROOT
ATOM      1  C   UNL     1      47.860   5.970  14.532  0.00  0.00    +0.000 A 
ATOM      2  C   UNL     1      47.491   6.195  13.208  0.00  0.00    +0.000 A 
ATOM      3  C   UNL     1      46.695   5.256  12.549  0.00  0.00    +0.000 A 
ATOM      4  C   UNL     1      46.292   4.106  13.218  0.00  0.00    +0.000 A 
ATOM      5  N   UNL     1      45.595   3.065  12.602  0.00  0.00    +0.000 N 
ATOM      6  N   UNL     1      46.644   3.878  14.501  0.00  0.00    +0.000 NA
ATOM      7  C   UNL     1      47.417   4.804  15.129  0.00  0.00    +0.000 A 
ATOM      8  H   UNL     1      45.393   2.399  13.347  0.00  0.00    +0.000 HD
ENDROOT
BRANCH   1  10
ATOM      9  N   UNL     1      48.169   8.054  15.740  0.00  0.00    +0.000 N 
ATOM     10  C   UNL     1      48.732   6.889  15.297  0.00  0.00    +0.000 C 
ATOM     11  O   UNL     1      49.896   6.610  15.541  0.00  0.00    +0.000 OA
ATOM     12  H   UNL     1      48.748   8.641  16.327  0.00  0.00    +0.000 HD
ATOM     13  H   UNL     1      47.172   8.202  15.773  0.00  0.00    +0.000 HD
ENDBRANCH   1  10
BRANCH   5  14
ATOM     14  C   UNL     1      44.538   3.241  11.591  0.00  0.00    +0.000 C 
ATOM     15  C   UNL     1      43.427   4.196  12.016  0.00  0.00    +0.000 C 
ATOM     16  C   UNL     1      43.112   2.758  11.782  0.00  0.00    +0.000 C 
BRANCH  14  17
ATOM     17  C   UNL     1      45.071   3.341  10.168  0.00  0.00    +0.000 A 
ATOM     18  C   UNL     1      45.303   2.213   9.367  0.00  0.00    +0.000 A 
ATOM     19  C   UNL     1      45.736   2.348   8.048  0.00  0.00    +0.000 A 
ATOM     20  C   UNL     1      45.934   3.623   7.552  0.00  0.00    +0.000 A 
ATOM     21  N   UNL     1      45.745   4.743   8.278  0.00  0.00    +0.000 NA
ATOM     22  C   UNL     1      45.319   4.572   9.554  0.00  0.00    +0.000 A 
ENDBRANCH  14  17
ENDBRANCH   5  14
TORSDOF 3
ENDMDL
MODEL 3
REMARK VINA RESULT:    -5.391      3.239      5.123
REMARK INTER + INTRA:          -6.930
REMARK INTER:                  -6.752
REMARK INTRA:                  -0.177
REMARK UNBOUND:                -0.594
REMARK  Name = 
REMARK  3 active torsions:
REMARK  status: ('A' for Active; 'I' for Inactive)
REMARK    1  A    between atoms: C_2  and  C_4
REMARK    2  A    between atoms: N_8  and  C_9
REMARK    3  A    between atoms: C_9  and  C_10
REMARK                            x       y       z     vdW  Elec       q    Type
REMARK                         _______ _______ _______ _____ _____    ______ ____
ROOT
ATOM      1  C   UNL     1      44.559   4.293  11.549  0.00  0.00    +0.000 A 
ATOM      2  C   UNL     1      45.520   5.009  10.840  0.00  0.00    +0.000 A 
ATOM      3  C   UNL     1      46.009   6.206  11.367  0.00  0.00    +0.000 A 
ATOM      4  C   UNL     1      45.523   6.671  12.583  0.00  0.00    +0.000 A 
ATOM      5  N   UNL     1      45.871   7.910  13.125  0.00  0.00    +0.000 N 
ATOM      6  N   UNL     1      44.591   5.985  13.278  0.00  0.00    +0.000 NA
ATOM      7  C   UNL     1      44.128   4.820  12.753  0.00  0.00    +0.000 A 
ATOM      8  H   UNL     1      45.410   7.945  14.033  0.00  0.00    +0.000 HD
ENDROOT
BRANCH   1  10
ATOM      9  N   UNL     1      44.632   2.369  10.068  0.00  0.00    +0.000 N 
ATOM     10  C   UNL     1      43.955   3.037  11.051  0.00  0.00    +0.000 C 
ATOM     11  O   UNL     1      42.910   2.604  11.511  0.00  0.00    +0.000 OA
ATOM     12  H   UNL     1      44.254   1.473   9.787  0.00  0.00    +0.000 HD
ATOM     13  H   UNL     1      45.598   2.558   9.844  0.00  0.00    +0.000 HD
ENDBRANCH   1  10
BRANCH   5  14
ATOM     14  C   UNL     1      47.215   8.511  13.060  0.00  0.00    +0.000 C 
ATOM     15  C   UNL     1      47.224   9.955  12.567  0.00  0.00    +0.000 C 
ATOM     16  C   UNL     1      47.894   8.896  11.759  0.00  0.00    +0.000 C 
BRANCH  14  17
ATOM     17  C   UNL     1      48.099   8.148  14.245  0.00  0.00    +0.000 A 
ATOM     18  C   UNL     1      48.079   8.866  15.450  0.00  0.00    +0.000 A 
ATOM     19  C   UNL     1      48.861   8.468  16.534  0.00  0.00    +0.000 A 
ATOM     20  C   UNL     1      49.657   7.347  16.390  0.00  0.00    +0.000 A 
ATOM     21  N   UNL     1      49.731   6.627  15.252  0.00  0.00    +0.000 NA
ATOM     22  C   UNL     1      48.953   7.042  14.222  0.00  0.00    +0.000 A 
ENDBRANCH  14  17
ENDBRANCH   5  14
TORSDOF 3
ENDMDL
MODEL 4
REMARK VINA RESULT:    -5.359      4.584      7.690
REMARK INTER + INTRA:          -6.893
REMARK INTER:                  -7.090
REMARK INTRA:                   0.197
REMARK UNBOUND:                -0.594
REMARK  Name = 
REMARK  3 active torsions:
REMARK  status: ('A' for Active; 'I' for Inactive)
REMARK    1  A    between atoms: C_2  and  C_4
REMARK    2  A    between atoms: N_8  and  C_9
REMARK    3  A    between atoms: C_9  and  C_10
REMARK                            x       y       z     vdW  Elec       q    Type
REMARK                         _______ _______ _______ _____ _____    ______ ____
ROOT
ATOM      1  C   UNL     1      48.261   4.385  17.585  0.00  0.00    +0.000 A 
ATOM      2  C   UNL     1      48.375   5.634  16.979  0.00  0.00    +0.000 A 
ATOM      3  C   UNL     1      47.997   5.784  15.644  0.00  0.00    +0.000 A 
ATOM      4  C   UNL     1      47.525   4.686  14.935  0.00  0.00    +0.000 A 
ATOM      5  N   UNL     1      47.235   4.721  13.569  0.00  0.00    +0.000 N 
ATOM      6  N   UNL     1      47.411   3.471  15.512  0.00  0.00    +0.000 NA
ATOM      7  C   UNL     1      47.780   3.342  16.815  0.00  0.00    +0.000 A 
ATOM      8  H   UNL     1      46.861   3.798  13.350  0.00  0.00    +0.000 HD
ENDROOT
BRANCH   1  10
ATOM      9  N   UNL     1      48.299   2.925  19.526  0.00  0.00    +0.000 N 
ATOM     10  C   UNL     1      48.673   4.123  18.982  0.00  0.00    +0.000 C 
ATOM     11  O   UNL     1      49.337   4.930  19.614  0.00  0.00    +0.000 OA
ATOM     12  H   UNL     1      48.649   2.720  20.453  0.00  0.00    +0.000 HD
ATOM     13  H   UNL     1      47.975   2.149  18.969  0.00  0.00    +0.000 HD
ENDBRANCH   1  10
BRANCH   5  14
ATOM     14  C   UNL     1      46.605   5.854  12.870  0.00  0.00    +0.000 C 
ATOM     15  C   UNL     1      47.569   6.660  12.004  0.00  0.00    +0.000 C 
ATOM     16  C   UNL     1      46.921   7.306  13.181  0.00  0.00    +0.000 C 
BRANCH  14  17
ATOM     17  C   UNL     1      45.228   5.529  12.307  0.00  0.00    +0.000 A 
ATOM     18  C   UNL     1      45.037   5.077  10.993  0.00  0.00    +0.000 A 
ATOM     19  C   UNL     1      43.767   4.733  10.531  0.00  0.00    +0.000 A 
ATOM     20  C   UNL     1      42.700   4.852  11.403  0.00  0.00    +0.000 A 
ATOM     21  N   UNL     1      42.818   5.298  12.670  0.00  0.00    +0.000 NA
ATOM     22  C   UNL     1      44.069   5.617  13.084  0.00  0.00    +0.000 A 
ENDBRANCH  14  17
ENDBRANCH   5  14
TORSDOF 3
ENDMDL
MODEL 5
REMARK VINA RESULT:    -5.304      2.503      3.480
REMARK INTER + INTRA:          -6.828
REMARK INTER:                  -6.266
REMARK INTRA:                  -0.562
REMARK UNBOUND:                -0.594
REMARK  Name = 
REMARK  3 active torsions:
REMARK  status: ('A' for Active; 'I' for Inactive)
REMARK    1  A    between atoms: C_2  and  C_4
REMARK    2  A    between atoms: N_8  and  C_9
REMARK    3  A    between atoms: C_9  and  C_10
REMARK                            x       y       z     vdW  Elec       q    Type
REMARK                         _______ _______ _______ _____ _____    ______ ____
ROOT
ATOM      1  C   UNL     1      44.986   3.375   9.886  0.00  0.00    +0.000 A 
ATOM      2  C   UNL     1      45.291   4.604   9.308  0.00  0.00    +0.000 A 
ATOM      3  C   UNL     1      45.279   5.755  10.099  0.00  0.00    +0.000 A 
ATOM      4  C   UNL     1      44.953   5.660  11.447  0.00  0.00    +0.000 A 
ATOM      5  N   UNL     1      44.806   6.770  12.281  0.00  0.00    +0.000 N 
ATOM      6  N   UNL     1      44.657   4.472  12.018  0.00  0.00    +0.000 NA
ATOM      7  C   UNL     1      44.675   3.361  11.234  0.00  0.00    +0.000 A 
ATOM      8  H   UNL     1      44.626   6.387  13.208  0.00  0.00    +0.000 HD
ENDROOT
BRANCH   1  10
ATOM      9  N   UNL     1      46.047   1.778   8.395  0.00  0.00    +0.000 N 
ATOM     10  C   UNL     1      44.935   2.110   9.119  0.00  0.00    +0.000 C 
ATOM     11  O   UNL     1      43.953   1.385   9.147  0.00  0.00    +0.000 OA
ATOM     12  H   UNL     1      46.035   0.876   7.936  0.00  0.00    +0.000 HD
ATOM     13  H   UNL     1      46.946   2.213   8.541  0.00  0.00    +0.000 HD
ENDBRANCH   1  10
BRANCH   5  14
ATOM     14  C   UNL     1      45.649   7.977  12.235  0.00  0.00    +0.000 C 
ATOM     15  C   UNL     1      45.007   9.205  12.872  0.00  0.00    +0.000 C 
ATOM     16  C   UNL     1      45.305   9.204  11.411  0.00  0.00    +0.000 C 
BRANCH  14  17
ATOM     17  C   UNL     1      47.119   7.700  12.522  0.00  0.00    +0.000 A 
ATOM     18  C   UNL     1      48.153   8.223  11.731  0.00  0.00    +0.000 A 
ATOM     19  C   UNL     1      49.490   7.995  12.059  0.00  0.00    +0.000 A 
ATOM     20  C   UNL     1      49.768   7.240  13.184  0.00  0.00    +0.000 A 
ATOM     21  N   UNL     1      48.818   6.698  13.971  0.00  0.00    +0.000 NA
ATOM     22  C   UNL     1      47.531   6.945  13.623  0.00  0.00    +0.000 A 
ENDBRANCH  14  17
ENDBRANCH   5  14
TORSDOF 3
ENDMDL
MODEL 6
REMARK VINA RESULT:    -5.199      1.908      2.432
REMARK INTER + INTRA:          -6.704
REMARK INTER:                  -7.058
REMARK INTRA:                   0.354
REMARK UNBOUND:                -0.594
REMARK  Name = 
REMARK  3 active torsions:
REMARK  status: ('A' for Active; 'I' for Inactive)
REMARK    1  A    between atoms: C_2  and  C_4
REMARK    2  A    between atoms: N_8  and  C_9
REMARK    3  A    between atoms: C_9  and  C_10
REMARK                            x       y       z     vdW  Elec       q    Type
REMARK                         _______ _______ _______ _____ _____    ______ ____
ROOT
ATOM      1  C   UNL     1      46.281   3.580   7.385  0.00  0.00    +0.000 A 
ATOM      2  C   UNL     1      46.700   4.593   8.243  0.00  0.00    +0.000 A 
ATOM      3  C   UNL     1      45.841   5.039   9.249  0.00  0.00    +0.000 A 
ATOM      4  C   UNL     1      44.576   4.476   9.372  0.00  0.00    +0.000 A 
ATOM      5  N   UNL     1      43.614   4.940  10.272  0.00  0.00    +0.000 N 
ATOM      6  N   UNL     1      44.159   3.493   8.546  0.00  0.00    +0.000 NA
ATOM      7  C   UNL     1      45.010   3.068   7.574  0.00  0.00    +0.000 A 
ATOM      8  H   UNL     1      42.825   4.302  10.173  0.00  0.00    +0.000 HD
ENDROOT
BRANCH   1  10
ATOM      9  N   UNL     1      48.431   2.844   6.528  0.00  0.00    +0.000 N 
ATOM     10  C   UNL     1      47.107   3.071   6.268  0.00  0.00    +0.000 C 
ATOM     11  O   UNL     1      46.625   2.843   5.169  0.00  0.00    +0.000 OA
ATOM     12  H   UNL     1      48.973   2.424   5.784  0.00  0.00    +0.000 HD
ATOM     13  H   UNL     1      48.802   2.784   7.464  0.00  0.00    +0.000 HD
ENDBRANCH   1  10
BRANCH   5  14
ATOM     14  C   UNL     1      43.896   5.409  11.640  0.00  0.00    +0.000 C 
ATOM     15  C   UNL     1      44.385   4.314  12.582  0.00  0.00    +0.000 C 
ATOM     16  C   UNL     1      43.084   4.989  12.850  0.00  0.00    +0.000 C 
BRANCH  14  17
ATOM     17  C   UNL     1      44.591   6.763  11.684  0.00  0.00    +0.000 A 
ATOM     18  C   UNL     1      43.998   7.933  11.186  0.00  0.00    +0.000 A 
ATOM     19  C   UNL     1      44.641   9.165  11.296  0.00  0.00    +0.000 A 
ATOM     20  C   UNL     1      45.880   9.204  11.909  0.00  0.00    +0.000 A 
ATOM     21  N   UNL     1      46.508   8.112  12.391  0.00  0.00    +0.000 NA
ATOM     22  C   UNL     1      45.849   6.933  12.269  0.00  0.00    +0.000 A 
ENDBRANCH  14  17
ENDBRANCH   5  14
TORSDOF 3
ENDMDL
