MODEL 1
REMARK VINA RESULT:    -7.641      0.000      0.000
REMARK INTER + INTRA:         -11.750
REMARK INTER:                 -10.767
REMARK INTRA:                  -0.983
REMARK UNBOUND:                -0.983
REMARK  Name = 
REMARK  7 active torsions:
REMARK  status: ('A' for Active; 'I' for Inactive)
REMARK    1  A    between atoms: C_2  and  C_3
REMARK    2  A    between atoms: C_6  and  C_7
REMARK    3  A    between atoms: N_9  and  C_10
REMARK    4  A    between atoms: C_10  and  C_11
REMARK    5  A    between atoms: C_14  and  C_15
REMARK    6  A    between atoms: C_15  and  N_16
REMARK    7  A    between atoms: C_17  and  C_19
REMARK                            x       y       z     vdW  Elec       q    Type
REMARK                         _______ _______ _______ _____ _____    ______ ____
ROOT
ATOM      1  C   UNL     1      45.057   6.831  11.564  0.00  0.00    +0.000 A 
ATOM      2  C   UNL     1      44.833   8.182  11.861  0.00  0.00    +0.000 A 
ATOM      3  C   UNL     1      45.689   8.880  12.727  0.00  0.00    +0.000 A 
ATOM      4  C   UNL     1      46.801   8.247  13.298  0.00  0.00    +0.000 A 
ATOM      5  C   UNL     1      47.014   6.892  13.014  0.00  0.00    +0.000 A 
ATOM      6  C   UNL     1      46.161   6.194  12.149  0.00  0.00    +0.000 A 
ENDROOT
BRANCH   1   7
ATOM      7  C   UNL     1      44.128   6.079  10.642  0.00  0.00    +0.000 C 
BRANCH   7  10
ATOM      8  C   UNL     1      44.395   3.738   9.937  0.00  0.00    +0.000 C 
ATOM      9  O   UNL     1      43.461   3.370  10.641  0.00  0.00    +0.000 OA
ATOM     10  N   UNL     1      44.799   5.054   9.885  0.00  0.00    +0.000 N 
ATOM     11  H   UNL     1      45.564   5.296   9.260  0.00  0.00    +0.000 HD
BRANCH   8  15
ATOM     12  C   UNL     1      46.703   2.325   7.562  0.00  0.00    +0.000 A 
ATOM     13  C   UNL     1      46.091   1.145   7.965  0.00  0.00    +0.000 A 
ATOM     14  C   UNL     1      45.110   1.470   8.933  0.00  0.00    +0.000 A 
ATOM     15  C   UNL     1      45.162   2.840   9.091  0.00  0.00    +0.000 A 
ATOM     16  O   UNL     1      46.121   3.355   8.269  0.00  0.00    +0.000 OA
BRANCH  12  18
ATOM     17  C   UNL     1      47.463   2.603   5.297  0.00  0.00    +0.000 C 
ATOM     18  C   UNL     1      47.738   2.507   6.604  0.00  0.00    +0.000 C 
ENDBRANCH  12  18
ENDBRANCH   8  15
ENDBRANCH   7  10
ENDBRANCH   1   7
BRANCH   4  19
ATOM     19  C   UNL     1      47.748   8.992  14.209  0.00  0.00    +0.000 C 
BRANCH  19  20
ATOM     20  N   UNL     1      47.982   8.284  15.443  0.00  0.00    +0.000 N 
ATOM     21  C   UNL     1      49.148   7.593  15.662  0.00  0.00    +0.000 C 
ATOM     22  O   UNL     1      50.061   7.571  14.841  0.00  0.00    +0.000 OA
ATOM     23  H   UNL     1      47.165   8.059  16.001  0.00  0.00    +0.000 HD
BRANCH  21  24
ATOM     24  C   UNL     1      49.279   6.927  16.967  0.00  0.00    +0.000 A 
ATOM     25  C   UNL     1      49.885   7.587  18.028  0.00  0.00    +0.000 A 
ATOM     26  S   UNL     1      49.898   6.685  19.476  0.00  0.00    +0.000 S 
ATOM     27  C   UNL     1      49.146   5.358  18.722  0.00  0.00    +0.000 A 
ATOM     28  N   UNL     1      48.888   4.214  19.410  0.00  0.00    +0.000 NA
ATOM     29  C   UNL     1      48.344   3.278  18.704  0.00  0.00    +0.000 A 
ATOM     30  N   UNL     1      48.029   3.387  17.374  0.00  0.00    +0.000 N 
ATOM     31  C   UNL     1      48.240   4.534  16.649  0.00  0.00    +0.000 A 
ATOM     32  O   UNL     1      47.898   4.616  15.473  0.00  0.00    +0.000 OA
ATOM     33  C   UNL     1      48.866   5.610  17.391  0.00  0.00    +0.000 A 
ATOM     34  H   UNL     1      47.593   2.622  16.881  0.00  0.00    +0.000 HD
ENDBRANCH  21  24
ENDBRANCH  19  20
ENDBRANCH   4  19
TORSDOF 7
ENDMDL
MODEL 2
REMARK VINA RESULT:    -7.395      5.011     10.111
REMARK INTER + INTRA:         -11.403
REMARK INTER:                 -10.518
REMARK INTRA:                  -0.885
REMARK UNBOUND:                -0.983
REMARK  Name = 
REMARK  7 active torsions:
REMARK  status: ('A' for Active; 'I' for Inactive)
REMARK    1  A    between atoms: C_2  and  C_3
REMARK    2  A    between atoms: C_6  and  C_7
REMARK    3  A    between atoms: N_9  and  C_10
REMARK    4  A    between atoms: C_10  and  C_11
REMARK    5  A    between atoms: C_14  and  C_15
REMARK    6  A    between atoms: C_15  and  N_16
REMARK    7  A    between atoms: C_17  and  C_19
REMARK                            x       y       z     vdW  Elec       q    Type
REMARK                         _______ _______ _______ _____ _____    ______ ____
ROOT
ATOM      1  C   UNL     1      51.408   3.107  17.773  0.00  0.00    +0.000 A 
ATOM      2  C   UNL     1      50.729   4.308  18.021  0.00  0.00    +0.000 A 
ATOM      3  C   UNL     1      49.360   4.433  17.733  0.00  0.00    +0.000 A 
ATOM      4  C   UNL     1      48.637   3.353  17.210  0.00  0.00    +0.000 A 
ATOM      5  C   UNL     1      49.321   2.159  16.947  0.00  0.00    +0.000 A 
ATOM      6  C   UNL     1      50.686   2.032  17.235  0.00  0.00    +0.000 A 
ENDROOT
BRANCH   1   7
ATOM      7  C   UNL     1      52.882   2.979  18.072  0.00  0.00    +0.000 C 
BRANCH   7  10
ATOM      8  C   UNL     1      54.104   0.850  17.916  0.00  0.00    +0.000 C 
ATOM      9  O   UNL     1      54.600   1.160  16.838  0.00  0.00    +0.000 OA
ATOM     10  N   UNL     1      53.237   1.682  18.590  0.00  0.00    +0.000 N 
ATOM     11  H   UNL     1      52.882   1.375  19.491  0.00  0.00    +0.000 HD
BRANCH   8  15
ATOM     12  C   UNL     1      53.832  -2.338  19.567  0.00  0.00    +0.000 A 
ATOM     13  C   UNL     1      55.215  -2.216  19.605  0.00  0.00    +0.000 A 
ATOM     14  C   UNL     1      55.563  -0.990  18.988  0.00  0.00    +0.000 A 
ATOM     15  C   UNL     1      54.377  -0.407  18.590  0.00  0.00    +0.000 A 
ATOM     16  O   UNL     1      53.336  -1.218  18.935  0.00  0.00    +0.000 OA
BRANCH  12  18
ATOM     17  C   UNL     1      52.845  -4.523  19.373  0.00  0.00    +0.000 C 
ATOM     18  C   UNL     1      53.019  -3.391  20.068  0.00  0.00    +0.000 C 
ENDBRANCH  12  18
ENDBRANCH   8  15
ENDBRANCH   7  10
ENDBRANCH   1   7
BRANCH   4  19
ATOM     19  C   UNL     1      47.159   3.463  16.923  0.00  0.00    +0.000 C 
BRANCH  19  20
ATOM     20  N   UNL     1      46.876   4.449  15.909  0.00  0.00    +0.000 N 
ATOM     21  C   UNL     1      46.993   4.156  14.572  0.00  0.00    +0.000 C 
ATOM     22  O   UNL     1      47.306   3.038  14.172  0.00  0.00    +0.000 OA
ATOM     23  H   UNL     1      46.889   5.420  16.203  0.00  0.00    +0.000 HD
BRANCH  21  24
ATOM     24  C   UNL     1      46.659   5.238  13.634  0.00  0.00    +0.000 A 
ATOM     25  C   UNL     1      47.594   6.224  13.346  0.00  0.00    +0.000 A 
ATOM     26  S   UNL     1      47.054   7.363  12.197  0.00  0.00    +0.000 S 
ATOM     27  C   UNL     1      45.531   6.613  12.086  0.00  0.00    +0.000 A 
ATOM     28  N   UNL     1      44.558   7.114  11.278  0.00  0.00    +0.000 NA
ATOM     29  C   UNL     1      43.444   6.463  11.318  0.00  0.00    +0.000 A 
ATOM     30  N   UNL     1      43.216   5.350  12.086  0.00  0.00    +0.000 N 
ATOM     31  C   UNL     1      44.179   4.789  12.888  0.00  0.00    +0.000 A 
ATOM     32  O   UNL     1      43.959   3.762  13.523  0.00  0.00    +0.000 OA
ATOM     33  C   UNL     1      45.445   5.494  12.895  0.00  0.00    +0.000 A 
ATOM     34  H   UNL     1      42.325   4.878  12.063  0.00  0.00    +0.000 HD
ENDBRANCH  21  24
ENDBRANCH  19  20
ENDBRANCH   4  19
TORSDOF 7
ENDMDL
MODEL 3
REMARK VINA RESULT:    -7.353      3.375      4.276
REMARK INTER + INTRA:         -11.344
REMARK INTER:                 -10.405
REMARK INTRA:                  -0.939
REMARK UNBOUND:                -0.983
REMARK  Name = 
REMARK  7 active torsions:
REMARK  status: ('A' for Active; 'I' for Inactive)
REMARK    1  A    between atoms: C_2  and  C_3
REMARK    2  A    between atoms: C_6  and  C_7
REMARK    3  A    between atoms: N_9  and  C_10
REMARK    4  A    between atoms: C_10  and  C_11
REMARK    5  A    between atoms: C_14  and  C_15
REMARK    6  A    between atoms: C_15  and  N_16
REMARK    7  A    between atoms: C_17  and  C_19
REMARK                            x       y       z     vdW  Elec       q    Type
REMARK                         _______ _______ _______ _____ _____    ______ ____
ROOT
ATOM      1  C   UNL     1      47.159   6.125  13.750  0.00  0.00    +0.000 A 
ATOM      2  C   UNL     1      46.641   4.901  14.193  0.00  0.00    +0.000 A 
ATOM      3  C   UNL     1      47.088   4.322  15.391  0.00  0.00    +0.000 A 
ATOM      4  C   UNL     1      48.049   4.965  16.183  0.00  0.00    +0.000 A 
ATOM      5  C   UNL     1      48.579   6.180  15.728  0.00  0.00    +0.000 A 
ATOM      6  C   UNL     1      48.133   6.760  14.533  0.00  0.00    +0.000 A 
ENDROOT
BRANCH   1   7
ATOM      7  C   UNL     1      46.686   6.739  12.455  0.00  0.00    +0.000 C 
BRANCH   7  10
ATOM      8  C   UNL     1      45.197   5.569  10.884  0.00  0.00    +0.000 C 
ATOM      9  O   UNL     1      44.220   6.204  11.264  0.00  0.00    +0.000 OA
ATOM     10  N   UNL     1      46.451   5.760  11.424  0.00  0.00    +0.000 N 
ATOM     11  H   UNL     1      47.223   5.219  11.045  0.00  0.00    +0.000 HD
BRANCH   8  15
ATOM     12  C   UNL     1      45.717   3.641   7.889  0.00  0.00    +0.000 A 
ATOM     13  C   UNL     1      44.746   2.836   8.472  0.00  0.00    +0.000 A 
ATOM     14  C   UNL     1      44.378   3.423   9.707  0.00  0.00    +0.000 A 
ATOM     15  C   UNL     1      45.142   4.565   9.836  0.00  0.00    +0.000 A 
ATOM     16  O   UNL     1      45.949   4.695   8.745  0.00  0.00    +0.000 OA
BRANCH  12  18
ATOM     17  C   UNL     1      47.469   2.689   6.543  0.00  0.00    +0.000 C 
ATOM     18  C   UNL     1      46.384   3.467   6.644  0.00  0.00    +0.000 C 
ENDBRANCH  12  18
ENDBRANCH   8  15
ENDBRANCH   7  10
ENDBRANCH   1   7
BRANCH   4  19
ATOM     19  C   UNL     1      48.519   4.370  17.488  0.00  0.00    +0.000 C 
BRANCH  19  20
ATOM     20  N   UNL     1      49.899   3.954  17.428  0.00  0.00    +0.000 N 
ATOM     21  C   UNL     1      50.769   4.210  18.459  0.00  0.00    +0.000 C 
ATOM     22  O   UNL     1      50.414   4.768  19.493  0.00  0.00    +0.000 OA
ATOM     23  H   UNL     1      50.273   3.750  16.507  0.00  0.00    +0.000 HD
BRANCH  21  24
ATOM     24  C   UNL     1      52.146   3.719  18.290  0.00  0.00    +0.000 A 
ATOM     25  C   UNL     1      53.221   4.554  18.562  0.00  0.00    +0.000 A 
ATOM     26  S   UNL     1      54.738   3.801  18.365  0.00  0.00    +0.000 S 
ATOM     27  C   UNL     1      54.014   2.349  17.853  0.00  0.00    +0.000 A 
ATOM     28  N   UNL     1      54.769   1.277  17.492  0.00  0.00    +0.000 NA
ATOM     29  C   UNL     1      54.088   0.255  17.095  0.00  0.00    +0.000 A 
ATOM     30  N   UNL     1      52.718   0.205  17.033  0.00  0.00    +0.000 N 
ATOM     31  C   UNL     1      51.916   1.250  17.421  0.00  0.00    +0.000 A 
ATOM     32  O   UNL     1      50.693   1.154  17.402  0.00  0.00    +0.000 OA
ATOM     33  C   UNL     1      52.633   2.431  17.858  0.00  0.00    +0.000 A 
ATOM     34  H   UNL     1      52.244  -0.630  16.724  0.00  0.00    +0.000 HD
ENDBRANCH  21  24
ENDBRANCH  19  20
ENDBRANCH   4  19
TORSDOF 7
ENDMDL
MODEL 4
REMARK VINA RESULT:    -7.272      3.247      4.641
REMARK INTER + INTRA:         -11.230
REMARK INTER:                 -10.299
REMARK INTRA:                  -0.931
REMARK UNBOUND:                -0.983
REMARK  Name = 
REMARK  7 active torsions:
REMARK  status: ('A' for Active; 'I' for Inactive)
REMARK    1  A    between atoms: C_2  and  C_3
REMARK    2  A    between atoms: C_6  and  C_7
REMARK    3  A    between atoms: N_9  and  C_10
REMARK    4  A    between atoms: C_10  and  C_11
REMARK    5  A    between atoms: C_14  and  C_15
REMARK    6  A    between atoms: C_15  and  N_16
REMARK    7  A    between atoms: C_17  and  C_19
REMARK                            x       y       z     vdW  Elec       q    Type
REMARK                         _______ _______ _______ _____ _____    ______ ____
ROOT
ATOM      1  C   UNL     1      47.313   5.794  14.006  0.00  0.00    +0.000 A 
ATOM      2  C   UNL     1      46.724   4.532  14.157  0.00  0.00    +0.000 A 
ATOM      3  C   UNL     1      46.935   3.774  15.320  0.00  0.00    +0.000 A 
ATOM      4  C   UNL     1      47.722   4.273  16.367  0.00  0.00    +0.000 A 
ATOM      5  C   UNL     1      48.324   5.528  16.206  0.00  0.00    +0.000 A 
ATOM      6  C   UNL     1      48.114   6.285  15.046  0.00  0.00    +0.000 A 
ENDROOT
BRANCH   1   7
ATOM      7  C   UNL     1      47.095   6.602  12.749  0.00  0.00    +0.000 C 
BRANCH   7  10
ATOM      8  C   UNL     1      45.464   5.921  11.038  0.00  0.00    +0.000 C 
ATOM      9  O   UNL     1      44.626   6.715  11.453  0.00  0.00    +0.000 OA
ATOM     10  N   UNL     1      46.704   5.791  11.624  0.00  0.00    +0.000 N 
ATOM     11  H   UNL     1      47.361   5.132  11.214  0.00  0.00    +0.000 HD
BRANCH   8  15
ATOM     12  C   UNL     1      45.767   4.098   7.949  0.00  0.00    +0.000 A 
ATOM     13  C   UNL     1      44.522   3.620   8.335  0.00  0.00    +0.000 A 
ATOM     14  C   UNL     1      44.186   4.225   9.571  0.00  0.00    +0.000 A 
ATOM     15  C   UNL     1      45.244   5.049   9.898  0.00  0.00    +0.000 A 
ATOM     16  O   UNL     1      46.196   4.971   8.925  0.00  0.00    +0.000 OA
BRANCH  12  18
ATOM     17  C   UNL     1      47.156   2.618   6.657  0.00  0.00    +0.000 C 
ATOM     18  C   UNL     1      46.514   3.787   6.779  0.00  0.00    +0.000 C 
ENDBRANCH  12  18
ENDBRANCH   8  15
ENDBRANCH   7  10
ENDBRANCH   1   7
BRANCH   4  19
ATOM     19  C   UNL     1      47.935   3.483  17.636  0.00  0.00    +0.000 C 
BRANCH  19  20
ATOM     20  N   UNL     1      49.331   3.230  17.889  0.00  0.00    +0.000 N 
ATOM     21  C   UNL     1      50.035   2.304  17.158  0.00  0.00    +0.000 C 
ATOM     22  O   UNL     1      49.526   1.674  16.235  0.00  0.00    +0.000 OA
ATOM     23  H   UNL     1      49.690   3.519  18.792  0.00  0.00    +0.000 HD
BRANCH  21  24
ATOM     24  C   UNL     1      51.459   2.149  17.496  0.00  0.00    +0.000 A 
ATOM     25  C   UNL     1      51.994   0.882  17.690  0.00  0.00    +0.000 A 
ATOM     26  S   UNL     1      53.667   0.891  18.018  0.00  0.00    +0.000 S 
ATOM     27  C   UNL     1      53.726   2.591  17.969  0.00  0.00    +0.000 A 
ATOM     28  N   UNL     1      54.886   3.261  18.201  0.00  0.00    +0.000 NA
ATOM     29  C   UNL     1      54.776   4.547  18.164  0.00  0.00    +0.000 A 
ATOM     30  N   UNL     1      53.610   5.224  17.907  0.00  0.00    +0.000 N 
ATOM     31  C   UNL     1      52.424   4.589  17.632  0.00  0.00    +0.000 A 
ATOM     32  O   UNL     1      51.412   5.224  17.355  0.00  0.00    +0.000 OA
ATOM     33  C   UNL     1      52.490   3.142  17.680  0.00  0.00    +0.000 A 
ATOM     34  H   UNL     1      53.593   6.232  17.880  0.00  0.00    +0.000 HD
ENDBRANCH  21  24
ENDBRANCH  19  20
ENDBRANCH   4  19
TORSDOF 7
ENDMDL
MODEL 5
REMARK VINA RESULT:    -7.034      5.155     10.104
REMARK INTER + INTRA:         -10.895
REMARK INTER:                  -9.732
REMARK INTRA:                  -1.163
REMARK UNBOUND:                -0.983
REMARK  Name = 
REMARK  7 active torsions:
REMARK  status: ('A' for Active; 'I' for Inactive)
REMARK    1  A    between atoms: C_2  and  C_3
REMARK    2  A    between atoms: C_6  and  C_7
REMARK    3  A    between atoms: N_9  and  C_10
REMARK    4  A    between atoms: C_10  and  C_11
REMARK    5  A    between atoms: C_14  and  C_15
REMARK    6  A    between atoms: C_15  and  N_16
REMARK    7  A    between atoms: C_17  and  C_19
REMARK                            x       y       z     vdW  Elec       q    Type
REMARK                         _______ _______ _______ _____ _____    ______ ____
ROOT
ATOM      1  C   UNL     1      51.636   2.797  17.727  0.00  0.00    +0.000 A 
ATOM      2  C   UNL     1      51.068   4.028  18.083  0.00  0.00    +0.000 A 
ATOM      3  C   UNL     1      49.708   4.286  17.850  0.00  0.00    +0.000 A 
ATOM      4  C   UNL     1      48.882   3.311  17.275  0.00  0.00    +0.000 A 
ATOM      5  C   UNL     1      49.456   2.088  16.904  0.00  0.00    +0.000 A 
ATOM      6  C   UNL     1      50.813   1.828  17.137  0.00  0.00    +0.000 A 
ENDROOT
BRANCH   1   7
ATOM      7  C   UNL     1      53.102   2.526  17.967  0.00  0.00    +0.000 C 
BRANCH   7  10
ATOM      8  C   UNL     1      54.018   0.250  17.804  0.00  0.00    +0.000 C 
ATOM      9  O   UNL     1      54.424   0.443  16.664  0.00  0.00    +0.000 OA
ATOM     10  N   UNL     1      53.346   1.218  18.518  0.00  0.00    +0.000 N 
ATOM     11  H   UNL     1      53.060   1.000  19.469  0.00  0.00    +0.000 HD
BRANCH   8  15
ATOM     12  C   UNL     1      53.594  -2.669  19.869  0.00  0.00    +0.000 A 
ATOM     13  C   UNL     1      54.892  -2.920  19.442  0.00  0.00    +0.000 A 
ATOM     14  C   UNL     1      55.282  -1.861  18.587  0.00  0.00    +0.000 A 
ATOM     15  C   UNL     1      54.205  -1.002  18.518  0.00  0.00    +0.000 A 
ATOM     16  O   UNL     1      53.188  -1.489  19.286  0.00  0.00    +0.000 OA
BRANCH  12  18
ATOM     17  C   UNL     1      52.485  -4.719  20.464  0.00  0.00    +0.000 C 
ATOM     18  C   UNL     1      52.782  -3.443  20.743  0.00  0.00    +0.000 C 
ENDBRANCH  12  18
ENDBRANCH   8  15
ENDBRANCH   7  10
ENDBRANCH   1   7
BRANCH   4  19
ATOM     19  C   UNL     1      47.411   3.563  17.045  0.00  0.00    +0.000 C 
BRANCH  19  20
ATOM     20  N   UNL     1      47.184   4.547  16.017  0.00  0.00    +0.000 N 
ATOM     21  C   UNL     1      47.164   4.202  14.687  0.00  0.00    +0.000 C 
ATOM     22  O   UNL     1      47.299   3.042  14.310  0.00  0.00    +0.000 OA
ATOM     23  H   UNL     1      47.344   5.516  16.270  0.00  0.00    +0.000 HD
BRANCH  21  24
ATOM     24  C   UNL     1      46.904   5.291  13.732  0.00  0.00    +0.000 A 
ATOM     25  C   UNL     1      45.813   5.221  12.877  0.00  0.00    +0.000 A 
ATOM     26  S   UNL     1      45.637   6.594  11.881  0.00  0.00    +0.000 S 
ATOM     27  C   UNL     1      47.045   7.306  12.517  0.00  0.00    +0.000 A 
ATOM     28  N   UNL     1      47.490   8.509  12.064  0.00  0.00    +0.000 NA
ATOM     29  C   UNL     1      48.587   8.912  12.613  0.00  0.00    +0.000 A 
ATOM     30  N   UNL     1      49.276   8.224  13.579  0.00  0.00    +0.000 N 
ATOM     31  C   UNL     1      48.846   7.025  14.090  0.00  0.00    +0.000 A 
ATOM     32  O   UNL     1      49.459   6.461  14.991  0.00  0.00    +0.000 OA
ATOM     33  C   UNL     1      47.627   6.518  13.493  0.00  0.00    +0.000 A 
ATOM     34  H   UNL     1      50.123   8.601  13.977  0.00  0.00    +0.000 HD
ENDBRANCH  21  24
ENDBRANCH  19  20
ENDBRANCH   4  19
TORSDOF 7
ENDMDL
MODEL 6
REMARK VINA RESULT:    -6.835      3.998      8.681
REMARK INTER + INTRA:         -10.615
REMARK INTER:                  -9.650
REMARK INTRA:                  -0.965
REMARK UNBOUND:                -0.983
REMARK  Name = 
REMARK  7 active torsions:
REMARK  status: ('A' for Active; 'I' for Inactive)
REMARK    1  A    between atoms: C_2  and  C_3
REMARK    2  A    between atoms: C_6  and  C_7
REMARK    3  A    between atoms: N_9  and  C_10
REMARK    4  A    between atoms: C_10  and  C_11
REMARK    5  A    between atoms: C_14  and  C_15
REMARK    6  A    between atoms: C_15  and  N_16
REMARK    7  A    between atoms: C_17  and  C_19
REMARK                            x       y       z     vdW  Elec       q    Type
REMARK                         _______ _______ _______ _____ _____    ______ ____
ROOT
ATOM      1  C   UNL     1      50.193   7.089  15.766  0.00  0.00    +0.000 A 
ATOM      2  C   UNL     1      50.838   7.881  14.806  0.00  0.00    +0.000 A 
ATOM      3  C   UNL     1      50.211   8.187  13.587  0.00  0.00    +0.000 A 
ATOM      4  C   UNL     1      48.917   7.725  13.312  0.00  0.00    +0.000 A 
ATOM      5  C   UNL     1      48.282   6.919  14.266  0.00  0.00    +0.000 A 
ATOM      6  C   UNL     1      48.906   6.614  15.482  0.00  0.00    +0.000 A 
ENDROOT
BRANCH   1   7
ATOM      7  C   UNL     1      50.874   6.751  17.070  0.00  0.00    +0.000 C 
BRANCH   7  10
ATOM      8  C   UNL     1      50.791   4.413  17.831  0.00  0.00    +0.000 C 
ATOM      9  O   UNL     1      49.792   4.620  18.510  0.00  0.00    +0.000 OA
ATOM     10  N   UNL     1      51.398   5.409  17.096  0.00  0.00    +0.000 N 
ATOM     11  H   UNL     1      52.209   5.164  16.535  0.00  0.00    +0.000 HD
BRANCH   8  15
ATOM     12  C   UNL     1      53.135   1.681  17.867  0.00  0.00    +0.000 A 
ATOM     13  C   UNL     1      52.025   0.979  17.415  0.00  0.00    +0.000 A 
ATOM     14  C   UNL     1      50.943   1.887  17.321  0.00  0.00    +0.000 A 
ATOM     15  C   UNL     1      51.431   3.113  17.724  0.00  0.00    +0.000 A 
ATOM     16  O   UNL     1      52.748   2.989  18.055  0.00  0.00    +0.000 OA
BRANCH  12  18
ATOM     17  C   UNL     1      55.494   1.649  17.396  0.00  0.00    +0.000 C 
ATOM     18  C   UNL     1      54.452   1.200  18.108  0.00  0.00    +0.000 C 
ENDBRANCH  12  18
ENDBRANCH   8  15
ENDBRANCH   7  10
ENDBRANCH   1   7
BRANCH   4  19
ATOM     19  C   UNL     1      48.218   8.070  12.019  0.00  0.00    +0.000 C 
BRANCH  19  20
ATOM     20  N   UNL     1      47.523   6.937  11.460  0.00  0.00    +0.000 N 
ATOM     21  C   UNL     1      46.153   6.911  11.370  0.00  0.00    +0.000 C 
ATOM     22  O   UNL     1      45.455   7.858  11.722  0.00  0.00    +0.000 OA
ATOM     23  H   UNL     1      48.035   6.062  11.423  0.00  0.00    +0.000 HD
BRANCH  21  24
ATOM     24  C   UNL     1      45.560   5.708  10.764  0.00  0.00    +0.000 A 
ATOM     25  C   UNL     1      45.716   5.464   9.405  0.00  0.00    +0.000 A 
ATOM     26  S   UNL     1      45.011   4.000   8.890  0.00  0.00    +0.000 S 
ATOM     27  C   UNL     1      44.422   3.667  10.451  0.00  0.00    +0.000 A 
ATOM     28  N   UNL     1      43.687   2.551  10.702  0.00  0.00    +0.000 NA
ATOM     29  C   UNL     1      43.279   2.444  11.923  0.00  0.00    +0.000 A 
ATOM     30  N   UNL     1      43.548   3.349  12.918  0.00  0.00    +0.000 N 
ATOM     31  C   UNL     1      44.314   4.471  12.718  0.00  0.00    +0.000 A 
ATOM     32  O   UNL     1      44.579   5.233  13.643  0.00  0.00    +0.000 OA
ATOM     33  C   UNL     1      44.781   4.648  11.358  0.00  0.00    +0.000 A 
ATOM     34  H   UNL     1      43.209   3.202  13.857  0.00  0.00    +0.000 HD
ENDBRANCH  21  24
ENDBRANCH  19  20
ENDBRANCH   4  19
TORSDOF 7
ENDMDL
MODEL 7
REMARK VINA RESULT:    -6.807      4.370      8.823
REMARK INTER + INTRA:         -10.574
REMARK INTER:                  -9.486
REMARK INTRA:                  -1.088
REMARK UNBOUND:                -0.983
REMARK  Name = 
REMARK  7 active torsions:
REMARK  status: ('A' for Active; 'I' for Inactive)
REMARK    1  A    between atoms: C_2  and  C_3
REMARK    2  A    between atoms: C_6  and  C_7
REMARK    3  A    between atoms: N_9  and  C_10
REMARK    4  A    between atoms: C_10  and  C_11
REMARK    5  A    between atoms: C_14  and  C_15
REMARK    6  A    between atoms: C_15  and  N_16
REMARK    7  A    between atoms: C_17  and  C_19
REMARK                            x       y       z     vdW  Elec       q    Type
REMARK                         _______ _______ _______ _____ _____    ______ ____
ROOT
ATOM      1  C   UNL     1      49.600   4.683  17.637  0.00  0.00    +0.000 A 
ATOM      2  C   UNL     1      50.358   5.798  17.255  0.00  0.00    +0.000 A 
ATOM      3  C   UNL     1      49.935   6.630  16.206  0.00  0.00    +0.000 A 
ATOM      4  C   UNL     1      48.734   6.376  15.531  0.00  0.00    +0.000 A 
ATOM      5  C   UNL     1      47.986   5.250  15.903  0.00  0.00    +0.000 A 
ATOM      6  C   UNL     1      48.407   4.420  16.950  0.00  0.00    +0.000 A 
ENDROOT
BRANCH   1   7
ATOM      7  C   UNL     1      50.064   3.783  18.757  0.00  0.00    +0.000 C 
BRANCH   7  10
ATOM      8  C   UNL     1      51.460   2.067  17.681  0.00  0.00    +0.000 C 
ATOM      9  O   UNL     1      50.487   1.535  17.159  0.00  0.00    +0.000 OA
ATOM     10  N   UNL     1      51.343   3.174  18.493  0.00  0.00    +0.000 N 
ATOM     11  H   UNL     1      52.193   3.582  18.874  0.00  0.00    +0.000 HD
BRANCH   8  15
ATOM     12  C   UNL     1      54.394   0.129  16.905  0.00  0.00    +0.000 A 
ATOM     13  C   UNL     1      55.032   1.264  17.390  0.00  0.00    +0.000 A 
ATOM     14  C   UNL     1      54.037   2.196  17.769  0.00  0.00    +0.000 A 
ATOM     15  C   UNL     1      52.823   1.599  17.498  0.00  0.00    +0.000 A 
ATOM     16  O   UNL     1      53.037   0.357  16.975  0.00  0.00    +0.000 OA
BRANCH  12  18
ATOM     17  C   UNL     1      55.089  -2.154  17.199  0.00  0.00    +0.000 C 
ATOM     18  C   UNL     1      54.971  -1.075  16.416  0.00  0.00    +0.000 C 
ENDBRANCH  12  18
ENDBRANCH   8  15
ENDBRANCH   7  10
ENDBRANCH   1   7
BRANCH   4  19
ATOM     19  C   UNL     1      48.250   7.278  14.420  0.00  0.00    +0.000 C 
BRANCH  19  20
ATOM     20  N   UNL     1      47.001   6.825  13.860  0.00  0.00    +0.000 N 
ATOM     21  C   UNL     1      46.815   6.739  12.502  0.00  0.00    +0.000 C 
ATOM     22  O   UNL     1      47.706   7.006  11.700  0.00  0.00    +0.000 OA
ATOM     23  H   UNL     1      46.189   6.865  14.466  0.00  0.00    +0.000 HD
BRANCH  21  24
ATOM     24  C   UNL     1      45.504   6.245  12.051  0.00  0.00    +0.000 A 
ATOM     25  C   UNL     1      44.582   7.123  11.498  0.00  0.00    +0.000 A 
ATOM     26  S   UNL     1      43.143   6.366  10.982  0.00  0.00    +0.000 S 
ATOM     27  C   UNL     1      43.678   4.848  11.531  0.00  0.00    +0.000 A 
ATOM     28  N   UNL     1      42.893   3.743  11.418  0.00  0.00    +0.000 NA
ATOM     29  C   UNL     1      43.413   2.666  11.905  0.00  0.00    +0.000 A 
ATOM     30  N   UNL     1      44.652   2.593  12.489  0.00  0.00    +0.000 N 
ATOM     31  C   UNL     1      45.492   3.674  12.593  0.00  0.00    +0.000 A 
ATOM     32  O   UNL     1      46.616   3.562  13.074  0.00  0.00    +0.000 OA
ATOM     33  C   UNL     1      44.947   4.913  12.077  0.00  0.00    +0.000 A 
ATOM     34  H   UNL     1      45.007   1.716  12.841  0.00  0.00    +0.000 HD
ENDBRANCH  21  24
ENDBRANCH  19  20
ENDBRANCH   4  19
TORSDOF 7
ENDMDL
MODEL 8
REMARK VINA RESULT:    -6.677      5.964      8.427
REMARK INTER + INTRA:         -10.392
REMARK INTER:                  -9.330
REMARK INTRA:                  -1.061
REMARK UNBOUND:                -0.983
REMARK  Name = 
REMARK  7 active torsions:
REMARK  status: ('A' for Active; 'I' for Inactive)
REMARK    1  A    between atoms: C_2  and  C_3
REMARK    2  A    between atoms: C_6  and  C_7
REMARK    3  A    between atoms: N_9  and  C_10
REMARK    4  A    between atoms: C_10  and  C_11
REMARK    5  A    between atoms: C_14  and  C_15
REMARK    6  A    between atoms: C_15  and  N_16
REMARK    7  A    between atoms: C_17  and  C_19
REMARK                            x       y       z     vdW  Elec       q    Type
REMARK                         _______ _______ _______ _____ _____    ______ ____
ROOT
ATOM      1  C   UNL     1      48.700   3.406  17.090  0.00  0.00    +0.000 A 
ATOM      2  C   UNL     1      49.264   2.178  16.721  0.00  0.00    +0.000 A 
ATOM      3  C   UNL     1      50.594   1.869  17.049  0.00  0.00    +0.000 A 
ATOM      4  C   UNL     1      51.381   2.774  17.773  0.00  0.00    +0.000 A 
ATOM      5  C   UNL     1      50.820   4.009  18.126  0.00  0.00    +0.000 A 
ATOM      6  C   UNL     1      49.493   4.317  17.800  0.00  0.00    +0.000 A 
ENDROOT
BRANCH   1   7
ATOM      7  C   UNL     1      47.274   3.741  16.724  0.00  0.00    +0.000 C 
BRANCH   7  10
ATOM      8  C   UNL     1      47.123   4.338  14.343  0.00  0.00    +0.000 C 
ATOM      9  O   UNL     1      47.166   3.162  13.997  0.00  0.00    +0.000 OA
ATOM     10  N   UNL     1      47.181   4.715  15.667  0.00  0.00    +0.000 N 
ATOM     11  H   UNL     1      47.114   5.705  15.887  0.00  0.00    +0.000 HD
BRANCH   8  15
ATOM     12  C   UNL     1      47.770   7.102  12.129  0.00  0.00    +0.000 A 
ATOM     13  C   UNL     1      46.387   7.066  11.997  0.00  0.00    +0.000 A 
ATOM     14  C   UNL     1      45.899   6.016  12.811  0.00  0.00    +0.000 A 
ATOM     15  C   UNL     1      47.003   5.443  13.408  0.00  0.00    +0.000 A 
ATOM     16  O   UNL     1      48.128   6.093  12.996  0.00  0.00    +0.000 OA
BRANCH  12  18
ATOM     17  C   UNL     1      49.986   8.004  11.882  0.00  0.00    +0.000 C 
ATOM     18  C   UNL     1      48.698   7.987  11.514  0.00  0.00    +0.000 C 
ENDBRANCH  12  18
ENDBRANCH   8  15
ENDBRANCH   7  10
ENDBRANCH   1   7
BRANCH   4  19
ATOM     19  C   UNL     1      52.803   2.445  18.160  0.00  0.00    +0.000 C 
BRANCH  19  20
ATOM     20  N   UNL     1      53.123   1.060  17.919  0.00  0.00    +0.000 N 
ATOM     21  C   UNL     1      54.049   0.395  18.685  0.00  0.00    +0.000 C 
ATOM     22  O   UNL     1      54.622   0.930  19.631  0.00  0.00    +0.000 OA
ATOM     23  H   UNL     1      52.883   0.689  17.006  0.00  0.00    +0.000 HD
BRANCH  21  24
ATOM     24  C   UNL     1      54.276  -1.021  18.357  0.00  0.00    +0.000 A 
ATOM     25  C   UNL     1      53.968  -2.008  19.283  0.00  0.00    +0.000 A 
ATOM     26  S   UNL     1      54.243  -3.591  18.711  0.00  0.00    +0.000 S 
ATOM     27  C   UNL     1      54.837  -3.011  17.226  0.00  0.00    +0.000 A 
ATOM     28  N   UNL     1      55.283  -3.866  16.266  0.00  0.00    +0.000 NA
ATOM     29  C   UNL     1      55.736  -3.286  15.204  0.00  0.00    +0.000 A 
ATOM     30  N   UNL     1      55.775  -1.928  15.013  0.00  0.00    +0.000 N 
ATOM     31  C   UNL     1      55.304  -1.031  15.938  0.00  0.00    +0.000 A 
ATOM     32  O   UNL     1      55.306   0.176  15.713  0.00  0.00    +0.000 OA
ATOM     33  C   UNL     1      54.802  -1.630  17.159  0.00  0.00    +0.000 A 
ATOM     34  H   UNL     1      56.130  -1.537  14.153  0.00  0.00    +0.000 HD
ENDBRANCH  21  24
ENDBRANCH  19  20
ENDBRANCH   4  19
TORSDOF 7
ENDMDL
MODEL 9
REMARK VINA RESULT:    -6.249      6.614      9.364
REMARK INTER + INTRA:          -9.788
REMARK INTER:                  -8.979
REMARK INTRA:                  -0.809
REMARK UNBOUND:                -0.983
REMARK  Name = 
REMARK  7 active torsions:
REMARK  status: ('A' for Active; 'I' for Inactive)
REMARK    1  A    between atoms: C_2  and  C_3
REMARK    2  A    between atoms: C_6  and  C_7
REMARK    3  A    between atoms: N_9  and  C_10
REMARK    4  A    between atoms: C_10  and  C_11
REMARK    5  A    between atoms: C_14  and  C_15
REMARK    6  A    between atoms: C_15  and  N_16
REMARK    7  A    between atoms: C_17  and  C_19
REMARK                            x       y       z     vdW  Elec       q    Type
REMARK                         _______ _______ _______ _____ _____    ______ ____
ROOT
ATOM      1  C   UNL     1      50.232   3.483  17.831  0.00  0.00    +0.000 A 
ATOM      2  C   UNL     1      50.089   2.190  17.312  0.00  0.00    +0.000 A 
ATOM      3  C   UNL     1      51.179   1.305  17.273  0.00  0.00    +0.000 A 
ATOM      4  C   UNL     1      52.431   1.689  17.773  0.00  0.00    +0.000 A 
ATOM      5  C   UNL     1      52.576   2.989  18.276  0.00  0.00    +0.000 A 
ATOM      6  C   UNL     1      51.489   3.872  18.316  0.00  0.00    +0.000 A 
ENDROOT
BRANCH   1   7
ATOM      7  C   UNL     1      49.062   4.437  17.861  0.00  0.00    +0.000 C 
BRANCH   7  10
ATOM      8  C   UNL     1      47.325   4.210  16.134  0.00  0.00    +0.000 C 
ATOM      9  O   UNL     1      46.644   3.481  16.847  0.00  0.00    +0.000 OA
ATOM     10  N   UNL     1      48.537   4.718  16.549  0.00  0.00    +0.000 N 
ATOM     11  H   UNL     1      49.038   5.337  15.918  0.00  0.00    +0.000 HD
BRANCH   8  15
ATOM     12  C   UNL     1      45.829   4.418  12.866  0.00  0.00    +0.000 A 
ATOM     13  C   UNL     1      46.601   5.571  12.800  0.00  0.00    +0.000 A 
ATOM     14  C   UNL     1      47.304   5.696  14.023  0.00  0.00    +0.000 A 
ATOM     15  C   UNL     1      46.931   4.615  14.795  0.00  0.00    +0.000 A 
ATOM     16  O   UNL     1      46.042   3.848  14.102  0.00  0.00    +0.000 OA
BRANCH  12  18
ATOM     17  C   UNL     1      44.804   4.468  10.690  0.00  0.00    +0.000 C 
ATOM     18  C   UNL     1      44.962   3.872  11.879  0.00  0.00    +0.000 C 
ENDBRANCH  12  18
ENDBRANCH   8  15
ENDBRANCH   7  10
ENDBRANCH   1   7
BRANCH   4  19
ATOM     19  C   UNL     1      53.605   0.740  17.765  0.00  0.00    +0.000 C 
BRANCH  19  20
ATOM     20  N   UNL     1      53.252  -0.562  18.273  0.00  0.00    +0.000 N 
ATOM     21  C   UNL     1      54.203  -1.416  18.776  0.00  0.00    +0.000 C 
ATOM     22  O   UNL     1      55.388  -1.105  18.853  0.00  0.00    +0.000 OA
ATOM     23  H   UNL     1      52.359  -0.941  17.975  0.00  0.00    +0.000 HD
BRANCH  21  24
ATOM     24  C   UNL     1      53.718  -2.710  19.284  0.00  0.00    +0.000 A 
ATOM     25  C   UNL     1      53.149  -2.792  20.548  0.00  0.00    +0.000 A 
ATOM     26  S   UNL     1      52.595  -4.355  20.946  0.00  0.00    +0.000 S 
ATOM     27  C   UNL     1      53.147  -4.989  19.467  0.00  0.00    +0.000 A 
ATOM     28  N   UNL     1      53.009  -6.310  19.174  0.00  0.00    +0.000 NA
ATOM     29  C   UNL     1      53.503  -6.658  18.032  0.00  0.00    +0.000 A 
ATOM     30  N   UNL     1      54.115  -5.801  17.153  0.00  0.00    +0.000 N 
ATOM     31  C   UNL     1      54.245  -4.455  17.392  0.00  0.00    +0.000 A 
ATOM     32  O   UNL     1      54.751  -3.708  16.561  0.00  0.00    +0.000 OA
ATOM     33  C   UNL     1      53.723  -4.016  18.671  0.00  0.00    +0.000 A 
ATOM     34  H   UNL     1      54.470  -6.133  16.269  0.00  0.00    +0.000 HD
ENDBRANCH  21  24
ENDBRANCH  19  20
ENDBRANCH   4  19
TORSDOF 7
ENDMDL
