MODEL 1
REMARK VINA RESULT:    -8.354      0.000      0.000
REMARK INTER + INTRA:         -11.993
REMARK INTER:                 -11.285
REMARK INTRA:                  -0.708
REMARK UNBOUND:                -0.708
REMARK  Name = 
REMARK  8 active torsions:
REMARK  status: ('A' for Active; 'I' for Inactive)
REMARK    1  A    between atoms: C_1  and  O_2
REMARK    2  A    between atoms: O_2  and  C_3
REMARK    3  A    between atoms: C_5  and  O_6
REMARK    4  A    between atoms: O_6  and  C_7
REMARK    5  A    between atoms: C_10  and  C_11
REMARK    6  A    between atoms: C_11  and  N_12
REMARK    7  A    between atoms: C_13  and  C_15
REMARK    8  A    between atoms: C_29  and  C_30
REMARK                            x       y       z     vdW  Elec       q    Type
REMARK                         _______ _______ _______ _____ _____    ______ ____
ROOT
ATOM      1  C   UNL     1      44.811   5.506  10.642  0.00  0.00    +0.000 A 
ATOM      2  C   UNL     1      44.213   5.898  11.843  0.00  0.00    +0.000 A 
ATOM      3  C   UNL     1      44.884   6.756  12.715  0.00  0.00    +0.000 A 
ATOM      4  C   UNL     1      46.186   7.186  12.427  0.00  0.00    +0.000 A 
ATOM      5  C   UNL     1      46.822   6.693  11.278  0.00  0.00    +0.000 A 
ATOM      6  C   UNL     1      46.133   5.868  10.384  0.00  0.00    +0.000 A 
ENDROOT
BRANCH   1   7
ATOM      7  O   UNL     1      44.188   4.723   9.695  0.00  0.00    +0.000 OA
BRANCH   7  10
ATOM      8  C   UNL     1      46.510   2.767   7.560  0.00  0.00    +0.000 A 
ATOM      9  C   UNL     1      45.865   3.874   8.113  0.00  0.00    +0.000 A 
ATOM     10  C   UNL     1      44.883   3.705   9.086  0.00  0.00    +0.000 A 
ATOM     11  C   UNL     1      44.628   2.411   9.513  0.00  0.00    +0.000 A 
ATOM     12  N   UNL     1      45.228   1.310   9.005  0.00  0.00    +0.000 NA
ATOM     13  C   UNL     1      46.159   1.497   8.030  0.00  0.00    +0.000 A 
ATOM     14  C   UNL     1      46.816   0.257   7.496  0.00  0.00    +0.000 C 
BRANCH   8  16
ATOM     15  C   UNL     1      46.945   2.901   5.247  0.00  0.00    +0.000 C 
ATOM     16  O   UNL     1      47.461   2.860   6.577  0.00  0.00    +0.000 OA
ENDBRANCH   8  16
ENDBRANCH   7  10
ENDBRANCH   1   7
BRANCH   4  17
ATOM     17  C   UNL     1      46.906   8.133  13.350  0.00  0.00    +0.000 C 
BRANCH  17  18
ATOM     18  N   UNL     1      47.378   7.455  14.527  0.00  0.00    +0.000 N 
ATOM     19  C   UNL     1      48.630   6.897  14.564  0.00  0.00    +0.000 C 
ATOM     20  O   UNL     1      49.410   6.988  13.621  0.00  0.00    +0.000 OA
ATOM     21  H   UNL     1      46.681   7.171  15.209  0.00  0.00    +0.000 HD
BRANCH  19  22
ATOM     22  C   UNL     1      49.016   6.241  15.819  0.00  0.00    +0.000 A 
ATOM     23  C   UNL     1      50.096   6.726  16.543  0.00  0.00    +0.000 A 
ATOM     24  S   UNL     1      50.370   5.892  18.003  0.00  0.00    +0.000 S 
ATOM     25  C   UNL     1      49.093   4.811  17.683  0.00  0.00    +0.000 A 
ATOM     26  N   UNL     1      48.792   3.813  18.557  0.00  0.00    +0.000 NA
ATOM     27  C   UNL     1      47.816   3.054  18.182  0.00  0.00    +0.000 A 
ATOM     28  N   UNL     1      47.109   3.209  17.018  0.00  0.00    +0.000 N 
ATOM     29  C   UNL     1      47.352   4.226  16.127  0.00  0.00    +0.000 A 
ATOM     30  O   UNL     1      46.667   4.367  15.114  0.00  0.00    +0.000 OA
ATOM     31  C   UNL     1      48.449   5.099  16.492  0.00  0.00    +0.000 A 
ATOM     32  H   UNL     1      46.347   2.586  16.789  0.00  0.00    +0.000 HD
ENDBRANCH  19  22
ENDBRANCH  17  18
ENDBRANCH   4  17
TORSDOF 6
ENDMDL
MODEL 2
REMARK VINA RESULT:    -6.916      4.840      7.541
REMARK INTER + INTRA:         -10.049
REMARK INTER:                  -9.081
REMARK INTRA:                  -0.968
REMARK UNBOUND:                -0.708
REMARK  Name = 
REMARK  8 active torsions:
REMARK  status: ('A' for Active; 'I' for Inactive)
REMARK    1  A    between atoms: C_1  and  O_2
REMARK    2  A    between atoms: O_2  and  C_3
REMARK    3  A    between atoms: C_5  and  O_6
REMARK    4  A    between atoms: O_6  and  C_7
REMARK    5  A    between atoms: C_10  and  C_11
REMARK    6  A    between atoms: C_11  and  N_12
REMARK    7  A    between atoms: C_13  and  C_15
REMARK    8  A    between atoms: C_29  and  C_30
REMARK                            x       y       z     vdW  Elec       q    Type
REMARK                         _______ _______ _______ _____ _____    ______ ____
ROOT
ATOM      1  C   UNL     1      50.929   8.607  11.247  0.00  0.00    +0.000 A 
ATOM      2  C   UNL     1      50.374   7.438  11.776  0.00  0.00    +0.000 A 
ATOM      3  C   UNL     1      49.024   7.395  12.126  0.00  0.00    +0.000 A 
ATOM      4  C   UNL     1      48.224   8.539  12.008  0.00  0.00    +0.000 A 
ATOM      5  C   UNL     1      48.817   9.738  11.589  0.00  0.00    +0.000 A 
ATOM      6  C   UNL     1      50.159   9.769  11.198  0.00  0.00    +0.000 A 
ENDROOT
BRANCH   1   7
ATOM      7  O   UNL     1      52.231   8.708  10.811  0.00  0.00    +0.000 OA
BRANCH   7  10
ATOM      8  C   UNL     1      52.715   7.060   7.520  0.00  0.00    +0.000 A 
ATOM      9  C   UNL     1      52.377   7.215   8.866  0.00  0.00    +0.000 A 
ATOM     10  C   UNL     1      52.532   8.447   9.495  0.00  0.00    +0.000 A 
ATOM     11  C   UNL     1      52.973   9.507   8.717  0.00  0.00    +0.000 A 
ATOM     12  N   UNL     1      53.313   9.403   7.412  0.00  0.00    +0.000 NA
ATOM     13  C   UNL     1      53.187   8.181   6.827  0.00  0.00    +0.000 A 
ATOM     14  C   UNL     1      53.558   8.101   5.374  0.00  0.00    +0.000 C 
BRANCH   8  16
ATOM     15  C   UNL     1      53.615   4.906   7.189  0.00  0.00    +0.000 C 
ATOM     16  O   UNL     1      52.618   5.870   6.849  0.00  0.00    +0.000 OA
ENDBRANCH   8  16
ENDBRANCH   7  10
ENDBRANCH   1   7
BRANCH   4  17
ATOM     17  C   UNL     1      46.760   8.493  12.358  0.00  0.00    +0.000 C 
BRANCH  17  18
ATOM     18  N   UNL     1      46.236   7.160  12.235  0.00  0.00    +0.000 N 
ATOM     19  C   UNL     1      45.004   6.936  11.676  0.00  0.00    +0.000 C 
ATOM     20  O   UNL     1      44.322   7.850  11.220  0.00  0.00    +0.000 OA
ATOM     21  H   UNL     1      46.667   6.438  12.805  0.00  0.00    +0.000 HD
BRANCH  19  22
ATOM     22  C   UNL     1      44.571   5.537  11.588  0.00  0.00    +0.000 A 
ATOM     23  C   UNL     1      43.869   4.968  12.642  0.00  0.00    +0.000 A 
ATOM     24  S   UNL     1      43.386   3.360  12.352  0.00  0.00    +0.000 S 
ATOM     25  C   UNL     1      44.157   3.349  10.833  0.00  0.00    +0.000 A 
ATOM     26  N   UNL     1      44.132   2.238  10.050  0.00  0.00    +0.000 NA
ATOM     27  C   UNL     1      44.773   2.359   8.934  0.00  0.00    +0.000 A 
ATOM     28  N   UNL     1      45.426   3.493   8.528  0.00  0.00    +0.000 N 
ATOM     29  C   UNL     1      45.443   4.650   9.268  0.00  0.00    +0.000 A 
ATOM     30  O   UNL     1      45.998   5.667   8.854  0.00  0.00    +0.000 OA
ATOM     31  C   UNL     1      44.751   4.564  10.539  0.00  0.00    +0.000 A 
ATOM     32  H   UNL     1      45.899   3.526   7.636  0.00  0.00    +0.000 HD
ENDBRANCH  19  22
ENDBRANCH  17  18
ENDBRANCH   4  17
TORSDOF 6
ENDMDL
MODEL 3
REMARK VINA RESULT:    -6.901      2.911      8.802
REMARK INTER + INTRA:         -10.029
REMARK INTER:                  -8.811
REMARK INTRA:                  -1.218
REMARK UNBOUND:                -0.708
REMARK  Name = 
REMARK  8 active torsions:
REMARK  status: ('A' for Active; 'I' for Inactive)
REMARK    1  A    between atoms: C_1  and  O_2
REMARK    2  A    between atoms: O_2  and  C_3
REMARK    3  A    between atoms: C_5  and  O_6
REMARK    4  A    between atoms: O_6  and  C_7
REMARK    5  A    between atoms: C_10  and  C_11
REMARK    6  A    between atoms: C_11  and  N_12
REMARK    7  A    between atoms: C_13  and  C_15
REMARK    8  A    between atoms: C_29  and  C_30
REMARK                            x       y       z     vdW  Elec       q    Type
REMARK                         _______ _______ _______ _____ _____    ______ ____
ROOT
ATOM      1  C   UNL     1      49.590   8.262  15.619  0.00  0.00    +0.000 A 
ATOM      2  C   UNL     1      48.330   8.820  15.385  0.00  0.00    +0.000 A 
ATOM      3  C   UNL     1      47.739   8.719  14.125  0.00  0.00    +0.000 A 
ATOM      4  C   UNL     1      48.426   8.113  13.065  0.00  0.00    +0.000 A 
ATOM      5  C   UNL     1      49.737   7.662  13.279  0.00  0.00    +0.000 A 
ATOM      6  C   UNL     1      50.310   7.725  14.553  0.00  0.00    +0.000 A 
ENDROOT
BRANCH   1   7
ATOM      7  O   UNL     1      50.208   8.255  16.850  0.00  0.00    +0.000 OA
BRANCH   7  10
ATOM      8  C   UNL     1      49.026   5.174  18.549  0.00  0.00    +0.000 A 
ATOM      9  C   UNL     1      49.368   6.043  17.512  0.00  0.00    +0.000 A 
ATOM     10  C   UNL     1      49.844   7.322  17.792  0.00  0.00    +0.000 A 
ATOM     11  C   UNL     1      50.015   7.659  19.125  0.00  0.00    +0.000 A 
ATOM     12  N   UNL     1      49.696   6.849  20.162  0.00  0.00    +0.000 NA
ATOM     13  C   UNL     1      49.200   5.617  19.865  0.00  0.00    +0.000 A 
ATOM     14  C   UNL     1      48.869   4.737  21.035  0.00  0.00    +0.000 C 
BRANCH   8  16
ATOM     15  C   UNL     1      47.347   3.865  17.536  0.00  0.00    +0.000 C 
ATOM     16  O   UNL     1      48.522   3.916  18.345  0.00  0.00    +0.000 OA
ENDBRANCH   8  16
ENDBRANCH   7  10
ENDBRANCH   1   7
BRANCH   4  17
ATOM     17  C   UNL     1      47.784   7.977  11.710  0.00  0.00    +0.000 C 
BRANCH  17  18
ATOM     18  N   UNL     1      47.058   6.741  11.598  0.00  0.00    +0.000 N 
ATOM     19  C   UNL     1      45.698   6.705  11.770  0.00  0.00    +0.000 C 
ATOM     20  O   UNL     1      45.043   7.721  11.982  0.00  0.00    +0.000 OA
ATOM     21  H   UNL     1      47.595   5.881  11.659  0.00  0.00    +0.000 HD
BRANCH  19  22
ATOM     22  C   UNL     1      45.055   5.394  11.622  0.00  0.00    +0.000 A 
ATOM     23  C   UNL     1      44.389   4.830  12.700  0.00  0.00    +0.000 A 
ATOM     24  S   UNL     1      43.646   3.339  12.341  0.00  0.00    +0.000 S 
ATOM     25  C   UNL     1      44.247   3.366  10.747  0.00  0.00    +0.000 A 
ATOM     26  N   UNL     1      43.978   2.349   9.886  0.00  0.00    +0.000 NA
ATOM     27  C   UNL     1      44.511   2.486   8.717  0.00  0.00    +0.000 A 
ATOM     28  N   UNL     1      45.280   3.553   8.330  0.00  0.00    +0.000 N 
ATOM     29  C   UNL     1      45.545   4.620   9.154  0.00  0.00    +0.000 A 
ATOM     30  O   UNL     1      46.198   5.586   8.761  0.00  0.00    +0.000 OA
ATOM     31  C   UNL     1      44.981   4.510  10.484  0.00  0.00    +0.000 A 
ATOM     32  H   UNL     1      45.660   3.605   7.396  0.00  0.00    +0.000 HD
ENDBRANCH  19  22
ENDBRANCH  17  18
ENDBRANCH   4  17
TORSDOF 6
ENDMDL
MODEL 4
REMARK VINA RESULT:    -6.888      1.762      2.361
REMARK INTER + INTRA:         -10.012
REMARK INTER:                  -9.047
REMARK INTRA:                  -0.965
REMARK UNBOUND:                -0.708
REMARK  Name = 
REMARK  8 active torsions:
REMARK  status: ('A' for Active; 'I' for Inactive)
REMARK    1  A    between atoms: C_1  and  O_2
REMARK    2  A    between atoms: O_2  and  C_3
REMARK    3  A    between atoms: C_5  and  O_6
REMARK    4  A    between atoms: O_6  and  C_7
REMARK    5  A    between atoms: C_10  and  C_11
REMARK    6  A    between atoms: C_11  and  N_12
REMARK    7  A    between atoms: C_13  and  C_15
REMARK    8  A    between atoms: C_29  and  C_30
REMARK                            x       y       z     vdW  Elec       q    Type
REMARK                         _______ _______ _______ _____ _____    ______ ____
ROOT
ATOM      1  C   UNL     1      45.715   6.959  11.911  0.00  0.00    +0.000 A 
ATOM      2  C   UNL     1      46.983   6.374  11.861  0.00  0.00    +0.000 A 
ATOM      3  C   UNL     1      48.032   6.901  12.617  0.00  0.00    +0.000 A 
ATOM      4  C   UNL     1      47.842   8.055  13.386  0.00  0.00    +0.000 A 
ATOM      5  C   UNL     1      46.599   8.703  13.338  0.00  0.00    +0.000 A 
ATOM      6  C   UNL     1      45.538   8.151  12.614  0.00  0.00    +0.000 A 
ENDROOT
BRANCH   1   7
ATOM      7  O   UNL     1      44.613   6.458  11.254  0.00  0.00    +0.000 OA
BRANCH   7  10
ATOM      8  C   UNL     1      45.204   3.899   8.632  0.00  0.00    +0.000 A 
ATOM      9  C   UNL     1      45.143   5.153   9.242  0.00  0.00    +0.000 A 
ATOM     10  C   UNL     1      44.711   5.275  10.560  0.00  0.00    +0.000 A 
ATOM     11  C   UNL     1      44.411   4.107  11.242  0.00  0.00    +0.000 A 
ATOM     12  N   UNL     1      44.455   2.871  10.691  0.00  0.00    +0.000 NA
ATOM     13  C   UNL     1      44.846   2.779   9.391  0.00  0.00    +0.000 A 
ATOM     14  C   UNL     1      44.899   1.395   8.812  0.00  0.00    +0.000 C 
BRANCH   8  16
ATOM     15  C   UNL     1      46.999   3.713   7.115  0.00  0.00    +0.000 C 
ATOM     16  O   UNL     1      45.588   3.710   7.330  0.00  0.00    +0.000 OA
ENDBRANCH   8  16
ENDBRANCH   7  10
ENDBRANCH   1   7
BRANCH   4  17
ATOM     17  C   UNL     1      48.961   8.614  14.225  0.00  0.00    +0.000 C 
BRANCH  17  18
ATOM     18  N   UNL     1      49.125   7.865  15.441  0.00  0.00    +0.000 N 
ATOM     19  C   UNL     1      48.552   8.289  16.612  0.00  0.00    +0.000 C 
ATOM     20  O   UNL     1      47.845   9.291  16.664  0.00  0.00    +0.000 OA
ATOM     21  H   UNL     1      49.880   7.185  15.469  0.00  0.00    +0.000 HD
BRANCH  19  22
ATOM     22  C   UNL     1      48.772   7.444  17.791  0.00  0.00    +0.000 A 
ATOM     23  C   UNL     1      49.116   8.030  19.002  0.00  0.00    +0.000 A 
ATOM     24  S   UNL     1      49.272   6.915  20.281  0.00  0.00    +0.000 S 
ATOM     25  C   UNL     1      48.950   5.603  19.244  0.00  0.00    +0.000 A 
ATOM     26  N   UNL     1      48.942   4.329  19.718  0.00  0.00    +0.000 NA
ATOM     27  C   UNL     1      48.705   3.429  18.821  0.00  0.00    +0.000 A 
ATOM     28  N   UNL     1      48.465   3.690  17.497  0.00  0.00    +0.000 N 
ATOM     29  C   UNL     1      48.425   4.963  16.983  0.00  0.00    +0.000 A 
ATOM     30  O   UNL     1      48.159   5.167  15.799  0.00  0.00    +0.000 OA
ATOM     31  C   UNL     1      48.700   6.012  17.945  0.00  0.00    +0.000 A 
ATOM     32  H   UNL     1      48.275   2.940  16.848  0.00  0.00    +0.000 HD
ENDBRANCH  19  22
ENDBRANCH  17  18
ENDBRANCH   4  17
TORSDOF 6
ENDMDL
MODEL 5
REMARK VINA RESULT:    -6.827      1.487      2.340
REMARK INTER + INTRA:          -9.930
REMARK INTER:                  -9.853
REMARK INTRA:                  -0.077
REMARK UNBOUND:                -0.708
REMARK  Name = 
REMARK  8 active torsions:
REMARK  status: ('A' for Active; 'I' for Inactive)
REMARK    1  A    between atoms: C_1  and  O_2
REMARK    2  A    between atoms: O_2  and  C_3
REMARK    3  A    between atoms: C_5  and  O_6
REMARK    4  A    between atoms: O_6  and  C_7
REMARK    5  A    between atoms: C_10  and  C_11
REMARK    6  A    between atoms: C_11  and  N_12
REMARK    7  A    between atoms: C_13  and  C_15
REMARK    8  A    between atoms: C_29  and  C_30
REMARK                            x       y       z     vdW  Elec       q    Type
REMARK                         _______ _______ _______ _____ _____    ______ ____
ROOT
ATOM      1  C   UNL     1      44.800   5.572  10.798  0.00  0.00    +0.000 A 
ATOM      2  C   UNL     1      44.240   5.980  12.012  0.00  0.00    +0.000 A 
ATOM      3  C   UNL     1      44.933   6.858  12.847  0.00  0.00    +0.000 A 
ATOM      4  C   UNL     1      46.220   7.293  12.507  0.00  0.00    +0.000 A 
ATOM      5  C   UNL     1      46.821   6.785  11.346  0.00  0.00    +0.000 A 
ATOM      6  C   UNL     1      46.109   5.939  10.490  0.00  0.00    +0.000 A 
ENDROOT
BRANCH   1   7
ATOM      7  O   UNL     1      44.151   4.767   9.887  0.00  0.00    +0.000 OA
BRANCH   7  10
ATOM      8  C   UNL     1      46.465   2.895   7.669  0.00  0.00    +0.000 A 
ATOM      9  C   UNL     1      45.820   3.980   8.264  0.00  0.00    +0.000 A 
ATOM     10  C   UNL     1      44.846   3.774   9.238  0.00  0.00    +0.000 A 
ATOM     11  C   UNL     1      44.598   2.465   9.622  0.00  0.00    +0.000 A 
ATOM     12  N   UNL     1      45.198   1.384   9.072  0.00  0.00    +0.000 NA
ATOM     13  C   UNL     1      46.121   1.608   8.097  0.00  0.00    +0.000 A 
ATOM     14  C   UNL     1      46.779   0.390   7.516  0.00  0.00    +0.000 C 
BRANCH   8  16
ATOM     15  C   UNL     1      46.900   2.932   5.352  0.00  0.00    +0.000 C 
ATOM     16  O   UNL     1      47.408   3.025   6.683  0.00  0.00    +0.000 OA
ENDBRANCH   8  16
ENDBRANCH   7  10
ENDBRANCH   1   7
BRANCH   4  17
ATOM     17  C   UNL     1      46.963   8.260  13.389  0.00  0.00    +0.000 C 
BRANCH  17  18
ATOM     18  N   UNL     1      47.447   7.616  14.579  0.00  0.00    +0.000 N 
ATOM     19  C   UNL     1      48.597   6.869  14.558  0.00  0.00    +0.000 C 
ATOM     20  O   UNL     1      49.280   6.756  13.544  0.00  0.00    +0.000 OA
ATOM     21  H   UNL     1      46.790   7.503  15.346  0.00  0.00    +0.000 HD
BRANCH  19  22
ATOM     22  C   UNL     1      49.008   6.265  15.831  0.00  0.00    +0.000 A 
ATOM     23  C   UNL     1      48.249   5.243  16.383  0.00  0.00    +0.000 A 
ATOM     24  S   UNL     1      48.899   4.611  17.826  0.00  0.00    +0.000 S 
ATOM     25  C   UNL     1      50.182   5.730  17.797  0.00  0.00    +0.000 A 
ATOM     26  N   UNL     1      51.121   5.736  18.781  0.00  0.00    +0.000 NA
ATOM     27  C   UNL     1      52.026   6.648  18.647  0.00  0.00    +0.000 A 
ATOM     28  N   UNL     1      52.082   7.547  17.614  0.00  0.00    +0.000 N 
ATOM     29  C   UNL     1      51.179   7.551  16.578  0.00  0.00    +0.000 A 
ATOM     30  O   UNL     1      51.285   8.340  15.640  0.00  0.00    +0.000 OA
ATOM     31  C   UNL     1      50.132   6.556  16.687  0.00  0.00    +0.000 A 
ATOM     32  H   UNL     1      52.825   8.230  17.562  0.00  0.00    +0.000 HD
ENDBRANCH  19  22
ENDBRANCH  17  18
ENDBRANCH   4  17
TORSDOF 6
ENDMDL
MODEL 6
REMARK VINA RESULT:    -6.701      5.603      7.572
REMARK INTER + INTRA:          -9.760
REMARK INTER:                  -8.779
REMARK INTRA:                  -0.981
REMARK UNBOUND:                -0.708
REMARK  Name = 
REMARK  8 active torsions:
REMARK  status: ('A' for Active; 'I' for Inactive)
REMARK    1  A    between atoms: C_1  and  O_2
REMARK    2  A    between atoms: O_2  and  C_3
REMARK    3  A    between atoms: C_5  and  O_6
REMARK    4  A    between atoms: O_6  and  C_7
REMARK    5  A    between atoms: C_10  and  C_11
REMARK    6  A    between atoms: C_11  and  N_12
REMARK    7  A    between atoms: C_13  and  C_15
REMARK    8  A    between atoms: C_29  and  C_30
REMARK                            x       y       z     vdW  Elec       q    Type
REMARK                         _______ _______ _______ _____ _____    ______ ____
ROOT
ATOM      1  C   UNL     1      47.243   7.638  12.612  0.00  0.00    +0.000 A 
ATOM      2  C   UNL     1      48.244   6.662  12.602  0.00  0.00    +0.000 A 
ATOM      3  C   UNL     1      49.558   7.004  12.280  0.00  0.00    +0.000 A 
ATOM      4  C   UNL     1      49.878   8.315  11.904  0.00  0.00    +0.000 A 
ATOM      5  C   UNL     1      48.847   9.260  11.802  0.00  0.00    +0.000 A 
ATOM      6  C   UNL     1      47.539   8.926  12.166  0.00  0.00    +0.000 A 
ENDROOT
BRANCH   1   7
ATOM      7  O   UNL     1      45.940   7.397  12.988  0.00  0.00    +0.000 OA
BRANCH   7  10
ATOM      8  C   UNL     1      44.286   4.824  10.885  0.00  0.00    +0.000 A 
ATOM      9  C   UNL     1      44.934   6.013  11.225  0.00  0.00    +0.000 A 
ATOM     10  C   UNL     1      45.300   6.263  12.545  0.00  0.00    +0.000 A 
ATOM     11  C   UNL     1      45.049   5.266  13.475  0.00  0.00    +0.000 A 
ATOM     12  N   UNL     1      44.423   4.101  13.190  0.00  0.00    +0.000 NA
ATOM     13  C   UNL     1      44.042   3.893  11.900  0.00  0.00    +0.000 A 
ATOM     14  C   UNL     1      43.363   2.585  11.614  0.00  0.00    +0.000 C 
BRANCH   8  16
ATOM     15  C   UNL     1      44.912   4.144   8.716  0.00  0.00    +0.000 C 
ATOM     16  O   UNL     1      43.870   4.528   9.613  0.00  0.00    +0.000 OA
ENDBRANCH   8  16
ENDBRANCH   7  10
ENDBRANCH   1   7
BRANCH   4  17
ATOM     17  C   UNL     1      51.298   8.697  11.581  0.00  0.00    +0.000 C 
BRANCH  17  18
ATOM     18  N   UNL     1      51.680   8.230  10.276  0.00  0.00    +0.000 N 
ATOM     19  C   UNL     1      52.799   8.719   9.653  0.00  0.00    +0.000 C 
ATOM     20  O   UNL     1      53.540   9.535  10.193  0.00  0.00    +0.000 OA
ATOM     21  H   UNL     1      50.971   7.749   9.730  0.00  0.00    +0.000 HD
BRANCH  19  22
ATOM     22  C   UNL     1      53.104   8.165   8.329  0.00  0.00    +0.000 A 
ATOM     23  C   UNL     1      53.077   8.993   7.215  0.00  0.00    +0.000 A 
ATOM     24  S   UNL     1      53.517   8.208   5.768  0.00  0.00    +0.000 S 
ATOM     25  C   UNL     1      53.694   6.717   6.572  0.00  0.00    +0.000 A 
ATOM     26  N   UNL     1      54.055   5.598   5.890  0.00  0.00    +0.000 NA
ATOM     27  C   UNL     1      54.134   4.533   6.617  0.00  0.00    +0.000 A 
ATOM     28  N   UNL     1      53.893   4.489   7.965  0.00  0.00    +0.000 N 
ATOM     29  C   UNL     1      53.564   5.601   8.701  0.00  0.00    +0.000 A 
ATOM     30  O   UNL     1      53.402   5.537   9.920  0.00  0.00    +0.000 OA
ATOM     31  C   UNL     1      53.448   6.822   7.931  0.00  0.00    +0.000 A 
ATOM     32  H   UNL     1      53.982   3.623   8.479  0.00  0.00    +0.000 HD
ENDBRANCH  19  22
ENDBRANCH  17  18
ENDBRANCH   4  17
TORSDOF 6
ENDMDL
MODEL 7
REMARK VINA RESULT:    -6.442      3.195      4.524
REMARK INTER + INTRA:          -9.410
REMARK INTER:                  -8.805
REMARK INTRA:                  -0.605
REMARK UNBOUND:                -0.708
REMARK  Name = 
REMARK  8 active torsions:
REMARK  status: ('A' for Active; 'I' for Inactive)
REMARK    1  A    between atoms: C_1  and  O_2
REMARK    2  A    between atoms: O_2  and  C_3
REMARK    3  A    between atoms: C_5  and  O_6
REMARK    4  A    between atoms: O_6  and  C_7
REMARK    5  A    between atoms: C_10  and  C_11
REMARK    6  A    between atoms: C_11  and  N_12
REMARK    7  A    between atoms: C_13  and  C_15
REMARK    8  A    between atoms: C_29  and  C_30
REMARK                            x       y       z     vdW  Elec       q    Type
REMARK                         _______ _______ _______ _____ _____    ______ ____
ROOT
ATOM      1  C   UNL     1      44.617   5.555  10.967  0.00  0.00    +0.000 A 
ATOM      2  C   UNL     1      44.497   6.946  10.904  0.00  0.00    +0.000 A 
ATOM      3  C   UNL     1      45.237   7.757  11.765  0.00  0.00    +0.000 A 
ATOM      4  C   UNL     1      46.064   7.185  12.742  0.00  0.00    +0.000 A 
ATOM      5  C   UNL     1      46.087   5.790  12.875  0.00  0.00    +0.000 A 
ATOM      6  C   UNL     1      45.378   4.979  11.984  0.00  0.00    +0.000 A 
ENDROOT
BRANCH   1   7
ATOM      7  O   UNL     1      43.978   4.690  10.107  0.00  0.00    +0.000 OA
BRANCH   7  10
ATOM      8  C   UNL     1      46.339   3.026   7.775  0.00  0.00    +0.000 A 
ATOM      9  C   UNL     1      45.652   4.053   8.425  0.00  0.00    +0.000 A 
ATOM     10  C   UNL     1      44.709   3.759   9.406  0.00  0.00    +0.000 A 
ATOM     11  C   UNL     1      44.534   2.426   9.742  0.00  0.00    +0.000 A 
ATOM     12  N   UNL     1      45.176   1.399   9.138  0.00  0.00    +0.000 NA
ATOM     13  C   UNL     1      46.068   1.707   8.158  0.00  0.00    +0.000 A 
ATOM     14  C   UNL     1      46.774   0.548   7.517  0.00  0.00    +0.000 C 
BRANCH   8  16
ATOM     15  C   UNL     1      46.775   2.989   5.459  0.00  0.00    +0.000 C 
ATOM     16  O   UNL     1      47.255   3.242   6.779  0.00  0.00    +0.000 OA
ENDBRANCH   8  16
ENDBRANCH   7  10
ENDBRANCH   1   7
BRANCH   4  17
ATOM     17  C   UNL     1      46.886   8.053  13.656  0.00  0.00    +0.000 C 
BRANCH  17  18
ATOM     18  N   UNL     1      48.148   8.394  13.058  0.00  0.00    +0.000 N 
ATOM     19  C   UNL     1      49.271   7.648  13.307  0.00  0.00    +0.000 C 
ATOM     20  O   UNL     1      49.240   6.642  14.009  0.00  0.00    +0.000 OA
ATOM     21  H   UNL     1      48.243   9.332  12.677  0.00  0.00    +0.000 HD
BRANCH  19  22
ATOM     22  C   UNL     1      50.503   8.076  12.635  0.00  0.00    +0.000 A 
ATOM     23  C   UNL     1      50.698   7.768  11.296  0.00  0.00    +0.000 A 
ATOM     24  S   UNL     1      52.148   8.393  10.654  0.00  0.00    +0.000 S 
ATOM     25  C   UNL     1      52.596   9.041  12.164  0.00  0.00    +0.000 A 
ATOM     26  N   UNL     1      53.769   9.712  12.312  0.00  0.00    +0.000 NA
ATOM     27  C   UNL     1      53.994  10.133  13.513  0.00  0.00    +0.000 A 
ATOM     28  N   UNL     1      53.148   9.951  14.575  0.00  0.00    +0.000 N 
ATOM     29  C   UNL     1      51.936   9.314  14.464  0.00  0.00    +0.000 A 
ATOM     30  O   UNL     1      51.177   9.208  15.426  0.00  0.00    +0.000 OA
ATOM     31  C   UNL     1      51.640   8.808  13.138  0.00  0.00    +0.000 A 
ATOM     32  H   UNL     1      53.378  10.315  15.489  0.00  0.00    +0.000 HD
ENDBRANCH  19  22
ENDBRANCH  17  18
ENDBRANCH   4  17
TORSDOF 6
ENDMDL
MODEL 8
REMARK VINA RESULT:    -6.440      3.569      4.928
REMARK INTER + INTRA:          -9.407
REMARK INTER:                  -8.750
REMARK INTRA:                  -0.658
REMARK UNBOUND:                -0.708
REMARK  Name = 
REMARK  8 active torsions:
REMARK  status: ('A' for Active; 'I' for Inactive)
REMARK    1  A    between atoms: C_1  and  O_2
REMARK    2  A    between atoms: O_2  and  C_3
REMARK    3  A    between atoms: C_5  and  O_6
REMARK    4  A    between atoms: O_6  and  C_7
REMARK    5  A    between atoms: C_10  and  C_11
REMARK    6  A    between atoms: C_11  and  N_12
REMARK    7  A    between atoms: C_13  and  C_15
REMARK    8  A    between atoms: C_29  and  C_30
REMARK                            x       y       z     vdW  Elec       q    Type
REMARK                         _______ _______ _______ _____ _____    ______ ____
ROOT
ATOM      1  C   UNL     1      44.668   5.917  10.992  0.00  0.00    +0.000 A 
ATOM      2  C   UNL     1      44.332   7.250  11.243  0.00  0.00    +0.000 A 
ATOM      3  C   UNL     1      45.106   8.020  12.113  0.00  0.00    +0.000 A 
ATOM      4  C   UNL     1      46.191   7.449  12.790  0.00  0.00    +0.000 A 
ATOM      5  C   UNL     1      46.448   6.081  12.624  0.00  0.00    +0.000 A 
ATOM      6  C   UNL     1      45.699   5.322  11.719  0.00  0.00    +0.000 A 
ENDROOT
BRANCH   1   7
ATOM      7  O   UNL     1      44.000   5.114  10.094  0.00  0.00    +0.000 OA
BRANCH   7  10
ATOM      8  C   UNL     1      46.274   3.123   7.939  0.00  0.00    +0.000 A 
ATOM      9  C   UNL     1      45.661   4.241   8.508  0.00  0.00    +0.000 A 
ATOM     10  C   UNL     1      44.667   4.085   9.471  0.00  0.00    +0.000 A 
ATOM     11  C   UNL     1      44.367   2.793   9.872  0.00  0.00    +0.000 A 
ATOM     12  N   UNL     1      44.935   1.682   9.348  0.00  0.00    +0.000 NA
ATOM     13  C   UNL     1      45.878   1.857   8.383  0.00  0.00    +0.000 A 
ATOM     14  C   UNL     1      46.500   0.607   7.831  0.00  0.00    +0.000 C 
BRANCH   8  16
ATOM     15  C   UNL     1      46.731   3.353   5.638  0.00  0.00    +0.000 C 
ATOM     16  O   UNL     1      47.235   3.203   6.965  0.00  0.00    +0.000 OA
ENDBRANCH   8  16
ENDBRANCH   7  10
ENDBRANCH   1   7
BRANCH   4  17
ATOM     17  C   UNL     1      47.046   8.280  13.709  0.00  0.00    +0.000 C 
BRANCH  17  18
ATOM     18  N   UNL     1      48.285   8.648  13.079  0.00  0.00    +0.000 N 
ATOM     19  C   UNL     1      48.356   9.735  12.247  0.00  0.00    +0.000 C 
ATOM     20  O   UNL     1      47.387  10.460  12.040  0.00  0.00    +0.000 OA
ATOM     21  H   UNL     1      49.017   7.944  13.049  0.00  0.00    +0.000 HD
BRANCH  19  22
ATOM     22  C   UNL     1      49.671  10.029  11.666  0.00  0.00    +0.000 A 
ATOM     23  C   UNL     1      50.045  11.347  11.443  0.00  0.00    +0.000 A 
ATOM     24  S   UNL     1      51.624  11.515  10.825  0.00  0.00    +0.000 S 
ATOM     25  C   UNL     1      51.837   9.827  10.772  0.00  0.00    +0.000 A 
ATOM     26  N   UNL     1      53.000   9.287  10.319  0.00  0.00    +0.000 NA
ATOM     27  C   UNL     1      53.021   7.995  10.313  0.00  0.00    +0.000 A 
ATOM     28  N   UNL     1      51.988   7.196  10.729  0.00  0.00    +0.000 N 
ATOM     29  C   UNL     1      50.811   7.697  11.231  0.00  0.00    +0.000 A 
ATOM     30  O   UNL     1      49.922   6.953  11.641  0.00  0.00    +0.000 OA
ATOM     31  C   UNL     1      50.730   9.144  11.246  0.00  0.00    +0.000 A 
ATOM     32  H   UNL     1      52.072   6.189  10.709  0.00  0.00    +0.000 HD
ENDBRANCH  19  22
ENDBRANCH  17  18
ENDBRANCH   4  17
TORSDOF 6
ENDMDL
MODEL 9
REMARK VINA RESULT:    -6.091      2.450      3.682
REMARK INTER + INTRA:          -8.935
REMARK INTER:                  -9.422
REMARK INTRA:                   0.487
REMARK UNBOUND:                -0.708
REMARK  Name = 
REMARK  8 active torsions:
REMARK  status: ('A' for Active; 'I' for Inactive)
REMARK    1  A    between atoms: C_1  and  O_2
REMARK    2  A    between atoms: O_2  and  C_3
REMARK    3  A    between atoms: C_5  and  O_6
REMARK    4  A    between atoms: O_6  and  C_7
REMARK    5  A    between atoms: C_10  and  C_11
REMARK    6  A    between atoms: C_11  and  N_12
REMARK    7  A    between atoms: C_13  and  C_15
REMARK    8  A    between atoms: C_29  and  C_30
REMARK                            x       y       z     vdW  Elec       q    Type
REMARK                         _______ _______ _______ _____ _____    ______ ____
ROOT
ATOM      1  C   UNL     1      44.839   4.433  10.860  0.00  0.00    +0.000 A 
ATOM      2  C   UNL     1      44.633   4.417  12.242  0.00  0.00    +0.000 A 
ATOM      3  C   UNL     1      44.997   5.517  13.020  0.00  0.00    +0.000 A 
ATOM      4  C   UNL     1      45.628   6.623  12.435  0.00  0.00    +0.000 A 
ATOM      5  C   UNL     1      45.938   6.579  11.068  0.00  0.00    +0.000 A 
ATOM      6  C   UNL     1      45.534   5.496  10.282  0.00  0.00    +0.000 A 
ENDROOT
BRANCH   1   7
ATOM      7  O   UNL     1      44.442   3.421  10.014  0.00  0.00    +0.000 OA
BRANCH   7  10
ATOM      8  C   UNL     1      46.649   1.630   7.627  0.00  0.00    +0.000 A 
ATOM      9  C   UNL     1      45.876   1.865   8.764  0.00  0.00    +0.000 A 
ATOM     10  C   UNL     1      45.226   3.085   8.935  0.00  0.00    +0.000 A 
ATOM     11  C   UNL     1      45.335   4.012   7.911  0.00  0.00    +0.000 A 
ATOM     12  N   UNL     1      46.074   3.827   6.792  0.00  0.00    +0.000 NA
ATOM     13  C   UNL     1      46.728   2.641   6.663  0.00  0.00    +0.000 A 
ATOM     14  C   UNL     1      47.528   2.460   5.405  0.00  0.00    +0.000 C 
BRANCH   8  16
ATOM     15  C   UNL     1      46.544  -0.718   7.442  0.00  0.00    +0.000 C 
ATOM     16  O   UNL     1      47.340   0.466   7.411  0.00  0.00    +0.000 OA
ENDBRANCH   8  16
ENDBRANCH   7  10
ENDBRANCH   1   7
BRANCH   4  17
ATOM     17  C   UNL     1      46.000   7.823  13.263  0.00  0.00    +0.000 C 
BRANCH  17  18
ATOM     18  N   UNL     1      47.165   7.564  14.065  0.00  0.00    +0.000 N 
ATOM     19  C   UNL     1      48.420   7.867  13.603  0.00  0.00    +0.000 C 
ATOM     20  O   UNL     1      48.599   8.408  12.516  0.00  0.00    +0.000 OA
ATOM     21  H   UNL     1      47.058   6.918  14.842  0.00  0.00    +0.000 HD
BRANCH  19  22
ATOM     22  C   UNL     1      49.538   7.573  14.507  0.00  0.00    +0.000 A 
ATOM     23  C   UNL     1      49.300   6.896  15.696  0.00  0.00    +0.000 A 
ATOM     24  S   UNL     1      50.712   6.580  16.596  0.00  0.00    +0.000 S 
ATOM     25  C   UNL     1      51.681   7.395  15.457  0.00  0.00    +0.000 A 
ATOM     26  N   UNL     1      53.025   7.502  15.638  0.00  0.00    +0.000 NA
ATOM     27  C   UNL     1      53.636   8.163  14.711  0.00  0.00    +0.000 A 
ATOM     28  N   UNL     1      53.026   8.716  13.615  0.00  0.00    +0.000 N 
ATOM     29  C   UNL     1      51.679   8.599  13.372  0.00  0.00    +0.000 A 
ATOM     30  O   UNL     1      51.169   9.066  12.354  0.00  0.00    +0.000 OA
ATOM     31  C   UNL     1      50.942   7.879  14.391  0.00  0.00    +0.000 A 
ATOM     32  H   UNL     1      53.564   9.213  12.919  0.00  0.00    +0.000 HD
ENDBRANCH  19  22
ENDBRANCH  17  18
ENDBRANCH   4  17
TORSDOF 6
ENDMDL
