MODEL 1
REMARK VINA RESULT:    -7.629      0.000      0.000
REMARK INTER + INTRA:         -11.866
REMARK INTER:                 -10.974
REMARK INTRA:                  -0.892
REMARK UNBOUND:                -0.892
REMARK  Name = 
REMARK  8 active torsions:
REMARK  status: ('A' for Active; 'I' for Inactive)
REMARK    1  A    between atoms: C_2  and  C_20
REMARK    2  A    between atoms: N_3  and  C_4
REMARK    3  A    between atoms: C_4  and  C_5
REMARK    4  A    between atoms: C_8  and  C_9
REMARK    5  A    between atoms: C_9  and  C_10
REMARK    6  A    between atoms: C_10  and  O_11
REMARK    7  A    between atoms: C_10  and  C_12
REMARK    8  A    between atoms: C_12  and  N_13
REMARK                            x       y       z     vdW  Elec       q    Type
REMARK                         _______ _______ _______ _____ _____    ______ ____
ROOT
ATOM      1  C   UNL     1      48.079   7.080  13.497  0.00  0.00    +0.000 C 
ENDROOT
BRANCH   1   2
ATOM      2  C   UNL     1      46.973   6.406  12.727  0.00  0.00    +0.000 A 
ATOM      3  C   UNL     1      46.784   6.671  11.363  0.00  0.00    +0.000 A 
ATOM      4  C   UNL     1      45.812   5.983  10.625  0.00  0.00    +0.000 A 
ATOM      5  C   UNL     1      44.993   5.027  11.241  0.00  0.00    +0.000 A 
ATOM      6  C   UNL     1      45.149   4.802  12.617  0.00  0.00    +0.000 A 
ATOM      7  C   UNL     1      46.123   5.489  13.353  0.00  0.00    +0.000 A 
BRANCH   5   8
ATOM      8  C   UNL     1      44.013   4.194  10.433  0.00  0.00    +0.000 C 
BRANCH   8   9
ATOM      9  C   UNL     1      44.444   2.713  10.344  0.00  0.00    +0.000 C 
BRANCH   9  10
ATOM     10  O   UNL     1      43.402   1.884  10.880  0.00  0.00    +0.000 OA
ATOM     11  H   UNL     1      43.026   1.370  10.148  0.00  0.00    +0.000 HD
ENDBRANCH   9  10
BRANCH   9  12
ATOM     12  C   UNL     1      44.778   2.267   8.883  0.00  0.00    +0.000 C 
BRANCH  12  13
ATOM     13  N   UNL     1      46.201   2.444   8.518  0.00  0.00    +0.000 NA
ATOM     14  C   UNL     1      46.461   3.621   7.682  0.00  0.00    +0.000 C 
ATOM     15  C   UNL     1      46.355   3.129   6.252  0.00  0.00    +0.000 C 
ATOM     16  C   UNL     1      46.927   1.728   6.320  0.00  0.00    +0.000 C 
ATOM     17  C   UNL     1      46.764   1.302   7.777  0.00  0.00    +0.000 C 
ENDBRANCH  12  13
ENDBRANCH   9  12
ENDBRANCH   8   9
ENDBRANCH   5   8
ENDBRANCH   1   2
BRANCH   1  20
ATOM     18  O   UNL     1      50.154   6.671  15.283  0.00  0.00    +0.000 OA
ATOM     19  C   UNL     1      49.024   6.816  15.731  0.00  0.00    +0.000 C 
ATOM     20  N   UNL     1      47.922   6.939  14.922  0.00  0.00    +0.000 N 
ATOM     21  H   UNL     1      47.042   7.260  15.316  0.00  0.00    +0.000 HD
BRANCH  19  22
ATOM     22  C   UNL     1      48.780   6.841  17.181  0.00  0.00    +0.000 A 
ATOM     23  C   UNL     1      48.386   8.018  17.801  0.00  0.00    +0.000 A 
ATOM     24  S   UNL     1      48.114   7.848  19.477  0.00  0.00    +0.000 S 
ATOM     25  C   UNL     1      48.474   6.186  19.421  0.00  0.00    +0.000 A 
ATOM     26  N   UNL     1      48.377   5.409  20.534  0.00  0.00    +0.000 NA
ATOM     27  C   UNL     1      48.647   4.163  20.338  0.00  0.00    +0.000 A 
ATOM     28  N   UNL     1      49.024   3.623  19.133  0.00  0.00    +0.000 N 
ATOM     29  C   UNL     1      49.177   4.376  17.996  0.00  0.00    +0.000 A 
ATOM     30  O   UNL     1      49.588   3.874  16.956  0.00  0.00    +0.000 OA
ATOM     31  C   UNL     1      48.841   5.777  18.152  0.00  0.00    +0.000 A 
ATOM     32  H   UNL     1      49.249   2.644  19.053  0.00  0.00    +0.000 HD
ENDBRANCH  19  22
ENDBRANCH   1  20
TORSDOF 8
ENDMDL
MODEL 2
REMARK VINA RESULT:    -7.561      2.433      3.251
REMARK INTER + INTRA:         -11.768
REMARK INTER:                 -10.836
REMARK INTRA:                  -0.933
REMARK UNBOUND:                -0.892
REMARK  Name = 
REMARK  8 active torsions:
REMARK  status: ('A' for Active; 'I' for Inactive)
REMARK    1  A    between atoms: C_2  and  C_20
REMARK    2  A    between atoms: N_3  and  C_4
REMARK    3  A    between atoms: C_4  and  C_5
REMARK    4  A    between atoms: C_8  and  C_9
REMARK    5  A    between atoms: C_9  and  C_10
REMARK    6  A    between atoms: C_10  and  O_11
REMARK    7  A    between atoms: C_10  and  C_12
REMARK    8  A    between atoms: C_12  and  N_13
REMARK                            x       y       z     vdW  Elec       q    Type
REMARK                         _______ _______ _______ _____ _____    ______ ____
ROOT
ATOM      1  C   UNL     1      46.750   4.382  15.643  0.00  0.00    +0.000 C 
ENDROOT
BRANCH   1   2
ATOM      2  C   UNL     1      46.522   4.663  14.180  0.00  0.00    +0.000 A 
ATOM      3  C   UNL     1      45.804   3.763  13.379  0.00  0.00    +0.000 A 
ATOM      4  C   UNL     1      45.518   4.063  12.041  0.00  0.00    +0.000 A 
ATOM      5  C   UNL     1      45.961   5.262  11.468  0.00  0.00    +0.000 A 
ATOM      6  C   UNL     1      46.723   6.136  12.257  0.00  0.00    +0.000 A 
ATOM      7  C   UNL     1      47.007   5.838  13.595  0.00  0.00    +0.000 A 
BRANCH   5   8
ATOM      8  C   UNL     1      45.563   5.651  10.054  0.00  0.00    +0.000 C 
BRANCH   8   9
ATOM      9  C   UNL     1      45.249   4.418   9.179  0.00  0.00    +0.000 C 
BRANCH   9  10
ATOM     10  O   UNL     1      43.887   4.491   8.731  0.00  0.00    +0.000 OA
ATOM     11  H   UNL     1      43.557   3.584   8.633  0.00  0.00    +0.000 HD
ENDBRANCH   9  10
BRANCH   9  12
ATOM     12  C   UNL     1      46.205   4.288   7.949  0.00  0.00    +0.000 C 
BRANCH  12  13
ATOM     13  N   UNL     1      45.915   3.117   7.092  0.00  0.00    +0.000 NA
ATOM     14  C   UNL     1      46.275   1.830   7.700  0.00  0.00    +0.000 C 
ATOM     15  C   UNL     1      47.699   1.561   7.256  0.00  0.00    +0.000 C 
ATOM     16  C   UNL     1      47.739   2.118   5.848  0.00  0.00    +0.000 C 
ATOM     17  C   UNL     1      46.614   3.149   5.796  0.00  0.00    +0.000 C 
ENDBRANCH  12  13
ENDBRANCH   9  12
ENDBRANCH   8   9
ENDBRANCH   5   8
ENDBRANCH   1   2
BRANCH   1  20
ATOM     18  O   UNL     1      47.737   4.845  18.187  0.00  0.00    +0.000 OA
ATOM     19  C   UNL     1      48.531   4.553  17.301  0.00  0.00    +0.000 C 
ATOM     20  N   UNL     1      48.146   4.389  15.994  0.00  0.00    +0.000 N 
ATOM     21  H   UNL     1      48.783   3.953  15.333  0.00  0.00    +0.000 HD
BRANCH  19  22
ATOM     22  C   UNL     1      49.963   4.385  17.591  0.00  0.00    +0.000 A 
ATOM     23  C   UNL     1      50.703   5.450  18.085  0.00  0.00    +0.000 A 
ATOM     24  S   UNL     1      52.335   5.059  18.396  0.00  0.00    +0.000 S 
ATOM     25  C   UNL     1      52.095   3.443  17.921  0.00  0.00    +0.000 A 
ATOM     26  N   UNL     1      53.102   2.532  17.998  0.00  0.00    +0.000 NA
ATOM     27  C   UNL     1      52.769   1.339  17.637  0.00  0.00    +0.000 A 
ATOM     28  N   UNL     1      51.524   0.975  17.187  0.00  0.00    +0.000 N 
ATOM     29  C   UNL     1      50.491   1.870  17.051  0.00  0.00    +0.000 A 
ATOM     30  O   UNL     1      49.416   1.527  16.574  0.00  0.00    +0.000 OA
ATOM     31  C   UNL     1      50.801   3.217  17.487  0.00  0.00    +0.000 A 
ATOM     32  H   UNL     1      51.336   0.031  16.893  0.00  0.00    +0.000 HD
ENDBRANCH  19  22
ENDBRANCH   1  20
TORSDOF 8
ENDMDL
MODEL 3
REMARK VINA RESULT:    -7.413      1.339      2.014
REMARK INTER + INTRA:         -11.555
REMARK INTER:                 -10.668
REMARK INTRA:                  -0.888
REMARK UNBOUND:                -0.892
REMARK  Name = 
REMARK  8 active torsions:
REMARK  status: ('A' for Active; 'I' for Inactive)
REMARK    1  A    between atoms: C_2  and  C_20
REMARK    2  A    between atoms: N_3  and  C_4
REMARK    3  A    between atoms: C_4  and  C_5
REMARK    4  A    between atoms: C_8  and  C_9
REMARK    5  A    between atoms: C_9  and  C_10
REMARK    6  A    between atoms: C_10  and  O_11
REMARK    7  A    between atoms: C_10  and  C_12
REMARK    8  A    between atoms: C_12  and  N_13
REMARK                            x       y       z     vdW  Elec       q    Type
REMARK                         _______ _______ _______ _____ _____    ______ ____
ROOT
ATOM      1  C   UNL     1      47.930   6.944  13.804  0.00  0.00    +0.000 C 
ENDROOT
BRANCH   1   2
ATOM      2  C   UNL     1      46.888   6.329  12.904  0.00  0.00    +0.000 A 
ATOM      3  C   UNL     1      46.815   6.679  11.548  0.00  0.00    +0.000 A 
ATOM      4  C   UNL     1      45.905   6.045  10.691  0.00  0.00    +0.000 A 
ATOM      5  C   UNL     1      45.033   5.062  11.178  0.00  0.00    +0.000 A 
ATOM      6  C   UNL     1      45.073   4.752  12.545  0.00  0.00    +0.000 A 
ATOM      7  C   UNL     1      45.985   5.383  13.401  0.00  0.00    +0.000 A 
BRANCH   5   8
ATOM      8  C   UNL     1      44.120   4.289  10.241  0.00  0.00    +0.000 C 
BRANCH   8   9
ATOM      9  C   UNL     1      44.623   2.850   9.996  0.00  0.00    +0.000 C 
BRANCH   9  10
ATOM     10  O   UNL     1      43.629   1.918  10.448  0.00  0.00    +0.000 OA
ATOM     11  H   UNL     1      42.824   2.066   9.928  0.00  0.00    +0.000 HD
ENDBRANCH   9  10
BRANCH   9  12
ATOM     12  C   UNL     1      44.962   2.575   8.495  0.00  0.00    +0.000 C 
BRANCH  12  13
ATOM     13  N   UNL     1      46.408   2.653   8.189  0.00  0.00    +0.000 NA
ATOM     14  C   UNL     1      46.764   3.737   7.265  0.00  0.00    +0.000 C 
ATOM     15  C   UNL     1      46.701   3.122   5.881  0.00  0.00    +0.000 C 
ATOM     16  C   UNL     1      47.199   1.709   6.102  0.00  0.00    +0.000 C 
ATOM     17  C   UNL     1      46.948   1.425   7.581  0.00  0.00    +0.000 C 
ENDBRANCH  12  13
ENDBRANCH   9  12
ENDBRANCH   8   9
ENDBRANCH   5   8
ENDBRANCH   1   2
BRANCH   1  20
ATOM     18  O   UNL     1      50.102   6.553  15.474  0.00  0.00    +0.000 OA
ATOM     19  C   UNL     1      48.981   6.365  15.929  0.00  0.00    +0.000 C 
ATOM     20  N   UNL     1      47.850   6.451  15.155  0.00  0.00    +0.000 N 
ATOM     21  H   UNL     1      46.938   6.491  15.600  0.00  0.00    +0.000 HD
BRANCH  19  22
ATOM     22  C   UNL     1      48.784   6.007  17.341  0.00  0.00    +0.000 A 
ATOM     23  C   UNL     1      49.098   4.731  17.786  0.00  0.00    +0.000 A 
ATOM     24  S   UNL     1      48.841   4.510  19.459  0.00  0.00    +0.000 S 
ATOM     25  C   UNL     1      48.343   6.126  19.650  0.00  0.00    +0.000 A 
ATOM     26  N   UNL     1      48.023   6.621  20.876  0.00  0.00    +0.000 NA
ATOM     27  C   UNL     1      47.696   7.869  20.877  0.00  0.00    +0.000 A 
ATOM     28  N   UNL     1      47.639   8.665  19.760  0.00  0.00    +0.000 N 
ATOM     29  C   UNL     1      47.910   8.196  18.498  0.00  0.00    +0.000 A 
ATOM     30  O   UNL     1      47.776   8.915  17.515  0.00  0.00    +0.000 OA
ATOM     31  C   UNL     1      48.328   6.810  18.448  0.00  0.00    +0.000 A 
ATOM     32  H   UNL     1      47.348   9.627  19.825  0.00  0.00    +0.000 HD
ENDBRANCH  19  22
ENDBRANCH   1  20
TORSDOF 8
ENDMDL
MODEL 4
REMARK VINA RESULT:    -7.304      2.035      2.691
REMARK INTER + INTRA:         -11.399
REMARK INTER:                 -10.067
REMARK INTRA:                  -1.332
REMARK UNBOUND:                -0.892
REMARK  Name = 
REMARK  8 active torsions:
REMARK  status: ('A' for Active; 'I' for Inactive)
REMARK    1  A    between atoms: C_2  and  C_20
REMARK    2  A    between atoms: N_3  and  C_4
REMARK    3  A    between atoms: C_4  and  C_5
REMARK    4  A    between atoms: C_8  and  C_9
REMARK    5  A    between atoms: C_9  and  C_10
REMARK    6  A    between atoms: C_10  and  O_11
REMARK    7  A    between atoms: C_10  and  C_12
REMARK    8  A    between atoms: C_12  and  N_13
REMARK                            x       y       z     vdW  Elec       q    Type
REMARK                         _______ _______ _______ _____ _____    ______ ____
ROOT
ATOM      1  C   UNL     1      49.339   8.168  13.783  0.00  0.00    +0.000 C 
ENDROOT
BRANCH   1   2
ATOM      2  C   UNL     1      48.020   7.989  13.077  0.00  0.00    +0.000 A 
ATOM      3  C   UNL     1      47.856   6.992  12.104  0.00  0.00    +0.000 A 
ATOM      4  C   UNL     1      46.608   6.768  11.508  0.00  0.00    +0.000 A 
ATOM      5  C   UNL     1      45.499   7.551  11.859  0.00  0.00    +0.000 A 
ATOM      6  C   UNL     1      45.679   8.581  12.793  0.00  0.00    +0.000 A 
ATOM      7  C   UNL     1      46.926   8.803  13.390  0.00  0.00    +0.000 A 
BRANCH   5   8
ATOM      8  C   UNL     1      44.117   7.247  11.305  0.00  0.00    +0.000 C 
BRANCH   8   9
ATOM      9  C   UNL     1      43.646   5.823  11.670  0.00  0.00    +0.000 C 
BRANCH   9  10
ATOM     10  O   UNL     1      42.346   5.895  12.276  0.00  0.00    +0.000 OA
ATOM     11  H   UNL     1      42.467   5.895  13.238  0.00  0.00    +0.000 HD
ENDBRANCH   9  10
BRANCH   9  12
ATOM     12  C   UNL     1      43.601   4.865  10.434  0.00  0.00    +0.000 C 
BRANCH  12  13
ATOM     13  N   UNL     1      44.883   4.175  10.171  0.00  0.00    +0.000 NA
ATOM     14  C   UNL     1      45.439   4.437   8.838  0.00  0.00    +0.000 C 
ATOM     15  C   UNL     1      44.887   3.341   7.949  0.00  0.00    +0.000 C 
ATOM     16  C   UNL     1      44.848   2.134   8.865  0.00  0.00    +0.000 C 
ATOM     17  C   UNL     1      44.794   2.708  10.278  0.00  0.00    +0.000 C 
ENDBRANCH  12  13
ENDBRANCH   9  12
ENDBRANCH   8   9
ENDBRANCH   5   8
ENDBRANCH   1   2
BRANCH   1  20
ATOM     18  O   UNL     1      48.745   8.635  16.446  0.00  0.00    +0.000 OA
ATOM     19  C   UNL     1      49.128   7.517  16.125  0.00  0.00    +0.000 C 
ATOM     20  N   UNL     1      49.527   7.215  14.847  0.00  0.00    +0.000 N 
ATOM     21  H   UNL     1      49.641   6.243  14.572  0.00  0.00    +0.000 HD
BRANCH  19  22
ATOM     22  C   UNL     1      49.208   6.430  17.112  0.00  0.00    +0.000 A 
ATOM     23  C   UNL     1      49.941   6.600  18.278  0.00  0.00    +0.000 A 
ATOM     24  S   UNL     1      49.888   5.249  19.319  0.00  0.00    +0.000 S 
ATOM     25  C   UNL     1      48.848   4.409  18.265  0.00  0.00    +0.000 A 
ATOM     26  N   UNL     1      48.364   3.180  18.589  0.00  0.00    +0.000 NA
ATOM     27  C   UNL     1      47.562   2.676  17.713  0.00  0.00    +0.000 A 
ATOM     28  N   UNL     1      47.214   3.281  16.530  0.00  0.00    +0.000 N 
ATOM     29  C   UNL     1      47.713   4.500  16.143  0.00  0.00    +0.000 A 
ATOM     30  O   UNL     1      47.440   4.976  15.047  0.00  0.00    +0.000 OA
ATOM     31  C   UNL     1      48.584   5.130  17.114  0.00  0.00    +0.000 A 
ATOM     32  H   UNL     1      46.604   2.821  15.875  0.00  0.00    +0.000 HD
ENDBRANCH  19  22
ENDBRANCH   1  20
TORSDOF 8
ENDMDL
MODEL 5
REMARK VINA RESULT:    -7.059      2.018      2.566
REMARK INTER + INTRA:         -11.046
REMARK INTER:                 -10.079
REMARK INTRA:                  -0.967
REMARK UNBOUND:                -0.892
REMARK  Name = 
REMARK  8 active torsions:
REMARK  status: ('A' for Active; 'I' for Inactive)
REMARK    1  A    between atoms: C_2  and  C_20
REMARK    2  A    between atoms: N_3  and  C_4
REMARK    3  A    between atoms: C_4  and  C_5
REMARK    4  A    between atoms: C_8  and  C_9
REMARK    5  A    between atoms: C_9  and  C_10
REMARK    6  A    between atoms: C_10  and  O_11
REMARK    7  A    between atoms: C_10  and  C_12
REMARK    8  A    between atoms: C_12  and  N_13
REMARK                            x       y       z     vdW  Elec       q    Type
REMARK                         _______ _______ _______ _____ _____    ______ ____
ROOT
ATOM      1  C   UNL     1      47.190   4.122  15.470  0.00  0.00    +0.000 C 
ENDROOT
BRANCH   1   2
ATOM      2  C   UNL     1      46.668   4.561  14.126  0.00  0.00    +0.000 A 
ATOM      3  C   UNL     1      46.986   5.826  13.611  0.00  0.00    +0.000 A 
ATOM      4  C   UNL     1      46.574   6.204  12.326  0.00  0.00    +0.000 A 
ATOM      5  C   UNL     1      45.816   5.330  11.535  0.00  0.00    +0.000 A 
ATOM      6  C   UNL     1      45.456   4.086  12.073  0.00  0.00    +0.000 A 
ATOM      7  C   UNL     1      45.870   3.708  13.356  0.00  0.00    +0.000 A 
BRANCH   5   8
ATOM      8  C   UNL     1      45.458   5.680  10.101  0.00  0.00    +0.000 C 
BRANCH   8   9
ATOM      9  C   UNL     1      45.164   4.423   9.252  0.00  0.00    +0.000 C 
BRANCH   9  10
ATOM     10  O   UNL     1      43.831   4.509   8.726  0.00  0.00    +0.000 OA
ATOM     11  H   UNL     1      43.766   3.894   7.979  0.00  0.00    +0.000 HD
ENDBRANCH   9  10
BRANCH   9  12
ATOM     12  C   UNL     1      46.183   4.232   8.082  0.00  0.00    +0.000 C 
BRANCH  12  13
ATOM     13  N   UNL     1      45.893   3.058   7.228  0.00  0.00    +0.000 NA
ATOM     14  C   UNL     1      46.364   1.784   7.785  0.00  0.00    +0.000 C 
ATOM     15  C   UNL     1      47.763   1.598   7.234  0.00  0.00    +0.000 C 
ATOM     16  C   UNL     1      47.670   2.176   5.837  0.00  0.00    +0.000 C 
ATOM     17  C   UNL     1      46.491   3.145   5.885  0.00  0.00    +0.000 C 
ENDBRANCH  12  13
ENDBRANCH   9  12
ENDBRANCH   8   9
ENDBRANCH   5   8
ENDBRANCH   1   2
BRANCH   1  20
ATOM     18  O   UNL     1      46.771   4.738  18.136  0.00  0.00    +0.000 OA
ATOM     19  C   UNL     1      47.627   5.365  17.524  0.00  0.00    +0.000 C 
ATOM     20  N   UNL     1      47.847   5.189  16.180  0.00  0.00    +0.000 N 
ATOM     21  H   UNL     1      48.688   5.568  15.754  0.00  0.00    +0.000 HD
BRANCH  19  22
ATOM     22  C   UNL     1      48.459   6.371  18.200  0.00  0.00    +0.000 A 
ATOM     23  C   UNL     1      47.863   7.412  18.897  0.00  0.00    +0.000 A 
ATOM     24  S   UNL     1      48.984   8.459  19.647  0.00  0.00    +0.000 S 
ATOM     25  C   UNL     1      50.300   7.530  19.098  0.00  0.00    +0.000 A 
ATOM     26  N   UNL     1      51.577   7.853  19.440  0.00  0.00    +0.000 NA
ATOM     27  C   UNL     1      52.471   7.043  18.982  0.00  0.00    +0.000 A 
ATOM     28  N   UNL     1      52.207   5.948  18.196  0.00  0.00    +0.000 N 
ATOM     29  C   UNL     1      50.940   5.612  17.790  0.00  0.00    +0.000 A 
ATOM     30  O   UNL     1      50.749   4.672  17.026  0.00  0.00    +0.000 OA
ATOM     31  C   UNL     1      49.893   6.464  18.316  0.00  0.00    +0.000 A 
ATOM     32  H   UNL     1      52.955   5.371  17.846  0.00  0.00    +0.000 HD
ENDBRANCH  19  22
ENDBRANCH   1  20
TORSDOF 8
ENDMDL
MODEL 6
REMARK VINA RESULT:    -6.898      2.055      2.885
REMARK INTER + INTRA:         -10.814
REMARK INTER:                  -9.838
REMARK INTRA:                  -0.976
REMARK UNBOUND:                -0.892
REMARK  Name = 
REMARK  8 active torsions:
REMARK  status: ('A' for Active; 'I' for Inactive)
REMARK    1  A    between atoms: C_2  and  C_20
REMARK    2  A    between atoms: N_3  and  C_4
REMARK    3  A    between atoms: C_4  and  C_5
REMARK    4  A    between atoms: C_8  and  C_9
REMARK    5  A    between atoms: C_9  and  C_10
REMARK    6  A    between atoms: C_10  and  O_11
REMARK    7  A    between atoms: C_10  and  C_12
REMARK    8  A    between atoms: C_12  and  N_13
REMARK                            x       y       z     vdW  Elec       q    Type
REMARK                         _______ _______ _______ _____ _____    ______ ____
ROOT
ATOM      1  C   UNL     1      47.244   4.328  15.658  0.00  0.00    +0.000 C 
ENDROOT
BRANCH   1   2
ATOM      2  C   UNL     1      46.817   4.625  14.243  0.00  0.00    +0.000 A 
ATOM      3  C   UNL     1      46.128   3.666  13.485  0.00  0.00    +0.000 A 
ATOM      4  C   UNL     1      45.655   3.970  12.201  0.00  0.00    +0.000 A 
ATOM      5  C   UNL     1      45.877   5.234  11.640  0.00  0.00    +0.000 A 
ATOM      6  C   UNL     1      46.612   6.173  12.380  0.00  0.00    +0.000 A 
ATOM      7  C   UNL     1      47.082   5.870  13.663  0.00  0.00    +0.000 A 
BRANCH   5   8
ATOM      8  C   UNL     1      45.275   5.614  10.298  0.00  0.00    +0.000 C 
BRANCH   8   9
ATOM      9  C   UNL     1      45.018   4.379   9.406  0.00  0.00    +0.000 C 
BRANCH   9  10
ATOM     10  O   UNL     1      43.757   4.534   8.737  0.00  0.00    +0.000 OA
ATOM     11  H   UNL     1      43.937   4.826   7.829  0.00  0.00    +0.000 HD
ENDBRANCH   9  10
BRANCH   9  12
ATOM     12  C   UNL     1      46.151   4.146   8.355  0.00  0.00    +0.000 C 
BRANCH  12  13
ATOM     13  N   UNL     1      45.859   3.053   7.400  0.00  0.00    +0.000 NA
ATOM     14  C   UNL     1      46.364   1.741   7.823  0.00  0.00    +0.000 C 
ATOM     15  C   UNL     1      47.752   1.634   7.224  0.00  0.00    +0.000 C 
ATOM     16  C   UNL     1      47.615   2.339   5.890  0.00  0.00    +0.000 C 
ATOM     17  C   UNL     1      46.422   3.278   6.058  0.00  0.00    +0.000 C 
ENDBRANCH  12  13
ENDBRANCH   9  12
ENDBRANCH   8   9
ENDBRANCH   5   8
ENDBRANCH   1   2
BRANCH   1  20
ATOM     18  O   UNL     1      49.738   4.575  16.833  0.00  0.00    +0.000 OA
ATOM     19  C   UNL     1      48.999   5.552  16.830  0.00  0.00    +0.000 C 
ATOM     20  N   UNL     1      47.715   5.502  16.347  0.00  0.00    +0.000 N 
ATOM     21  H   UNL     1      47.208   6.365  16.173  0.00  0.00    +0.000 HD
BRANCH  19  22
ATOM     22  C   UNL     1      49.446   6.843  17.374  0.00  0.00    +0.000 A 
ATOM     23  C   UNL     1      50.518   7.508  16.798  0.00  0.00    +0.000 A 
ATOM     24  S   UNL     1      50.869   9.006  17.538  0.00  0.00    +0.000 S 
ATOM     25  C   UNL     1      49.571   8.833  18.626  0.00  0.00    +0.000 A 
ATOM     26  N   UNL     1      49.272   9.812  19.521  0.00  0.00    +0.000 NA
ATOM     27  C   UNL     1      48.244   9.561  20.260  0.00  0.00    +0.000 A 
ATOM     28  N   UNL     1      47.498   8.411  20.199  0.00  0.00    +0.000 N 
ATOM     29  C   UNL     1      47.791   7.378  19.342  0.00  0.00    +0.000 A 
ATOM     30  O   UNL     1      47.149   6.335  19.367  0.00  0.00    +0.000 OA
ATOM     31  C   UNL     1      48.910   7.630  18.457  0.00  0.00    +0.000 A 
ATOM     32  H   UNL     1      46.722   8.264  20.824  0.00  0.00    +0.000 HD
ENDBRANCH  19  22
ENDBRANCH   1  20
TORSDOF 8
ENDMDL
MODEL 7
REMARK VINA RESULT:    -6.418      1.917      3.072
REMARK INTER + INTRA:         -10.124
REMARK INTER:                  -9.116
REMARK INTRA:                  -1.008
REMARK UNBOUND:                -0.892
REMARK  Name = 
REMARK  8 active torsions:
REMARK  status: ('A' for Active; 'I' for Inactive)
REMARK    1  A    between atoms: C_2  and  C_20
REMARK    2  A    between atoms: N_3  and  C_4
REMARK    3  A    between atoms: C_4  and  C_5
REMARK    4  A    between atoms: C_8  and  C_9
REMARK    5  A    between atoms: C_9  and  C_10
REMARK    6  A    between atoms: C_10  and  O_11
REMARK    7  A    between atoms: C_10  and  C_12
REMARK    8  A    between atoms: C_12  and  N_13
REMARK                            x       y       z     vdW  Elec       q    Type
REMARK                         _______ _______ _______ _____ _____    ______ ____
ROOT
ATOM      1  C   UNL     1      47.575   4.113  15.840  0.00  0.00    +0.000 C 
ENDROOT
BRANCH   1   2
ATOM      2  C   UNL     1      47.111   4.470  14.451  0.00  0.00    +0.000 A 
ATOM      3  C   UNL     1      46.381   3.553  13.681  0.00  0.00    +0.000 A 
ATOM      4  C   UNL     1      45.874   3.913  12.424  0.00  0.00    +0.000 A 
ATOM      5  C   UNL     1      46.104   5.194  11.903  0.00  0.00    +0.000 A 
ATOM      6  C   UNL     1      46.879   6.090  12.654  0.00  0.00    +0.000 A 
ATOM      7  C   UNL     1      47.382   5.731  13.910  0.00  0.00    +0.000 A 
BRANCH   5   8
ATOM      8  C   UNL     1      45.468   5.634  10.595  0.00  0.00    +0.000 C 
BRANCH   8   9
ATOM      9  C   UNL     1      44.393   4.639  10.108  0.00  0.00    +0.000 C 
BRANCH   9  10
ATOM     10  O   UNL     1      43.109   5.281  10.129  0.00  0.00    +0.000 OA
ATOM     11  H   UNL     1      43.120   5.942  10.839  0.00  0.00    +0.000 HD
ENDBRANCH   9  10
BRANCH   9  12
ATOM     12  C   UNL     1      44.685   4.087   8.674  0.00  0.00    +0.000 C 
BRANCH  12  13
ATOM     13  N   UNL     1      46.047   3.530   8.518  0.00  0.00    +0.000 NA
ATOM     14  C   UNL     1      46.794   4.088   7.385  0.00  0.00    +0.000 C 
ATOM     15  C   UNL     1      46.493   3.173   6.215  0.00  0.00    +0.000 C 
ATOM     16  C   UNL     1      46.404   1.803   6.856  0.00  0.00    +0.000 C 
ATOM     17  C   UNL     1      46.066   2.070   8.321  0.00  0.00    +0.000 C 
ENDBRANCH  12  13
ENDBRANCH   9  12
ENDBRANCH   8   9
ENDBRANCH   5   8
ENDBRANCH   1   2
BRANCH   1  20
ATOM     18  O   UNL     1      48.424   4.080  18.474  0.00  0.00    +0.000 OA
ATOM     19  C   UNL     1      47.921   5.109  18.040  0.00  0.00    +0.000 C 
ATOM     20  N   UNL     1      47.395   5.193  16.775  0.00  0.00    +0.000 N 
ATOM     21  H   UNL     1      47.176   6.104  16.381  0.00  0.00    +0.000 HD
BRANCH  19  22
ATOM     22  C   UNL     1      47.830   6.319  18.871  0.00  0.00    +0.000 A 
ATOM     23  C   UNL     1      47.380   6.231  20.181  0.00  0.00    +0.000 A 
ATOM     24  S   UNL     1      47.378   7.728  21.002  0.00  0.00    +0.000 S 
ATOM     25  C   UNL     1      48.018   8.533  19.646  0.00  0.00    +0.000 A 
ATOM     26  N   UNL     1      48.315   9.860  19.694  0.00  0.00    +0.000 NA
ATOM     27  C   UNL     1      48.825  10.331  18.607  0.00  0.00    +0.000 A 
ATOM     28  N   UNL     1      49.047   9.601  17.465  0.00  0.00    +0.000 N 
ATOM     29  C   UNL     1      48.720   8.271  17.357  0.00  0.00    +0.000 A 
ATOM     30  O   UNL     1      48.862   7.670  16.299  0.00  0.00    +0.000 OA
ATOM     31  C   UNL     1      48.187   7.682  18.569  0.00  0.00    +0.000 A 
ATOM     32  H   UNL     1      49.422  10.036  16.638  0.00  0.00    +0.000 HD
ENDBRANCH  19  22
ENDBRANCH   1  20
TORSDOF 8
ENDMDL
MODEL 8
REMARK VINA RESULT:    -6.353      3.493      9.825
REMARK INTER + INTRA:         -10.030
REMARK INTER:                  -9.123
REMARK INTRA:                  -0.907
REMARK UNBOUND:                -0.892
REMARK  Name = 
REMARK  8 active torsions:
REMARK  status: ('A' for Active; 'I' for Inactive)
REMARK    1  A    between atoms: C_2  and  C_20
REMARK    2  A    between atoms: N_3  and  C_4
REMARK    3  A    between atoms: C_4  and  C_5
REMARK    4  A    between atoms: C_8  and  C_9
REMARK    5  A    between atoms: C_9  and  C_10
REMARK    6  A    between atoms: C_10  and  O_11
REMARK    7  A    between atoms: C_10  and  C_12
REMARK    8  A    between atoms: C_12  and  N_13
REMARK                            x       y       z     vdW  Elec       q    Type
REMARK                         _______ _______ _______ _____ _____    ______ ____
ROOT
ATOM      1  C   UNL     1      43.864   3.421  11.821  0.00  0.00    +0.000 C 
ENDROOT
BRANCH   1   2
ATOM      2  C   UNL     1      44.773   4.488  12.377  0.00  0.00    +0.000 A 
ATOM      3  C   UNL     1      45.824   4.154  13.243  0.00  0.00    +0.000 A 
ATOM      4  C   UNL     1      46.722   5.132  13.693  0.00  0.00    +0.000 A 
ATOM      5  C   UNL     1      46.576   6.469  13.300  0.00  0.00    +0.000 A 
ATOM      6  C   UNL     1      45.493   6.807  12.476  0.00  0.00    +0.000 A 
ATOM      7  C   UNL     1      44.597   5.830  12.025  0.00  0.00    +0.000 A 
BRANCH   5   8
ATOM      8  C   UNL     1      47.604   7.518  13.688  0.00  0.00    +0.000 C 
BRANCH   8   9
ATOM      9  C   UNL     1      48.998   6.901  13.936  0.00  0.00    +0.000 C 
BRANCH   9  10
ATOM     10  O   UNL     1      49.691   6.780  12.685  0.00  0.00    +0.000 OA
ATOM     11  H   UNL     1      50.521   6.305  12.849  0.00  0.00    +0.000 HD
ENDBRANCH   9  10
BRANCH   9  12
ATOM     12  C   UNL     1      49.859   7.735  14.940  0.00  0.00    +0.000 C 
BRANCH  12  13
ATOM     13  N   UNL     1      50.336   6.956  16.104  0.00  0.00    +0.000 NA
ATOM     14  C   UNL     1      49.360   5.984  16.611  0.00  0.00    +0.000 C 
ATOM     15  C   UNL     1      48.570   6.723  17.672  0.00  0.00    +0.000 C 
ATOM     16  C   UNL     1      49.606   7.622  18.316  0.00  0.00    +0.000 C 
ATOM     17  C   UNL     1      50.697   7.790  17.262  0.00  0.00    +0.000 C 
ENDBRANCH  12  13
ENDBRANCH   9  12
ENDBRANCH   8   9
ENDBRANCH   5   8
ENDBRANCH   1   2
BRANCH   1  20
ATOM     18  O   UNL     1      44.030   3.923   9.104  0.00  0.00    +0.000 OA
ATOM     19  C   UNL     1      44.624   2.950   9.551  0.00  0.00    +0.000 C 
ATOM     20  N   UNL     1      44.532   2.573  10.867  0.00  0.00    +0.000 N 
ATOM     21  H   UNL     1      45.188   1.895  11.244  0.00  0.00    +0.000 HD
BRANCH  19  22
ATOM     22  C   UNL     1      45.459   2.106   8.683  0.00  0.00    +0.000 A 
ATOM     23  C   UNL     1      45.360   0.724   8.751  0.00  0.00    +0.000 A 
ATOM     24  S   UNL     1      46.376  -0.087   7.645  0.00  0.00    +0.000 S 
ATOM     25  C   UNL     1      46.950   1.384   7.011  0.00  0.00    +0.000 A 
ATOM     26  N   UNL     1      47.829   1.405   5.972  0.00  0.00    +0.000 NA
ATOM     27  C   UNL     1      48.152   2.588   5.573  0.00  0.00    +0.000 A 
ATOM     28  N   UNL     1      47.692   3.756   6.129  0.00  0.00    +0.000 N 
ATOM     29  C   UNL     1      46.840   3.782   7.206  0.00  0.00    +0.000 A 
ATOM     30  O   UNL     1      46.509   4.842   7.725  0.00  0.00    +0.000 OA
ATOM     31  C   UNL     1      46.410   2.477   7.664  0.00  0.00    +0.000 A 
ATOM     32  H   UNL     1      48.005   4.650   5.788  0.00  0.00    +0.000 HD
ENDBRANCH  19  22
ENDBRANCH   1  20
TORSDOF 8
ENDMDL
MODEL 9
REMARK VINA RESULT:    -5.807      4.701      9.422
REMARK INTER + INTRA:          -9.245
REMARK INTER:                  -8.212
REMARK INTRA:                  -1.034
REMARK UNBOUND:                -0.892
REMARK  Name = 
REMARK  8 active torsions:
REMARK  status: ('A' for Active; 'I' for Inactive)
REMARK    1  A    between atoms: C_2  and  C_20
REMARK    2  A    between atoms: N_3  and  C_4
REMARK    3  A    between atoms: C_4  and  C_5
REMARK    4  A    between atoms: C_8  and  C_9
REMARK    5  A    between atoms: C_9  and  C_10
REMARK    6  A    between atoms: C_10  and  O_11
REMARK    7  A    between atoms: C_10  and  C_12
REMARK    8  A    between atoms: C_12  and  N_13
REMARK                            x       y       z     vdW  Elec       q    Type
REMARK                         _______ _______ _______ _____ _____    ______ ____
ROOT
ATOM      1  C   UNL     1      44.574   3.650  11.970  0.00  0.00    +0.000 C 
ENDROOT
BRANCH   1   2
ATOM      2  C   UNL     1      45.505   4.734  12.448  0.00  0.00    +0.000 A 
ATOM      3  C   UNL     1      46.336   4.528  13.559  0.00  0.00    +0.000 A 
ATOM      4  C   UNL     1      47.264   5.501  13.953  0.00  0.00    +0.000 A 
ATOM      5  C   UNL     1      47.367   6.712  13.255  0.00  0.00    +0.000 A 
ATOM      6  C   UNL     1      46.499   6.936  12.177  0.00  0.00    +0.000 A 
ATOM      7  C   UNL     1      45.574   5.963  11.782  0.00  0.00    +0.000 A 
BRANCH   5   8
ATOM      8  C   UNL     1      48.442   7.729  13.600  0.00  0.00    +0.000 C 
BRANCH   8   9
ATOM      9  C   UNL     1      48.370   8.979  12.698  0.00  0.00    +0.000 C 
BRANCH   9  10
ATOM     10  O   UNL     1      48.535  10.155  13.505  0.00  0.00    +0.000 OA
ATOM     11  H   UNL     1      49.394  10.092  13.951  0.00  0.00    +0.000 HD
ENDBRANCH   9  10
BRANCH   9  12
ATOM     12  C   UNL     1      49.441   8.966  11.558  0.00  0.00    +0.000 C 
BRANCH  12  13
ATOM     13  N   UNL     1      50.667   8.212  11.903  0.00  0.00    +0.000 NA
ATOM     14  C   UNL     1      51.728   9.037  12.492  0.00  0.00    +0.000 C 
ATOM     15  C   UNL     1      52.573   9.499  11.321  0.00  0.00    +0.000 C 
ATOM     16  C   UNL     1      52.550   8.311  10.382  0.00  0.00    +0.000 C 
ATOM     17  C   UNL     1      51.286   7.537  10.750  0.00  0.00    +0.000 C 
ENDBRANCH  12  13
ENDBRANCH   9  12
ENDBRANCH   8   9
ENDBRANCH   5   8
ENDBRANCH   1   2
BRANCH   1  20
ATOM     18  O   UNL     1      43.819   3.494   9.311  0.00  0.00    +0.000 OA
ATOM     19  C   UNL     1      44.790   2.844   9.677  0.00  0.00    +0.000 C 
ATOM     20  N   UNL     1      45.187   2.791  10.990  0.00  0.00    +0.000 N 
ATOM     21  H   UNL     1      46.102   2.415  11.224  0.00  0.00    +0.000 HD
BRANCH  19  22
ATOM     22  C   UNL     1      45.578   2.053   8.720  0.00  0.00    +0.000 A 
ATOM     23  C   UNL     1      45.528   0.667   8.754  0.00  0.00    +0.000 A 
ATOM     24  S   UNL     1      46.475  -0.080   7.547  0.00  0.00    +0.000 S 
ATOM     25  C   UNL     1      46.950   1.427   6.913  0.00  0.00    +0.000 A 
ATOM     26  N   UNL     1      47.740   1.505   5.808  0.00  0.00    +0.000 NA
ATOM     27  C   UNL     1      47.993   2.709   5.419  0.00  0.00    +0.000 A 
ATOM     28  N   UNL     1      47.543   3.845   6.046  0.00  0.00    +0.000 N 
ATOM     29  C   UNL     1      46.781   3.814   7.188  0.00  0.00    +0.000 A 
ATOM     30  O   UNL     1      46.461   4.847   7.763  0.00  0.00    +0.000 OA
ATOM     31  C   UNL     1      46.430   2.483   7.640  0.00  0.00    +0.000 A 
ATOM     32  H   UNL     1      47.800   4.758   5.707  0.00  0.00    +0.000 HD
ENDBRANCH  19  22
ENDBRANCH   1  20
TORSDOF 8
ENDMDL
