MODEL 1
REMARK VINA RESULT:    -8.988      0.000      0.000
REMARK INTER + INTRA:         -12.571
REMARK INTER:                 -11.615
REMARK INTRA:                  -0.956
REMARK UNBOUND:                -0.956
REMARK  Name = 
REMARK  5 active torsions:
REMARK  status: ('A' for Active; 'I' for Inactive)
REMARK    1  A    between atoms: C_2  and  C_4
REMARK    2  A    between atoms: C_7  and  O_8
REMARK    3  A    between atoms: O_8  and  C_9
REMARK    4  A    between atoms: C_9  and  C_10
REMARK    5  A    between atoms: C_14  and  C_15
REMARK                            x       y       z     vdW  Elec       q    Type
REMARK                         _______ _______ _______ _____ _____    ______ ____
ROOT
ATOM      1  C   UNL     1      43.671   4.286  11.224  0.00  0.00    +0.000 C 
ENDROOT
BRANCH   1   2
ATOM      2  C   UNL     1      44.866   4.689  12.061  0.00  0.00    +0.000 A 
ATOM      3  C   UNL     1      45.552   3.779  12.868  0.00  0.00    +0.000 A 
ATOM      4  C   UNL     1      46.683   4.183  13.570  0.00  0.00    +0.000 A 
ATOM      5  C   UNL     1      47.160   5.492  13.444  0.00  0.00    +0.000 A 
ATOM      6  C   UNL     1      46.536   6.424  12.597  0.00  0.00    +0.000 A 
ATOM      7  C   UNL     1      45.371   5.999  11.932  0.00  0.00    +0.000 A 
BRANCH   6   8
ATOM      8  C   UNL     1      47.134   7.758  12.336  0.00  0.00    +0.000 A 
ATOM      9  C   UNL     1      48.434   7.863  11.801  0.00  0.00    +0.000 A 
ATOM     10  C   UNL     1      48.998   9.099  11.465  0.00  0.00    +0.000 A 
ATOM     11  C   UNL     1      48.271  10.269  11.647  0.00  0.00    +0.000 A 
ATOM     12  C   UNL     1      46.991  10.203  12.187  0.00  0.00    +0.000 A 
ATOM     13  C   UNL     1      46.439   8.965  12.531  0.00  0.00    +0.000 A 
ATOM     14  F   UNL     1      45.203   8.968  13.057  0.00  0.00    +0.000 F 
ENDBRANCH   6   8
ENDBRANCH   1   2
BRANCH   1  15
ATOM     15  O   UNL     1      43.784   4.756   9.876  0.00  0.00    +0.000 OA
BRANCH  15  19
ATOM     16  C   UNL     1      46.435   2.469   7.710  0.00  0.00    +0.000 A 
ATOM     17  C   UNL     1      45.581   1.854   8.628  0.00  0.00    +0.000 A 
ATOM     18  C   UNL     1      44.691   2.640   9.362  0.00  0.00    +0.000 A 
ATOM     19  C   UNL     1      44.688   4.011   9.147  0.00  0.00    +0.000 A 
ATOM     20  N   UNL     1      45.514   4.631   8.276  0.00  0.00    +0.000 NA
ATOM     21  C   UNL     1      46.378   3.850   7.587  0.00  0.00    +0.000 A 
BRANCH  16  23
ATOM     22  N   UNL     1      48.496   2.415   6.430  0.00  0.00    +0.000 N 
ATOM     23  C   UNL     1      47.400   1.730   6.868  0.00  0.00    +0.000 C 
ATOM     24  O   UNL     1      47.247   0.543   6.619  0.00  0.00    +0.000 OA
ATOM     25  H   UNL     1      49.208   1.856   5.971  0.00  0.00    +0.000 HD
ATOM     26  H   UNL     1      48.787   3.291   6.835  0.00  0.00    +0.000 HD
ENDBRANCH  16  23
ENDBRANCH  15  19
ENDBRANCH   1  15
TORSDOF 5
ENDMDL
MODEL 2
REMARK VINA RESULT:    -8.280      1.733      2.391
REMARK INTER + INTRA:         -11.656
REMARK INTER:                 -10.722
REMARK INTRA:                  -0.934
REMARK UNBOUND:                -0.956
REMARK  Name = 
REMARK  5 active torsions:
REMARK  status: ('A' for Active; 'I' for Inactive)
REMARK    1  A    between atoms: C_2  and  C_4
REMARK    2  A    between atoms: C_7  and  O_8
REMARK    3  A    between atoms: O_8  and  C_9
REMARK    4  A    between atoms: C_9  and  C_10
REMARK    5  A    between atoms: C_14  and  C_15
REMARK                            x       y       z     vdW  Elec       q    Type
REMARK                         _______ _______ _______ _____ _____    ______ ____
ROOT
ATOM      1  C   UNL     1      44.198   3.390  11.594  0.00  0.00    +0.000 C 
ENDROOT
BRANCH   1   2
ATOM      2  C   UNL     1      44.550   4.862  11.565  0.00  0.00    +0.000 A 
ATOM      3  C   UNL     1      43.584   5.856  11.388  0.00  0.00    +0.000 A 
ATOM      4  C   UNL     1      43.947   7.197  11.431  0.00  0.00    +0.000 A 
ATOM      5  C   UNL     1      45.274   7.560  11.685  0.00  0.00    +0.000 A 
ATOM      6  C   UNL     1      46.267   6.595  11.928  0.00  0.00    +0.000 A 
ATOM      7  C   UNL     1      45.878   5.246  11.838  0.00  0.00    +0.000 A 
BRANCH   6   8
ATOM      8  C   UNL     1      47.635   6.980  12.359  0.00  0.00    +0.000 A 
ATOM      9  C   UNL     1      48.467   7.729  11.503  0.00  0.00    +0.000 A 
ATOM     10  C   UNL     1      49.729   8.181  11.907  0.00  0.00    +0.000 A 
ATOM     11  C   UNL     1      50.192   7.902  13.187  0.00  0.00    +0.000 A 
ATOM     12  C   UNL     1      49.402   7.153  14.053  0.00  0.00    +0.000 A 
ATOM     13  C   UNL     1      48.148   6.695  13.637  0.00  0.00    +0.000 A 
ATOM     14  F   UNL     1      47.438   5.969  14.516  0.00  0.00    +0.000 F 
ENDBRANCH   6   8
ENDBRANCH   1   2
BRANCH   1  15
ATOM     15  O   UNL     1      43.591   2.965  10.368  0.00  0.00    +0.000 OA
BRANCH  15  19
ATOM     16  C   UNL     1      46.382   2.540   7.372  0.00  0.00    +0.000 A 
ATOM     17  C   UNL     1      45.651   3.727   7.473  0.00  0.00    +0.000 A 
ATOM     18  C   UNL     1      44.703   3.857   8.490  0.00  0.00    +0.000 A 
ATOM     19  C   UNL     1      44.523   2.797   9.365  0.00  0.00    +0.000 A 
ATOM     20  N   UNL     1      45.206   1.634   9.279  0.00  0.00    +0.000 NA
ATOM     21  C   UNL     1      46.109   1.525   8.277  0.00  0.00    +0.000 A 
BRANCH  16  23
ATOM     22  N   UNL     1      47.460   3.169   5.291  0.00  0.00    +0.000 N 
ATOM     23  C   UNL     1      47.422   2.306   6.347  0.00  0.00    +0.000 C 
ATOM     24  O   UNL     1      48.243   1.408   6.469  0.00  0.00    +0.000 OA
ATOM     25  H   UNL     1      48.261   3.072   4.674  0.00  0.00    +0.000 HD
ATOM     26  H   UNL     1      46.990   4.060   5.299  0.00  0.00    +0.000 HD
ENDBRANCH  16  23
ENDBRANCH  15  19
ENDBRANCH   1  15
TORSDOF 5
ENDMDL
MODEL 3
REMARK VINA RESULT:    -8.115      2.068      3.809
REMARK INTER + INTRA:         -11.442
REMARK INTER:                 -10.958
REMARK INTRA:                  -0.484
REMARK UNBOUND:                -0.956
REMARK  Name = 
REMARK  5 active torsions:
REMARK  status: ('A' for Active; 'I' for Inactive)
REMARK    1  A    between atoms: C_2  and  C_4
REMARK    2  A    between atoms: C_7  and  O_8
REMARK    3  A    between atoms: O_8  and  C_9
REMARK    4  A    between atoms: C_9  and  C_10
REMARK    5  A    between atoms: C_14  and  C_15
REMARK                            x       y       z     vdW  Elec       q    Type
REMARK                         _______ _______ _______ _____ _____    ______ ____
ROOT
ATOM      1  C   UNL     1      44.052   3.911  11.668  0.00  0.00    +0.000 C 
ENDROOT
BRANCH   1   2
ATOM      2  C   UNL     1      45.144   4.807  12.214  0.00  0.00    +0.000 A 
ATOM      3  C   UNL     1      45.364   6.096  11.724  0.00  0.00    +0.000 A 
ATOM      4  C   UNL     1      46.339   6.904  12.300  0.00  0.00    +0.000 A 
ATOM      5  C   UNL     1      47.078   6.444  13.395  0.00  0.00    +0.000 A 
ATOM      6  C   UNL     1      46.849   5.176  13.958  0.00  0.00    +0.000 A 
ATOM      7  C   UNL     1      45.885   4.366  13.328  0.00  0.00    +0.000 A 
BRANCH   6   8
ATOM      8  C   UNL     1      47.515   4.754  15.216  0.00  0.00    +0.000 A 
ATOM      9  C   UNL     1      47.413   3.420  15.662  0.00  0.00    +0.000 A 
ATOM     10  C   UNL     1      48.094   2.966  16.797  0.00  0.00    +0.000 A 
ATOM     11  C   UNL     1      48.908   3.834  17.515  0.00  0.00    +0.000 A 
ATOM     12  C   UNL     1      49.020   5.160  17.110  0.00  0.00    +0.000 A 
ATOM     13  C   UNL     1      48.326   5.609  15.983  0.00  0.00    +0.000 A 
ATOM     14  F   UNL     1      48.468   6.902  15.649  0.00  0.00    +0.000 F 
ENDBRANCH   6   8
ENDBRANCH   1   2
BRANCH   1  15
ATOM     15  O   UNL     1      43.749   4.216  10.302  0.00  0.00    +0.000 OA
BRANCH  15  19
ATOM     16  C   UNL     1      46.399   2.438   7.700  0.00  0.00    +0.000 A 
ATOM     17  C   UNL     1      46.185   3.816   7.634  0.00  0.00    +0.000 A 
ATOM     18  C   UNL     1      45.280   4.407   8.518  0.00  0.00    +0.000 A 
ATOM     19  C   UNL     1      44.624   3.597   9.433  0.00  0.00    +0.000 A 
ATOM     20  N   UNL     1      44.803   2.260   9.507  0.00  0.00    +0.000 NA
ATOM     21  C   UNL     1      45.674   1.707   8.631  0.00  0.00    +0.000 A 
BRANCH  16  23
ATOM     22  N   UNL     1      48.460   2.395   6.420  0.00  0.00    +0.000 N 
ATOM     23  C   UNL     1      47.349   1.715   6.827  0.00  0.00    +0.000 C 
ATOM     24  O   UNL     1      47.170   0.544   6.526  0.00  0.00    +0.000 OA
ATOM     25  H   UNL     1      49.160   1.841   5.937  0.00  0.00    +0.000 HD
ATOM     26  H   UNL     1      48.770   3.246   6.863  0.00  0.00    +0.000 HD
ENDBRANCH  16  23
ENDBRANCH  15  19
ENDBRANCH   1  15
TORSDOF 5
ENDMDL
MODEL 4
REMARK VINA RESULT:    -7.470      4.956      8.095
REMARK INTER + INTRA:         -10.609
REMARK INTER:                  -9.824
REMARK INTRA:                  -0.785
REMARK UNBOUND:                -0.956
REMARK  Name = 
REMARK  5 active torsions:
REMARK  status: ('A' for Active; 'I' for Inactive)
REMARK    1  A    between atoms: C_2  and  C_4
REMARK    2  A    between atoms: C_7  and  O_8
REMARK    3  A    between atoms: O_8  and  C_9
REMARK    4  A    between atoms: C_9  and  C_10
REMARK    5  A    between atoms: C_14  and  C_15
REMARK                            x       y       z     vdW  Elec       q    Type
REMARK                         _______ _______ _______ _____ _____    ______ ____
ROOT
ATOM      1  C   UNL     1      46.026   5.153  14.013  0.00  0.00    +0.000 C 
ENDROOT
BRANCH   1   2
ATOM      2  C   UNL     1      45.057   4.945  12.868  0.00  0.00    +0.000 A 
ATOM      3  C   UNL     1      43.743   5.416  12.910  0.00  0.00    +0.000 A 
ATOM      4  C   UNL     1      42.909   5.255  11.808  0.00  0.00    +0.000 A 
ATOM      5  C   UNL     1      43.392   4.654  10.641  0.00  0.00    +0.000 A 
ATOM      6  C   UNL     1      44.725   4.220  10.535  0.00  0.00    +0.000 A 
ATOM      7  C   UNL     1      45.532   4.358  11.679  0.00  0.00    +0.000 A 
BRANCH   6   8
ATOM      8  C   UNL     1      45.283   3.733   9.247  0.00  0.00    +0.000 A 
ATOM      9  C   UNL     1      46.000   4.609   8.406  0.00  0.00    +0.000 A 
ATOM     10  C   UNL     1      46.610   4.167   7.227  0.00  0.00    +0.000 A 
ATOM     11  C   UNL     1      46.527   2.829   6.858  0.00  0.00    +0.000 A 
ATOM     12  C   UNL     1      45.815   1.942   7.658  0.00  0.00    +0.000 A 
ATOM     13  C   UNL     1      45.198   2.394   8.828  0.00  0.00    +0.000 A 
ATOM     14  F   UNL     1      44.517   1.490   9.552  0.00  0.00    +0.000 F 
ENDBRANCH   6   8
ENDBRANCH   1   2
BRANCH   1  15
ATOM     15  O   UNL     1      46.569   3.913  14.480  0.00  0.00    +0.000 OA
BRANCH  15  19
ATOM     16  C   UNL     1      48.515   4.432  18.071  0.00  0.00    +0.000 A 
ATOM     17  C   UNL     1      48.609   5.417  17.085  0.00  0.00    +0.000 A 
ATOM     18  C   UNL     1      47.949   5.228  15.869  0.00  0.00    +0.000 A 
ATOM     19  C   UNL     1      47.222   4.061  15.687  0.00  0.00    +0.000 A 
ATOM     20  N   UNL     1      47.129   3.087  16.618  0.00  0.00    +0.000 NA
ATOM     21  C   UNL     1      47.788   3.287  17.783  0.00  0.00    +0.000 A 
BRANCH  16  23
ATOM     22  N   UNL     1      48.573   3.859  20.428  0.00  0.00    +0.000 N 
ATOM     23  C   UNL     1      49.156   4.541  19.399  0.00  0.00    +0.000 C 
ATOM     24  O   UNL     1      50.189   5.174  19.556  0.00  0.00    +0.000 OA
ATOM     25  H   UNL     1      49.102   3.838  21.294  0.00  0.00    +0.000 HD
ATOM     26  H   UNL     1      47.899   3.125  20.281  0.00  0.00    +0.000 HD
ENDBRANCH  16  23
ENDBRANCH  15  19
ENDBRANCH   1  15
TORSDOF 5
ENDMDL
MODEL 5
REMARK VINA RESULT:    -6.876      4.725      8.034
REMARK INTER + INTRA:          -9.841
REMARK INTER:                  -8.866
REMARK INTRA:                  -0.975
REMARK UNBOUND:                -0.956
REMARK  Name = 
REMARK  5 active torsions:
REMARK  status: ('A' for Active; 'I' for Inactive)
REMARK    1  A    between atoms: C_2  and  C_4
REMARK    2  A    between atoms: C_7  and  O_8
REMARK    3  A    between atoms: O_8  and  C_9
REMARK    4  A    between atoms: C_9  and  C_10
REMARK    5  A    between atoms: C_14  and  C_15
REMARK                            x       y       z     vdW  Elec       q    Type
REMARK                         _______ _______ _______ _____ _____    ______ ____
ROOT
ATOM      1  C   UNL     1      48.346   7.571  13.712  0.00  0.00    +0.000 C 
ENDROOT
BRANCH   1   2
ATOM      2  C   UNL     1      47.040   7.559  12.945  0.00  0.00    +0.000 A 
ATOM      3  C   UNL     1      46.229   8.690  12.838  0.00  0.00    +0.000 A 
ATOM      4  C   UNL     1      45.070   8.648  12.071  0.00  0.00    +0.000 A 
ATOM      5  C   UNL     1      44.729   7.484  11.374  0.00  0.00    +0.000 A 
ATOM      6  C   UNL     1      45.547   6.341  11.405  0.00  0.00    +0.000 A 
ATOM      7  C   UNL     1      46.692   6.401  12.222  0.00  0.00    +0.000 A 
BRANCH   6   8
ATOM      8  C   UNL     1      45.274   5.167  10.538  0.00  0.00    +0.000 A 
ATOM      9  C   UNL     1      45.693   5.162   9.192  0.00  0.00    +0.000 A 
ATOM     10  C   UNL     1      45.526   4.042   8.370  0.00  0.00    +0.000 A 
ATOM     11  C   UNL     1      44.942   2.887   8.875  0.00  0.00    +0.000 A 
ATOM     12  C   UNL     1      44.505   2.862  10.195  0.00  0.00    +0.000 A 
ATOM     13  C   UNL     1      44.663   3.990  11.007  0.00  0.00    +0.000 A 
ATOM     14  F   UNL     1      44.211   3.906  12.269  0.00  0.00    +0.000 F 
ENDBRANCH   6   8
ENDBRANCH   1   2
BRANCH   1  15
ATOM     15  O   UNL     1      48.773   6.247  14.053  0.00  0.00    +0.000 OA
BRANCH  15  19
ATOM     16  C   UNL     1      48.247   5.530  18.073  0.00  0.00    +0.000 A 
ATOM     17  C   UNL     1      48.890   6.699  17.657  0.00  0.00    +0.000 A 
ATOM     18  C   UNL     1      49.067   6.928  16.291  0.00  0.00    +0.000 A 
ATOM     19  C   UNL     1      48.595   5.981  15.395  0.00  0.00    +0.000 A 
ATOM     20  N   UNL     1      47.985   4.836  15.772  0.00  0.00    +0.000 NA
ATOM     21  C   UNL     1      47.836   4.629  17.102  0.00  0.00    +0.000 A 
BRANCH  16  23
ATOM     22  N   UNL     1      48.529   4.039  19.967  0.00  0.00    +0.000 N 
ATOM     23  C   UNL     1      47.989   5.199  19.491  0.00  0.00    +0.000 C 
ATOM     24  O   UNL     1      47.363   5.957  20.216  0.00  0.00    +0.000 OA
ATOM     25  H   UNL     1      48.454   3.900  20.969  0.00  0.00    +0.000 HD
ATOM     26  H   UNL     1      49.262   3.543  19.485  0.00  0.00    +0.000 HD
ENDBRANCH  16  23
ENDBRANCH  15  19
ENDBRANCH   1  15
TORSDOF 5
ENDMDL
MODEL 6
REMARK VINA RESULT:    -6.732      5.313      7.773
REMARK INTER + INTRA:          -9.655
REMARK INTER:                  -8.730
REMARK INTRA:                  -0.925
REMARK UNBOUND:                -0.956
REMARK  Name = 
REMARK  5 active torsions:
REMARK  status: ('A' for Active; 'I' for Inactive)
REMARK    1  A    between atoms: C_2  and  C_4
REMARK    2  A    between atoms: C_7  and  O_8
REMARK    3  A    between atoms: O_8  and  C_9
REMARK    4  A    between atoms: C_9  and  C_10
REMARK    5  A    between atoms: C_14  and  C_15
REMARK                            x       y       z     vdW  Elec       q    Type
REMARK                         _______ _______ _______ _____ _____    ______ ____
ROOT
ATOM      1  C   UNL     1      48.842   6.569  15.888  0.00  0.00    +0.000 C 
ENDROOT
BRANCH   1   2
ATOM      2  C   UNL     1      48.408   6.704  14.443  0.00  0.00    +0.000 A 
ATOM      3  C   UNL     1      49.214   7.307  13.476  0.00  0.00    +0.000 A 
ATOM      4  C   UNL     1      48.798   7.352  12.150  0.00  0.00    +0.000 A 
ATOM      5  C   UNL     1      47.588   6.762  11.771  0.00  0.00    +0.000 A 
ATOM      6  C   UNL     1      46.773   6.092  12.700  0.00  0.00    +0.000 A 
ATOM      7  C   UNL     1      47.200   6.099  14.041  0.00  0.00    +0.000 A 
BRANCH   6   8
ATOM      8  C   UNL     1      45.574   5.327  12.272  0.00  0.00    +0.000 A 
ATOM      9  C   UNL     1      45.483   3.944  12.531  0.00  0.00    +0.000 A 
ATOM     10  C   UNL     1      44.335   3.208  12.217  0.00  0.00    +0.000 A 
ATOM     11  C   UNL     1      43.238   3.838  11.641  0.00  0.00    +0.000 A 
ATOM     12  C   UNL     1      43.301   5.199  11.360  0.00  0.00    +0.000 A 
ATOM     13  C   UNL     1      44.456   5.925  11.665  0.00  0.00    +0.000 A 
ATOM     14  F   UNL     1      44.457   7.233  11.360  0.00  0.00    +0.000 F 
ENDBRANCH   6   8
ENDBRANCH   1   2
BRANCH   1  15
ATOM     15  O   UNL     1      48.247   5.428  16.516  0.00  0.00    +0.000 OA
BRANCH  15  19
ATOM     16  C   UNL     1      51.064   2.553  17.380  0.00  0.00    +0.000 A 
ATOM     17  C   UNL     1      51.373   3.902  17.568  0.00  0.00    +0.000 A 
ATOM     18  C   UNL     1      50.412   4.868  17.266  0.00  0.00    +0.000 A 
ATOM     19  C   UNL     1      49.180   4.447  16.788  0.00  0.00    +0.000 A 
ATOM     20  N   UNL     1      48.862   3.150  16.584  0.00  0.00    +0.000 NA
ATOM     21  C   UNL     1      49.814   2.233  16.871  0.00  0.00    +0.000 A 
BRANCH  16  23
ATOM     22  N   UNL     1      51.457   0.281  18.137  0.00  0.00    +0.000 N 
ATOM     23  C   UNL     1      52.000   1.449  17.688  0.00  0.00    +0.000 C 
ATOM     24  O   UNL     1      53.201   1.564  17.499  0.00  0.00    +0.000 OA
ATOM     25  H   UNL     1      52.099  -0.501  18.212  0.00  0.00    +0.000 HD
ATOM     26  H   UNL     1      50.476   0.065  18.043  0.00  0.00    +0.000 HD
ENDBRANCH  16  23
ENDBRANCH  15  19
ENDBRANCH   1  15
TORSDOF 5
ENDMDL
MODEL 7
REMARK VINA RESULT:    -6.058      5.182      8.372
REMARK INTER + INTRA:          -8.785
REMARK INTER:                  -7.827
REMARK INTRA:                  -0.958
REMARK UNBOUND:                -0.956
REMARK  Name = 
REMARK  5 active torsions:
REMARK  status: ('A' for Active; 'I' for Inactive)
REMARK    1  A    between atoms: C_2  and  C_4
REMARK    2  A    between atoms: C_7  and  O_8
REMARK    3  A    between atoms: O_8  and  C_9
REMARK    4  A    between atoms: C_9  and  C_10
REMARK    5  A    between atoms: C_14  and  C_15
REMARK                            x       y       z     vdW  Elec       q    Type
REMARK                         _______ _______ _______ _____ _____    ______ ____
ROOT
ATOM      1  C   UNL     1      44.367  10.345  10.930  0.00  0.00    +0.000 C 
ENDROOT
BRANCH   1   2
ATOM      2  C   UNL     1      45.086   9.205  11.620  0.00  0.00    +0.000 A 
ATOM      3  C   UNL     1      46.049   9.421  12.608  0.00  0.00    +0.000 A 
ATOM      4  C   UNL     1      46.637   8.340  13.257  0.00  0.00    +0.000 A 
ATOM      5  C   UNL     1      46.243   7.034  12.949  0.00  0.00    +0.000 A 
ATOM      6  C   UNL     1      45.235   6.773  12.004  0.00  0.00    +0.000 A 
ATOM      7  C   UNL     1      44.688   7.884  11.335  0.00  0.00    +0.000 A 
BRANCH   6   8
ATOM      8  C   UNL     1      44.702   5.402  11.796  0.00  0.00    +0.000 A 
ATOM      9  C   UNL     1      44.040   4.730  12.843  0.00  0.00    +0.000 A 
ATOM     10  C   UNL     1      43.452   3.473  12.660  0.00  0.00    +0.000 A 
ATOM     11  C   UNL     1      43.504   2.854  11.416  0.00  0.00    +0.000 A 
ATOM     12  C   UNL     1      44.162   3.484  10.365  0.00  0.00    +0.000 A 
ATOM     13  C   UNL     1      44.757   4.734  10.560  0.00  0.00    +0.000 A 
ATOM     14  F   UNL     1      45.387   5.286   9.509  0.00  0.00    +0.000 F 
ENDBRANCH   6   8
ENDBRANCH   1   2
BRANCH   1  15
ATOM     15  O   UNL     1      43.718  11.208  11.871  0.00  0.00    +0.000 OA
BRANCH  15  19
ATOM     16  C   UNL     1      39.638  11.164  11.315  0.00  0.00    +0.000 A 
ATOM     17  C   UNL     1      40.485  10.876  10.243  0.00  0.00    +0.000 A 
ATOM     18  C   UNL     1      41.867  10.900  10.442  0.00  0.00    +0.000 A 
ATOM     19  C   UNL     1      42.348  11.210  11.705  0.00  0.00    +0.000 A 
ATOM     20  N   UNL     1      41.550  11.508  12.754  0.00  0.00    +0.000 NA
ATOM     21  C   UNL     1      40.215  11.492  12.534  0.00  0.00    +0.000 A 
BRANCH  16  23
ATOM     22  N   UNL     1      37.622  10.919   9.988  0.00  0.00    +0.000 N 
ATOM     23  C   UNL     1      38.163  11.147  11.220  0.00  0.00    +0.000 C 
ATOM     24  O   UNL     1      37.460  11.281  12.211  0.00  0.00    +0.000 OA
ATOM     25  H   UNL     1      36.618  10.778   9.969  0.00  0.00    +0.000 HD
ATOM     26  H   UNL     1      38.156  10.540   9.221  0.00  0.00    +0.000 HD
ENDBRANCH  16  23
ENDBRANCH  15  19
ENDBRANCH   1  15
TORSDOF 5
ENDMDL
