MODEL 1
REMARK VINA RESULT:    -7.356      0.000      0.000
REMARK INTER + INTRA:          -9.836
REMARK INTER:                  -9.291
REMARK INTRA:                  -0.545
REMARK UNBOUND:                -0.545
REMARK  Name = 
REMARK  5 active torsions:
REMARK  status: ('A' for Active; 'I' for Inactive)
REMARK    1  A    between atoms: N_1  and  C_2
REMARK    2  A    between atoms: C_2  and  C_3
REMARK    3  A    between atoms: C_3  and  C_4
REMARK    4  A    between atoms: C_7  and  C_8
REMARK    5  A    between atoms: C_8  and  N_9
REMARK                            x       y       z     vdW  Elec       q    Type
REMARK                         _______ _______ _______ _____ _____    ______ ____
ROOT
ATOM      1  C   UNL     1      45.804   2.651   8.186  0.00  0.00    +0.000 A 
ATOM      2  C   UNL     1      45.015   1.983   9.133  0.00  0.00    +0.000 A 
ATOM      3  C   UNL     1      44.278   2.708  10.076  0.00  0.00    +0.000 A 
ATOM      4  C   UNL     1      44.320   4.113  10.095  0.00  0.00    +0.000 A 
ATOM      5  C   UNL     1      45.112   4.773   9.159  0.00  0.00    +0.000 A 
ATOM      6  C   UNL     1      45.841   4.046   8.200  0.00  0.00    +0.000 A 
ENDROOT
BRANCH   1   7
ATOM      7  C   UNL     1      46.606   1.868   7.159  0.00  0.00    +0.000 C 
BRANCH   7   8
ATOM      8  C   UNL     1      47.929   2.529   6.783  0.00  0.00    +0.000 C 
BRANCH   8   9
ATOM      9  N   UNL     1      48.571   1.814   5.675  0.00  0.00    +0.000 NA
ATOM     10  H   UNL     1      49.583   1.869   5.774  0.00  0.00    +0.000 HD
ATOM     11  H   UNL     1      48.344   2.274   4.793  0.00  0.00    +0.000 HD
ENDBRANCH   8   9
ENDBRANCH   7   8
ENDBRANCH   1   7
BRANCH   4  12
ATOM     12  C   UNL     1      43.474   4.891  11.088  0.00  0.00    +0.000 C 
BRANCH  12  13
ATOM     13  N   UNL     1      44.117   6.109  11.578  0.00  0.00    +0.000 N 
ATOM     14  C   UNL     1      43.922   7.356  11.033  0.00  0.00    +0.000 A 
ATOM     15  C   UNL     1      44.694   8.251  11.739  0.00  0.00    +0.000 A 
ATOM     16  C   UNL     1      45.695   7.473  12.364  0.00  0.00    +0.000 A 
ATOM     17  C   UNL     1      46.983   7.761  12.856  0.00  0.00    +0.000 A 
ATOM     18  C   UNL     1      47.722   6.729  13.431  0.00  0.00    +0.000 A 
ATOM     19 CL   UNL     1      49.381   6.986  13.814  0.00  0.00    +0.000 Cl
ATOM     20  C   UNL     1      47.149   5.479  13.659  0.00  0.00    +0.000 A 
ATOM     21  C   UNL     1      45.873   5.174  13.176  0.00  0.00    +0.000 A 
ATOM     22  C   UNL     1      45.215   6.160  12.425  0.00  0.00    +0.000 A 
ENDBRANCH  12  13
ENDBRANCH   4  12
TORSDOF 5
ENDMDL
MODEL 2
REMARK VINA RESULT:    -7.173      1.416      2.428
REMARK INTER + INTRA:          -9.605
REMARK INTER:                  -9.066
REMARK INTRA:                  -0.540
REMARK UNBOUND:                -0.545
REMARK  Name = 
REMARK  5 active torsions:
REMARK  status: ('A' for Active; 'I' for Inactive)
REMARK    1  A    between atoms: N_1  and  C_2
REMARK    2  A    between atoms: C_2  and  C_3
REMARK    3  A    between atoms: C_3  and  C_4
REMARK    4  A    between atoms: C_7  and  C_8
REMARK    5  A    between atoms: C_8  and  N_9
REMARK                            x       y       z     vdW  Elec       q    Type
REMARK                         _______ _______ _______ _____ _____    ______ ____
ROOT
ATOM      1  C   UNL     1      45.907   3.123   7.812  0.00  0.00    +0.000 A 
ATOM      2  C   UNL     1      46.146   4.497   7.958  0.00  0.00    +0.000 A 
ATOM      3  C   UNL     1      45.760   5.162   9.127  0.00  0.00    +0.000 A 
ATOM      4  C   UNL     1      45.122   4.468  10.170  0.00  0.00    +0.000 A 
ATOM      5  C   UNL     1      44.877   3.106  10.019  0.00  0.00    +0.000 A 
ATOM      6  C   UNL     1      45.279   2.433   8.850  0.00  0.00    +0.000 A 
ENDROOT
BRANCH   1   7
ATOM      7  C   UNL     1      46.326   2.396   6.545  0.00  0.00    +0.000 C 
BRANCH   7   8
ATOM      8  C   UNL     1      47.574   1.534   6.717  0.00  0.00    +0.000 C 
BRANCH   8   9
ATOM      9  N   UNL     1      48.568   1.848   5.687  0.00  0.00    +0.000 NA
ATOM     10  H   UNL     1      48.229   2.614   5.108  0.00  0.00    +0.000 HD
ATOM     11  H   UNL     1      48.681   1.048   5.064  0.00  0.00    +0.000 HD
ENDBRANCH   8   9
ENDBRANCH   7   8
ENDBRANCH   1   7
BRANCH   4  12
ATOM     12  C   UNL     1      44.755   5.188  11.455  0.00  0.00    +0.000 C 
BRANCH  12  13
ATOM     13  N   UNL     1      45.815   5.169  12.462  0.00  0.00    +0.000 N 
ATOM     14  C   UNL     1      45.750   4.459  13.637  0.00  0.00    +0.000 A 
ATOM     15  C   UNL     1      46.913   4.689  14.335  0.00  0.00    +0.000 A 
ATOM     16  C   UNL     1      47.435   5.895  13.811  0.00  0.00    +0.000 A 
ATOM     17  C   UNL     1      48.311   6.875  14.315  0.00  0.00    +0.000 A 
ATOM     18  C   UNL     1      48.624   7.967  13.508  0.00  0.00    +0.000 A 
ATOM     19 CL   UNL     1      49.489   9.296  14.180  0.00  0.00    +0.000 Cl
ATOM     20  C   UNL     1      48.209   8.017  12.179  0.00  0.00    +0.000 A 
ATOM     21  C   UNL     1      47.336   7.055  11.661  0.00  0.00    +0.000 A 
ATOM     22  C   UNL     1      46.870   6.067  12.543  0.00  0.00    +0.000 A 
ENDBRANCH  12  13
ENDBRANCH   4  12
TORSDOF 5
ENDMDL
MODEL 3
REMARK VINA RESULT:    -6.862      2.840      6.507
REMARK INTER + INTRA:          -9.212
REMARK INTER:                  -8.554
REMARK INTRA:                  -0.657
REMARK UNBOUND:                -0.545
REMARK  Name = 
REMARK  5 active torsions:
REMARK  status: ('A' for Active; 'I' for Inactive)
REMARK    1  A    between atoms: N_1  and  C_2
REMARK    2  A    between atoms: C_2  and  C_3
REMARK    3  A    between atoms: C_3  and  C_4
REMARK    4  A    between atoms: C_7  and  C_8
REMARK    5  A    between atoms: C_8  and  N_9
REMARK                            x       y       z     vdW  Elec       q    Type
REMARK                         _______ _______ _______ _____ _____    ______ ____
ROOT
ATOM      1  C   UNL     1      47.799   6.502  13.325  0.00  0.00    +0.000 A 
ATOM      2  C   UNL     1      47.545   7.102  12.085  0.00  0.00    +0.000 A 
ATOM      3  C   UNL     1      46.398   6.765  11.358  0.00  0.00    +0.000 A 
ATOM      4  C   UNL     1      45.487   5.815  11.853  0.00  0.00    +0.000 A 
ATOM      5  C   UNL     1      45.748   5.212  13.081  0.00  0.00    +0.000 A 
ATOM      6  C   UNL     1      46.892   5.563  13.820  0.00  0.00    +0.000 A 
ENDROOT
BRANCH   1   7
ATOM      7  C   UNL     1      49.043   6.866  14.120  0.00  0.00    +0.000 C 
BRANCH   7   8
ATOM      8  C   UNL     1      48.882   6.684  15.627  0.00  0.00    +0.000 C 
BRANCH   8   9
ATOM      9  N   UNL     1      50.074   6.056  16.205  0.00  0.00    +0.000 NA
ATOM     10  H   UNL     1      50.612   5.604  15.468  0.00  0.00    +0.000 HD
ATOM     11  H   UNL     1      49.793   5.317  16.849  0.00  0.00    +0.000 HD
ENDBRANCH   8   9
ENDBRANCH   7   8
ENDBRANCH   1   7
BRANCH   4  12
ATOM     12  C   UNL     1      44.220   5.495  11.081  0.00  0.00    +0.000 C 
BRANCH  12  13
ATOM     13  N   UNL     1      44.224   4.168  10.469  0.00  0.00    +0.000 N 
ATOM     14  C   UNL     1      43.796   3.026  11.103  0.00  0.00    +0.000 A 
ATOM     15  C   UNL     1      43.958   1.972  10.232  0.00  0.00    +0.000 A 
ATOM     16  C   UNL     1      44.918   2.407   9.290  0.00  0.00    +0.000 A 
ATOM     17  C   UNL     1      45.812   1.737   8.433  0.00  0.00    +0.000 A 
ATOM     18  C   UNL     1      46.641   2.496   7.610  0.00  0.00    +0.000 A 
ATOM     19 CL   UNL     1      47.908   1.721   6.738  0.00  0.00    +0.000 Cl
ATOM     20  C   UNL     1      46.487   3.878   7.516  0.00  0.00    +0.000 A 
ATOM     21  C   UNL     1      45.607   4.562   8.361  0.00  0.00    +0.000 A 
ATOM     22  C   UNL     1      44.920   3.806   9.324  0.00  0.00    +0.000 A 
ENDBRANCH  12  13
ENDBRANCH   4  12
TORSDOF 5
ENDMDL
MODEL 4
REMARK VINA RESULT:    -6.506      2.812      5.983
REMARK INTER + INTRA:          -8.763
REMARK INTER:                  -8.311
REMARK INTRA:                  -0.452
REMARK UNBOUND:                -0.545
REMARK  Name = 
REMARK  5 active torsions:
REMARK  status: ('A' for Active; 'I' for Inactive)
REMARK    1  A    between atoms: N_1  and  C_2
REMARK    2  A    between atoms: C_2  and  C_3
REMARK    3  A    between atoms: C_3  and  C_4
REMARK    4  A    between atoms: C_7  and  C_8
REMARK    5  A    between atoms: C_8  and  N_9
REMARK                            x       y       z     vdW  Elec       q    Type
REMARK                         _______ _______ _______ _____ _____    ______ ____
ROOT
ATOM      1  C   UNL     1      48.012   7.046  13.117  0.00  0.00    +0.000 A 
ATOM      2  C   UNL     1      47.502   5.742  13.078  0.00  0.00    +0.000 A 
ATOM      3  C   UNL     1      46.238   5.493  12.531  0.00  0.00    +0.000 A 
ATOM      4  C   UNL     1      45.458   6.544  12.018  0.00  0.00    +0.000 A 
ATOM      5  C   UNL     1      45.964   7.841  12.067  0.00  0.00    +0.000 A 
ATOM      6  C   UNL     1      47.240   8.090  12.603  0.00  0.00    +0.000 A 
ENDROOT
BRANCH   1   7
ATOM      7  C   UNL     1      49.385   7.322  13.710  0.00  0.00    +0.000 C 
BRANCH   7   8
ATOM      8  C   UNL     1      50.303   8.117  12.785  0.00  0.00    +0.000 C 
BRANCH   8   9
ATOM      9  N   UNL     1      50.653   7.329  11.599  0.00  0.00    +0.000 NA
ATOM     10  H   UNL     1      50.123   6.459  11.598  0.00  0.00    +0.000 HD
ATOM     11  H   UNL     1      51.638   7.064  11.642  0.00  0.00    +0.000 HD
ENDBRANCH   8   9
ENDBRANCH   7   8
ENDBRANCH   1   7
BRANCH   4  12
ATOM     12  C   UNL     1      44.111   6.257  11.379  0.00  0.00    +0.000 C 
BRANCH  12  13
ATOM     13  N   UNL     1      43.901   4.845  11.064  0.00  0.00    +0.000 N 
ATOM     14  C   UNL     1      43.439   3.915  11.966  0.00  0.00    +0.000 A 
ATOM     15  C   UNL     1      43.380   2.698  11.325  0.00  0.00    +0.000 A 
ATOM     16  C   UNL     1      44.253   2.812  10.219  0.00  0.00    +0.000 A 
ATOM     17  C   UNL     1      44.957   1.876   9.436  0.00  0.00    +0.000 A 
ATOM     18  C   UNL     1      45.749   2.346   8.391  0.00  0.00    +0.000 A 
ATOM     19 CL   UNL     1      46.808   1.258   7.577  0.00  0.00    +0.000 Cl
ATOM     20  C   UNL     1      45.728   3.690   8.024  0.00  0.00    +0.000 A 
ATOM     21  C   UNL     1      45.038   4.634   8.790  0.00  0.00    +0.000 A 
ATOM     22  C   UNL     1      44.404   4.178   9.956  0.00  0.00    +0.000 A 
ENDBRANCH  12  13
ENDBRANCH   4  12
TORSDOF 5
ENDMDL
MODEL 5
REMARK VINA RESULT:    -6.014      1.883      2.481
REMARK INTER + INTRA:          -8.141
REMARK INTER:                  -7.734
REMARK INTRA:                  -0.407
REMARK UNBOUND:                -0.545
REMARK  Name = 
REMARK  5 active torsions:
REMARK  status: ('A' for Active; 'I' for Inactive)
REMARK    1  A    between atoms: N_1  and  C_2
REMARK    2  A    between atoms: C_2  and  C_3
REMARK    3  A    between atoms: C_3  and  C_4
REMARK    4  A    between atoms: C_7  and  C_8
REMARK    5  A    between atoms: C_8  and  N_9
REMARK                            x       y       z     vdW  Elec       q    Type
REMARK                         _______ _______ _______ _____ _____    ______ ____
ROOT
ATOM      1  C   UNL     1      45.185   3.775   9.206  0.00  0.00    +0.000 A 
ATOM      2  C   UNL     1      44.733   3.215  10.409  0.00  0.00    +0.000 A 
ATOM      3  C   UNL     1      44.766   3.961  11.592  0.00  0.00    +0.000 A 
ATOM      4  C   UNL     1      45.257   5.279  11.598  0.00  0.00    +0.000 A 
ATOM      5  C   UNL     1      45.714   5.829  10.404  0.00  0.00    +0.000 A 
ATOM      6  C   UNL     1      45.667   5.085   9.210  0.00  0.00    +0.000 A 
ENDROOT
BRANCH   1   7
ATOM      7  C   UNL     1      45.151   2.970   7.918  0.00  0.00    +0.000 C 
BRANCH   7   8
ATOM      8  C   UNL     1      46.457   2.239   7.617  0.00  0.00    +0.000 C 
BRANCH   8   9
ATOM      9  N   UNL     1      46.393   0.850   8.082  0.00  0.00    +0.000 NA
ATOM     10  H   UNL     1      46.466   0.220   7.285  0.00  0.00    +0.000 HD
ATOM     11  H   UNL     1      45.483   0.672   8.505  0.00  0.00    +0.000 HD
ENDBRANCH   8   9
ENDBRANCH   7   8
ENDBRANCH   1   7
BRANCH   4  12
ATOM     12  C   UNL     1      45.239   6.097  12.877  0.00  0.00    +0.000 C 
BRANCH  12  13
ATOM     13  N   UNL     1      45.883   7.402  12.747  0.00  0.00    +0.000 N 
ATOM     14  C   UNL     1      45.229   8.551  12.371  0.00  0.00    +0.000 A 
ATOM     15  C   UNL     1      46.150   9.573  12.345  0.00  0.00    +0.000 A 
ATOM     16  C   UNL     1      47.410   8.942  12.228  0.00  0.00    +0.000 A 
ATOM     17  C   UNL     1      48.666   9.361  11.748  0.00  0.00    +0.000 A 
ATOM     18  C   UNL     1      49.726   8.457  11.781  0.00  0.00    +0.000 A 
ATOM     19 CL   UNL     1      51.200   8.851  10.981  0.00  0.00    +0.000 Cl
ATOM     20  C   UNL     1      49.595   7.222  12.414  0.00  0.00    +0.000 A 
ATOM     21  C   UNL     1      48.356   6.788  12.893  0.00  0.00    +0.000 A 
ATOM     22  C   UNL     1      47.251   7.627  12.677  0.00  0.00    +0.000 A 
ENDBRANCH  12  13
ENDBRANCH   4  12
TORSDOF 5
ENDMDL
MODEL 6
REMARK VINA RESULT:    -5.489      5.371      7.978
REMARK INTER + INTRA:          -7.478
REMARK INTER:                  -6.995
REMARK INTRA:                  -0.483
REMARK UNBOUND:                -0.545
REMARK  Name = 
REMARK  5 active torsions:
REMARK  status: ('A' for Active; 'I' for Inactive)
REMARK    1  A    between atoms: N_1  and  C_2
REMARK    2  A    between atoms: C_2  and  C_3
REMARK    3  A    between atoms: C_3  and  C_4
REMARK    4  A    between atoms: C_7  and  C_8
REMARK    5  A    between atoms: C_8  and  N_9
REMARK                            x       y       z     vdW  Elec       q    Type
REMARK                         _______ _______ _______ _____ _____    ______ ____
ROOT
ATOM      1  C   UNL     1      51.464   2.617  17.720  0.00  0.00    +0.000 A 
ATOM      2  C   UNL     1      50.481   1.868  17.060  0.00  0.00    +0.000 A 
ATOM      3  C   UNL     1      49.263   2.458  16.704  0.00  0.00    +0.000 A 
ATOM      4  C   UNL     1      49.001   3.805  17.006  0.00  0.00    +0.000 A 
ATOM      5  C   UNL     1      49.976   4.545  17.671  0.00  0.00    +0.000 A 
ATOM      6  C   UNL     1      51.207   3.957  18.016  0.00  0.00    +0.000 A 
ENDROOT
BRANCH   1   7
ATOM      7  C   UNL     1      52.790   1.982  18.108  0.00  0.00    +0.000 C 
BRANCH   7   8
ATOM      8  C   UNL     1      53.037   0.629  17.447  0.00  0.00    +0.000 C 
BRANCH   8   9
ATOM      9  N   UNL     1      52.984  -0.450  18.437  0.00  0.00    +0.000 NA
ATOM     10  H   UNL     1      53.931  -0.745  18.672  0.00  0.00    +0.000 HD
ATOM     11  H   UNL     1      52.523  -1.265  18.032  0.00  0.00    +0.000 HD
ENDBRANCH   8   9
ENDBRANCH   7   8
ENDBRANCH   1   7
BRANCH   4  12
ATOM     12  C   UNL     1      47.698   4.449  16.568  0.00  0.00    +0.000 C 
BRANCH  12  13
ATOM     13  N   UNL     1      47.797   5.169  15.300  0.00  0.00    +0.000 N 
ATOM     14  C   UNL     1      48.308   6.439  15.172  0.00  0.00    +0.000 A 
ATOM     15  C   UNL     1      48.229   6.795  13.845  0.00  0.00    +0.000 A 
ATOM     16  C   UNL     1      47.243   5.950  13.286  0.00  0.00    +0.000 A 
ATOM     17  C   UNL     1      46.406   6.046  12.158  0.00  0.00    +0.000 A 
ATOM     18  C   UNL     1      45.526   5.000  11.890  0.00  0.00    +0.000 A 
ATOM     19 CL   UNL     1      44.325   5.194  10.671  0.00  0.00    +0.000 Cl
ATOM     20  C   UNL     1      45.576   3.816  12.624  0.00  0.00    +0.000 A 
ATOM     21  C   UNL     1      46.398   3.703  13.750  0.00  0.00    +0.000 A 
ATOM     22  C   UNL     1      47.135   4.836  14.126  0.00  0.00    +0.000 A 
ENDBRANCH  12  13
ENDBRANCH   4  12
TORSDOF 5
ENDMDL
MODEL 7
REMARK VINA RESULT:    -5.192      3.468      5.442
REMARK INTER + INTRA:          -7.103
REMARK INTER:                  -6.554
REMARK INTRA:                  -0.549
REMARK UNBOUND:                -0.545
REMARK  Name = 
REMARK  5 active torsions:
REMARK  status: ('A' for Active; 'I' for Inactive)
REMARK    1  A    between atoms: N_1  and  C_2
REMARK    2  A    between atoms: C_2  and  C_3
REMARK    3  A    between atoms: C_3  and  C_4
REMARK    4  A    between atoms: C_7  and  C_8
REMARK    5  A    between atoms: C_8  and  N_9
REMARK                            x       y       z     vdW  Elec       q    Type
REMARK                         _______ _______ _______ _____ _____    ______ ____
ROOT
ATOM      1  C   UNL     1      44.920   5.081  11.999  0.00  0.00    +0.000 A 
ATOM      2  C   UNL     1      45.513   4.551  13.154  0.00  0.00    +0.000 A 
ATOM      3  C   UNL     1      46.731   5.058  13.619  0.00  0.00    +0.000 A 
ATOM      4  C   UNL     1      47.384   6.099  12.936  0.00  0.00    +0.000 A 
ATOM      5  C   UNL     1      46.798   6.616  11.784  0.00  0.00    +0.000 A 
ATOM      6  C   UNL     1      45.565   6.118  11.324  0.00  0.00    +0.000 A 
ENDROOT
BRANCH   1   7
ATOM      7  C   UNL     1      43.596   4.535  11.490  0.00  0.00    +0.000 C 
BRANCH   7   8
ATOM      8  C   UNL     1      43.707   3.150  10.858  0.00  0.00    +0.000 C 
BRANCH   8   9
ATOM      9  N   UNL     1      43.066   2.139  11.705  0.00  0.00    +0.000 NA
ATOM     10  H   UNL     1      43.511   2.131  12.621  0.00  0.00    +0.000 HD
ATOM     11  H   UNL     1      43.215   1.213  11.306  0.00  0.00    +0.000 HD
ENDBRANCH   8   9
ENDBRANCH   7   8
ENDBRANCH   1   7
BRANCH   4  12
ATOM     12  C   UNL     1      48.679   6.677  13.479  0.00  0.00    +0.000 C 
BRANCH  12  13
ATOM     13  N   UNL     1      48.510   7.426  14.724  0.00  0.00    +0.000 N 
ATOM     14  C   UNL     1      48.421   8.795  14.792  0.00  0.00    +0.000 A 
ATOM     15  C   UNL     1      48.283   9.144  16.117  0.00  0.00    +0.000 A 
ATOM     16  C   UNL     1      48.776   8.040  16.850  0.00  0.00    +0.000 A 
ATOM     17  C   UNL     1      49.296   7.892  18.150  0.00  0.00    +0.000 A 
ATOM     18  C   UNL     1      49.699   6.624  18.565  0.00  0.00    +0.000 A 
ATOM     19 CL   UNL     1      50.562   6.452  20.046  0.00  0.00    +0.000 Cl
ATOM     20  C   UNL     1      49.452   5.501  17.778  0.00  0.00    +0.000 A 
ATOM     21  C   UNL     1      48.938   5.629  16.484  0.00  0.00    +0.000 A 
ATOM     22  C   UNL     1      48.721   6.929  16.002  0.00  0.00    +0.000 A 
ENDBRANCH  12  13
ENDBRANCH   4  12
TORSDOF 5
ENDMDL
MODEL 8
REMARK VINA RESULT:    -5.165      3.508      6.420
REMARK INTER + INTRA:          -7.068
REMARK INTER:                  -6.636
REMARK INTRA:                  -0.432
REMARK UNBOUND:                -0.545
REMARK  Name = 
REMARK  5 active torsions:
REMARK  status: ('A' for Active; 'I' for Inactive)
REMARK    1  A    between atoms: N_1  and  C_2
REMARK    2  A    between atoms: C_2  and  C_3
REMARK    3  A    between atoms: C_3  and  C_4
REMARK    4  A    between atoms: C_7  and  C_8
REMARK    5  A    between atoms: C_8  and  N_9
REMARK                            x       y       z     vdW  Elec       q    Type
REMARK                         _______ _______ _______ _____ _____    ______ ____
ROOT
ATOM      1  C   UNL     1      49.797   9.026  11.960  0.00  0.00    +0.000 A 
ATOM      2  C   UNL     1      48.924   9.786  12.749  0.00  0.00    +0.000 A 
ATOM      3  C   UNL     1      47.608   9.359  12.961  0.00  0.00    +0.000 A 
ATOM      4  C   UNL     1      47.139   8.167  12.382  0.00  0.00    +0.000 A 
ATOM      5  C   UNL     1      48.006   7.418  11.590  0.00  0.00    +0.000 A 
ATOM      6  C   UNL     1      49.333   7.839  11.390  0.00  0.00    +0.000 A 
ENDROOT
BRANCH   1   7
ATOM      7  C   UNL     1      51.228   9.485  11.728  0.00  0.00    +0.000 C 
BRANCH   7   8
ATOM      8  C   UNL     1      52.200   8.342  11.447  0.00  0.00    +0.000 C 
BRANCH   8   9
ATOM      9  N   UNL     1      52.849   7.896  12.683  0.00  0.00    +0.000 NA
ATOM     10  H   UNL     1      53.517   8.601  12.991  0.00  0.00    +0.000 HD
ATOM     11  H   UNL     1      53.389   7.050  12.501  0.00  0.00    +0.000 HD
ENDBRANCH   8   9
ENDBRANCH   7   8
ENDBRANCH   1   7
BRANCH   4  12
ATOM     12  C   UNL     1      45.726   7.685  12.661  0.00  0.00    +0.000 C 
BRANCH  12  13
ATOM     13  N   UNL     1      45.627   6.240  12.858  0.00  0.00    +0.000 N 
ATOM     14  C   UNL     1      46.404   5.527  13.740  0.00  0.00    +0.000 A 
ATOM     15  C   UNL     1      46.044   4.202  13.646  0.00  0.00    +0.000 A 
ATOM     16  C   UNL     1      45.417   4.071  12.385  0.00  0.00    +0.000 A 
ATOM     17  C   UNL     1      45.204   2.985  11.514  0.00  0.00    +0.000 A 
ATOM     18  C   UNL     1      44.528   3.215  10.317  0.00  0.00    +0.000 A 
ATOM     19 CL   UNL     1      44.468   1.972   9.126  0.00  0.00    +0.000 Cl
ATOM     20  C   UNL     1      43.939   4.450  10.053  0.00  0.00    +0.000 A 
ATOM     21  C   UNL     1      44.143   5.541  10.904  0.00  0.00    +0.000 A 
ATOM     22  C   UNL     1      44.990   5.348  12.006  0.00  0.00    +0.000 A 
ENDBRANCH  12  13
ENDBRANCH   4  12
TORSDOF 5
ENDMDL
MODEL 9
REMARK VINA RESULT:    -5.060      3.339      5.305
REMARK INTER + INTRA:          -6.936
REMARK INTER:                  -6.337
REMARK INTRA:                  -0.599
REMARK UNBOUND:                -0.545
REMARK  Name = 
REMARK  5 active torsions:
REMARK  status: ('A' for Active; 'I' for Inactive)
REMARK    1  A    between atoms: N_1  and  C_2
REMARK    2  A    between atoms: C_2  and  C_3
REMARK    3  A    between atoms: C_3  and  C_4
REMARK    4  A    between atoms: C_7  and  C_8
REMARK    5  A    between atoms: C_8  and  N_9
REMARK                            x       y       z     vdW  Elec       q    Type
REMARK                         _______ _______ _______ _____ _____    ______ ____
ROOT
ATOM      1  C   UNL     1      45.319   4.575  11.716  0.00  0.00    +0.000 A 
ATOM      2  C   UNL     1      45.872   4.613  13.003  0.00  0.00    +0.000 A 
ATOM      3  C   UNL     1      46.458   5.787  13.487  0.00  0.00    +0.000 A 
ATOM      4  C   UNL     1      46.509   6.945  12.692  0.00  0.00    +0.000 A 
ATOM      5  C   UNL     1      45.968   6.902  11.409  0.00  0.00    +0.000 A 
ATOM      6  C   UNL     1      45.364   5.726  10.928  0.00  0.00    +0.000 A 
ENDROOT
BRANCH   1   7
ATOM      7  C   UNL     1      44.680   3.302  11.186  0.00  0.00    +0.000 C 
BRANCH   7   8
ATOM      8  C   UNL     1      43.390   2.918  11.907  0.00  0.00    +0.000 C 
BRANCH   8   9
ATOM      9  N   UNL     1      43.015   1.535  11.598  0.00  0.00    +0.000 NA
ATOM     10  H   UNL     1      42.931   1.003  12.463  0.00  0.00    +0.000 HD
ATOM     11  H   UNL     1      43.758   1.090  11.059  0.00  0.00    +0.000 HD
ENDBRANCH   8   9
ENDBRANCH   7   8
ENDBRANCH   1   7
BRANCH   4  12
ATOM     12  C   UNL     1      47.100   8.229  13.246  0.00  0.00    +0.000 C 
BRANCH  12  13
ATOM     13  N   UNL     1      48.461   8.077  13.755  0.00  0.00    +0.000 N 
ATOM     14  C   UNL     1      48.826   8.311  15.060  0.00  0.00    +0.000 A 
ATOM     15  C   UNL     1      50.179   8.080  15.168  0.00  0.00    +0.000 A 
ATOM     16  C   UNL     1      50.686   8.188  13.853  0.00  0.00    +0.000 A 
ATOM     17  C   UNL     1      51.959   8.473  13.322  0.00  0.00    +0.000 A 
ATOM     18  C   UNL     1      52.112   8.498  11.937  0.00  0.00    +0.000 A 
ATOM     19 CL   UNL     1      53.583   9.083  11.259  0.00  0.00    +0.000 Cl
ATOM     20  C   UNL     1      51.077   8.099  11.095  0.00  0.00    +0.000 A 
ATOM     21  C   UNL     1      49.805   7.814  11.602  0.00  0.00    +0.000 A 
ATOM     22  C   UNL     1      49.610   7.984  12.982  0.00  0.00    +0.000 A 
ENDBRANCH  12  13
ENDBRANCH   4  12
TORSDOF 5
ENDMDL
