MODEL 1
REMARK VINA RESULT:    -7.285      0.000      0.000
REMARK INTER + INTRA:          -9.388
REMARK INTER:                  -8.989
REMARK INTRA:                  -0.400
REMARK UNBOUND:                -0.400
REMARK  Name = 
REMARK  5 active torsions:
REMARK  status: ('A' for Active; 'I' for Inactive)
REMARK    1  A    between atoms: C_1  and  C_2
REMARK    2  A    between atoms: C_2  and  N_3
REMARK    3  A    between atoms: C_2  and  C_14
REMARK    4  A    between atoms: N_3  and  C_4
REMARK    5  A    between atoms: C_7  and  C_8
REMARK                            x       y       z     vdW  Elec       q    Type
REMARK                         _______ _______ _______ _____ _____    ______ ____
ROOT
ATOM      1  C   UNL     1      45.121   4.424   9.330  0.00  0.00    +0.000 A 
ATOM      2  N   UNL     1      45.923   4.879   8.341  0.00  0.00    +0.000 NA
ATOM      3  C   UNL     1      46.583   3.971   7.575  0.00  0.00    +0.000 A 
ATOM      4  C   UNL     1      46.501   2.599   7.745  0.00  0.00    +0.000 A 
ATOM      5  C   UNL     1      45.666   2.133   8.762  0.00  0.00    +0.000 A 
ATOM      6  C   UNL     1      44.952   3.047   9.541  0.00  0.00    +0.000 A 
ATOM      7 BR   UNL     1      43.811   2.366  10.896  0.00  0.00    +0.000 Br
ENDROOT
BRANCH   4   8
ATOM      8  C   UNL     1      47.251   1.620   6.925  0.00  0.00    +0.000 C 
ATOM      9  N   UNL     1      48.278   2.055   6.135  0.00  0.00    +0.000 N 
ATOM     10  O   UNL     1      46.955   0.430   6.934  0.00  0.00    +0.000 OA
ATOM     11  H   UNL     1      48.559   3.015   5.993  0.00  0.00    +0.000 HD
ATOM     12  H   UNL     1      48.743   1.349   5.570  0.00  0.00    +0.000 HD
ENDBRANCH   4   8
BRANCH   1  13
ATOM     13  N   UNL     1      44.447   5.348  10.146  0.00  0.00    +0.000 N 
ATOM     14  H   UNL     1      44.287   6.186   9.591  0.00  0.00    +0.000 HD
BRANCH  13  16
ATOM     15  C   UNL     1      43.852   5.733  12.489  0.00  0.00    +0.000 C 
ATOM     16  C   UNL     1      45.006   5.612  11.480  0.00  0.00    +0.000 C 
BRANCH  16  17
ATOM     17  C   UNL     1      45.870   6.914  11.493  0.00  0.00    +0.000 C 
ATOM     18  C   UNL     1      47.349   6.688  11.864  0.00  0.00    +0.000 C 
ATOM     19  C   UNL     1      48.151   7.990  11.857  0.00  0.00    +0.000 C 
ATOM     20  C   UNL     1      47.517   9.044  12.757  0.00  0.00    +0.000 C 
ATOM     21  C   UNL     1      46.070   9.304  12.355  0.00  0.00    +0.000 C 
ATOM     22  C   UNL     1      45.245   8.017  12.371  0.00  0.00    +0.000 C 
ENDBRANCH  16  17
ENDBRANCH  13  16
ENDBRANCH   1  13
TORSDOF 4
ENDMDL
MODEL 2
REMARK VINA RESULT:    -6.515      3.647      6.727
REMARK INTER + INTRA:          -8.438
REMARK INTER:                  -7.925
REMARK INTRA:                  -0.513
REMARK UNBOUND:                -0.400
REMARK  Name = 
REMARK  5 active torsions:
REMARK  status: ('A' for Active; 'I' for Inactive)
REMARK    1  A    between atoms: C_1  and  C_2
REMARK    2  A    between atoms: C_2  and  N_3
REMARK    3  A    between atoms: C_2  and  C_14
REMARK    4  A    between atoms: N_3  and  C_4
REMARK    5  A    between atoms: C_7  and  C_8
REMARK                            x       y       z     vdW  Elec       q    Type
REMARK                         _______ _______ _______ _____ _____    ______ ____
ROOT
ATOM      1  C   UNL     1      45.055   5.928  12.117  0.00  0.00    +0.000 A 
ATOM      2  N   UNL     1      44.256   6.723  11.369  0.00  0.00    +0.000 NA
ATOM      3  C   UNL     1      44.501   8.060  11.361  0.00  0.00    +0.000 A 
ATOM      4  C   UNL     1      45.514   8.673  12.080  0.00  0.00    +0.000 A 
ATOM      5  C   UNL     1      46.341   7.849  12.844  0.00  0.00    +0.000 A 
ATOM      6  C   UNL     1      46.128   6.468  12.843  0.00  0.00    +0.000 A 
ATOM      7 BR   UNL     1      47.293   5.385  13.877  0.00  0.00    +0.000 Br
ENDROOT
BRANCH   4   8
ATOM      8  C   UNL     1      45.750  10.136  12.088  0.00  0.00    +0.000 C 
ATOM      9  N   UNL     1      44.681  10.987  12.105  0.00  0.00    +0.000 N 
ATOM     10  O   UNL     1      46.889  10.592  12.065  0.00  0.00    +0.000 OA
ATOM     11  H   UNL     1      43.707  10.726  12.051  0.00  0.00    +0.000 HD
ATOM     12  H   UNL     1      44.896  11.980  12.082  0.00  0.00    +0.000 HD
ENDBRANCH   4   8
BRANCH   1  13
ATOM     13  N   UNL     1      44.804   4.546  12.156  0.00  0.00    +0.000 N 
ATOM     14  H   UNL     1      45.670   4.087  12.433  0.00  0.00    +0.000 HD
BRANCH  13  16
ATOM     15  C   UNL     1      43.341   2.716  11.448  0.00  0.00    +0.000 C 
ATOM     16  C   UNL     1      44.151   3.940  10.988  0.00  0.00    +0.000 C 
BRANCH  16  17
ATOM     17  C   UNL     1      45.193   3.515   9.903  0.00  0.00    +0.000 C 
ATOM     18  C   UNL     1      45.376   4.540   8.766  0.00  0.00    +0.000 C 
ATOM     19  C   UNL     1      46.408   4.080   7.735  0.00  0.00    +0.000 C 
ATOM     20  C   UNL     1      46.073   2.702   7.181  0.00  0.00    +0.000 C 
ATOM     21  C   UNL     1      45.945   1.679   8.303  0.00  0.00    +0.000 C 
ATOM     22  C   UNL     1      44.905   2.110   9.338  0.00  0.00    +0.000 C 
ENDBRANCH  16  17
ENDBRANCH  13  16
ENDBRANCH   1  13
TORSDOF 4
ENDMDL
MODEL 3
REMARK VINA RESULT:    -6.359      3.494      6.382
REMARK INTER + INTRA:          -8.246
REMARK INTER:                  -8.815
REMARK INTRA:                   0.570
REMARK UNBOUND:                -0.400
REMARK  Name = 
REMARK  5 active torsions:
REMARK  status: ('A' for Active; 'I' for Inactive)
REMARK    1  A    between atoms: C_1  and  C_2
REMARK    2  A    between atoms: C_2  and  N_3
REMARK    3  A    between atoms: C_2  and  C_14
REMARK    4  A    between atoms: N_3  and  C_4
REMARK    5  A    between atoms: C_7  and  C_8
REMARK                            x       y       z     vdW  Elec       q    Type
REMARK                         _______ _______ _______ _____ _____    ______ ____
ROOT
ATOM      1  C   UNL     1      45.565   5.215  11.635  0.00  0.00    +0.000 A 
ATOM      2  N   UNL     1      45.847   3.929  11.945  0.00  0.00    +0.000 NA
ATOM      3  C   UNL     1      46.402   3.664  13.157  0.00  0.00    +0.000 A 
ATOM      4  C   UNL     1      46.713   4.628  14.102  0.00  0.00    +0.000 A 
ATOM      5  C   UNL     1      46.413   5.953  13.781  0.00  0.00    +0.000 A 
ATOM      6  C   UNL     1      45.813   6.246  12.554  0.00  0.00    +0.000 A 
ATOM      7 BR   UNL     1      45.402   8.059  12.171  0.00  0.00    +0.000 Br
ENDROOT
BRANCH   4   8
ATOM      8  C   UNL     1      47.347   4.330  15.406  0.00  0.00    +0.000 C 
ATOM      9  N   UNL     1      47.607   5.353  16.275  0.00  0.00    +0.000 N 
ATOM     10  O   UNL     1      47.655   3.183  15.712  0.00  0.00    +0.000 OA
ATOM     11  H   UNL     1      47.465   6.338  16.100  0.00  0.00    +0.000 HD
ATOM     12  H   UNL     1      48.068   5.100  17.144  0.00  0.00    +0.000 HD
ENDBRANCH   4   8
BRANCH   1  13
ATOM     13  N   UNL     1      45.012   5.512  10.378  0.00  0.00    +0.000 N 
ATOM     14  H   UNL     1      44.716   6.485  10.397  0.00  0.00    +0.000 HD
BRANCH  13  16
ATOM     15  C   UNL     1      43.375   3.806  11.011  0.00  0.00    +0.000 C 
ATOM     16  C   UNL     1      44.001   4.589   9.844  0.00  0.00    +0.000 C 
BRANCH  16  17
ATOM     17  C   UNL     1      44.618   3.599   8.804  0.00  0.00    +0.000 C 
ATOM     18  C   UNL     1      45.008   2.227   9.390  0.00  0.00    +0.000 C 
ATOM     19  C   UNL     1      45.602   1.295   8.333  0.00  0.00    +0.000 C 
ATOM     20  C   UNL     1      46.782   1.939   7.616  0.00  0.00    +0.000 C 
ATOM     21  C   UNL     1      46.380   3.270   6.992  0.00  0.00    +0.000 C 
ATOM     22  C   UNL     1      45.799   4.225   8.035  0.00  0.00    +0.000 C 
ENDBRANCH  16  17
ENDBRANCH  13  16
ENDBRANCH   1  13
TORSDOF 4
ENDMDL
MODEL 4
REMARK VINA RESULT:    -6.274      3.569      6.336
REMARK INTER + INTRA:          -8.140
REMARK INTER:                  -8.230
REMARK INTRA:                   0.089
REMARK UNBOUND:                -0.400
REMARK  Name = 
REMARK  5 active torsions:
REMARK  status: ('A' for Active; 'I' for Inactive)
REMARK    1  A    between atoms: C_1  and  C_2
REMARK    2  A    between atoms: C_2  and  N_3
REMARK    3  A    between atoms: C_2  and  C_14
REMARK    4  A    between atoms: N_3  and  C_4
REMARK    5  A    between atoms: C_7  and  C_8
REMARK                            x       y       z     vdW  Elec       q    Type
REMARK                         _______ _______ _______ _____ _____    ______ ____
ROOT
ATOM      1  C   UNL     1      44.630   5.250  12.506  0.00  0.00    +0.000 A 
ATOM      2  N   UNL     1      45.186   4.335  13.332  0.00  0.00    +0.000 NA
ATOM      3  C   UNL     1      46.337   4.663  13.977  0.00  0.00    +0.000 A 
ATOM      4  C   UNL     1      46.993   5.875  13.836  0.00  0.00    +0.000 A 
ATOM      5  C   UNL     1      46.411   6.818  12.989  0.00  0.00    +0.000 A 
ATOM      6  C   UNL     1      45.211   6.516  12.341  0.00  0.00    +0.000 A 
ATOM      7 BR   UNL     1      44.446   7.839  11.216  0.00  0.00    +0.000 Br
ENDROOT
BRANCH   4   8
ATOM      8  C   UNL     1      48.264   6.208  14.519  0.00  0.00    +0.000 C 
ATOM      9  N   UNL     1      48.365   6.030  15.871  0.00  0.00    +0.000 N 
ATOM     10  O   UNL     1      49.220   6.654  13.893  0.00  0.00    +0.000 OA
ATOM     11  H   UNL     1      47.625   5.741  16.494  0.00  0.00    +0.000 HD
ATOM     12  H   UNL     1      49.249   6.300  16.296  0.00  0.00    +0.000 HD
ENDBRANCH   4   8
BRANCH   1  13
ATOM     13  N   UNL     1      43.452   4.921  11.813  0.00  0.00    +0.000 N 
ATOM     14  H   UNL     1      42.674   5.050  12.457  0.00  0.00    +0.000 HD
BRANCH  13  16
ATOM     15  C   UNL     1      43.424   2.491  12.105  0.00  0.00    +0.000 C 
ATOM     16  C   UNL     1      43.423   3.644  11.087  0.00  0.00    +0.000 C 
BRANCH  16  17
ATOM     17  C   UNL     1      44.642   3.506  10.119  0.00  0.00    +0.000 C 
ATOM     18  C   UNL     1      44.772   4.653   9.097  0.00  0.00    +0.000 C 
ATOM     19  C   UNL     1      45.982   4.473   8.179  0.00  0.00    +0.000 C 
ATOM     20  C   UNL     1      45.961   3.120   7.481  0.00  0.00    +0.000 C 
ATOM     21  C   UNL     1      45.885   1.985   8.495  0.00  0.00    +0.000 C 
ATOM     22  C   UNL     1      44.673   2.134   9.415  0.00  0.00    +0.000 C 
ENDBRANCH  16  17
ENDBRANCH  13  16
ENDBRANCH   1  13
TORSDOF 4
ENDMDL
MODEL 5
REMARK VINA RESULT:    -6.197      3.662      6.693
REMARK INTER + INTRA:          -8.046
REMARK INTER:                  -7.530
REMARK INTRA:                  -0.516
REMARK UNBOUND:                -0.400
REMARK  Name = 
REMARK  5 active torsions:
REMARK  status: ('A' for Active; 'I' for Inactive)
REMARK    1  A    between atoms: C_1  and  C_2
REMARK    2  A    between atoms: C_2  and  N_3
REMARK    3  A    between atoms: C_2  and  C_14
REMARK    4  A    between atoms: N_3  and  C_4
REMARK    5  A    between atoms: C_7  and  C_8
REMARK                            x       y       z     vdW  Elec       q    Type
REMARK                         _______ _______ _______ _____ _____    ______ ____
ROOT
ATOM      1  C   UNL     1      45.771   5.960  12.731  0.00  0.00    +0.000 A 
ATOM      2  N   UNL     1      45.638   7.253  12.356  0.00  0.00    +0.000 NA
ATOM      3  C   UNL     1      46.560   8.151  12.793  0.00  0.00    +0.000 A 
ATOM      4  C   UNL     1      47.631   7.834  13.613  0.00  0.00    +0.000 A 
ATOM      5  C   UNL     1      47.769   6.498  13.991  0.00  0.00    +0.000 A 
ATOM      6  C   UNL     1      46.852   5.552  13.528  0.00  0.00    +0.000 A 
ATOM      7 BR   UNL     1      47.095   3.743  14.049  0.00  0.00    +0.000 Br
ENDROOT
BRANCH   4   8
ATOM      8  C   UNL     1      48.610   8.828  14.110  0.00  0.00    +0.000 C 
ATOM      9  N   UNL     1      48.166   9.917  14.805  0.00  0.00    +0.000 N 
ATOM     10  O   UNL     1      49.810   8.694  13.895  0.00  0.00    +0.000 OA
ATOM     11  H   UNL     1      47.202  10.166  14.977  0.00  0.00    +0.000 HD
ATOM     12  H   UNL     1      48.875  10.584  15.100  0.00  0.00    +0.000 HD
ENDBRANCH   4   8
BRANCH   1  13
ATOM     13  N   UNL     1      44.816   5.021  12.307  0.00  0.00    +0.000 N 
ATOM     14  H   UNL     1      45.286   4.122  12.231  0.00  0.00    +0.000 HD
BRANCH  13  16
ATOM     15  C   UNL     1      42.510   5.349  11.553  0.00  0.00    +0.000 C 
ATOM     16  C   UNL     1      43.992   5.368  11.140  0.00  0.00    +0.000 C 
BRANCH  16  17
ATOM     17  C   UNL     1      44.231   4.378   9.955  0.00  0.00    +0.000 C 
ATOM     18  C   UNL     1      44.302   2.896  10.371  0.00  0.00    +0.000 C 
ATOM     19  C   UNL     1      44.531   1.971   9.176  0.00  0.00    +0.000 C 
ATOM     20  C   UNL     1      45.767   2.375   8.382  0.00  0.00    +0.000 C 
ATOM     21  C   UNL     1      45.670   3.826   7.925  0.00  0.00    +0.000 C 
ATOM     22  C   UNL     1      45.457   4.772   9.107  0.00  0.00    +0.000 C 
ENDBRANCH  16  17
ENDBRANCH  13  16
ENDBRANCH   1  13
TORSDOF 4
ENDMDL
MODEL 6
REMARK VINA RESULT:    -6.127      6.322      7.945
REMARK INTER + INTRA:          -7.959
REMARK INTER:                  -7.448
REMARK INTRA:                  -0.512
REMARK UNBOUND:                -0.400
REMARK  Name = 
REMARK  5 active torsions:
REMARK  status: ('A' for Active; 'I' for Inactive)
REMARK    1  A    between atoms: C_1  and  C_2
REMARK    2  A    between atoms: C_2  and  N_3
REMARK    3  A    between atoms: C_2  and  C_14
REMARK    4  A    between atoms: N_3  and  C_4
REMARK    5  A    between atoms: C_7  and  C_8
REMARK                            x       y       z     vdW  Elec       q    Type
REMARK                         _______ _______ _______ _____ _____    ______ ____
ROOT
ATOM      1  C   UNL     1      47.947   4.063  16.071  0.00  0.00    +0.000 A 
ATOM      2  N   UNL     1      48.123   2.745  15.825  0.00  0.00    +0.000 NA
ATOM      3  C   UNL     1      49.200   2.124  16.375  0.00  0.00    +0.000 A 
ATOM      4  C   UNL     1      50.145   2.755  17.167  0.00  0.00    +0.000 A 
ATOM      5  C   UNL     1      49.955   4.113  17.425  0.00  0.00    +0.000 A 
ATOM      6  C   UNL     1      48.838   4.765  16.897  0.00  0.00    +0.000 A 
ATOM      7 BR   UNL     1      48.609   6.607  17.293  0.00  0.00    +0.000 Br
ENDROOT
BRANCH   4   8
ATOM      8  C   UNL     1      51.332   2.074  17.734  0.00  0.00    +0.000 C 
ATOM      9  N   UNL     1      51.353   0.709  17.802  0.00  0.00    +0.000 N 
ATOM     10  O   UNL     1      52.288   2.717  18.155  0.00  0.00    +0.000 OA
ATOM     11  H   UNL     1      50.598   0.086  17.555  0.00  0.00    +0.000 HD
ATOM     12  H   UNL     1      52.178   0.292  18.224  0.00  0.00    +0.000 HD
ENDBRANCH   4   8
BRANCH   1  13
ATOM     13  N   UNL     1      46.852   4.728  15.493  0.00  0.00    +0.000 N 
ATOM     14  H   UNL     1      46.009   4.368  15.936  0.00  0.00    +0.000 HD
BRANCH  13  16
ATOM     15  C   UNL     1      47.216   6.176  13.554  0.00  0.00    +0.000 C 
ATOM     16  C   UNL     1      46.783   4.778  14.026  0.00  0.00    +0.000 C 
BRANCH  16  17
ATOM     17  C   UNL     1      45.343   4.458  13.508  0.00  0.00    +0.000 C 
ATOM     18  C   UNL     1      45.289   3.356  12.431  0.00  0.00    +0.000 C 
ATOM     19  C   UNL     1      43.860   3.078  11.962  0.00  0.00    +0.000 C 
ATOM     20  C   UNL     1      43.170   4.348  11.480  0.00  0.00    +0.000 C 
ATOM     21  C   UNL     1      43.179   5.418  12.564  0.00  0.00    +0.000 C 
ATOM     22  C   UNL     1      44.600   5.725  13.037  0.00  0.00    +0.000 C 
ENDBRANCH  16  17
ENDBRANCH  13  16
ENDBRANCH   1  13
TORSDOF 4
ENDMDL
MODEL 7
REMARK VINA RESULT:    -5.761      4.809      6.571
REMARK INTER + INTRA:          -7.508
REMARK INTER:                  -7.004
REMARK INTRA:                  -0.504
REMARK UNBOUND:                -0.400
REMARK  Name = 
REMARK  5 active torsions:
REMARK  status: ('A' for Active; 'I' for Inactive)
REMARK    1  A    between atoms: C_1  and  C_2
REMARK    2  A    between atoms: C_2  and  N_3
REMARK    3  A    between atoms: C_2  and  C_14
REMARK    4  A    between atoms: N_3  and  C_4
REMARK    5  A    between atoms: C_7  and  C_8
REMARK                            x       y       z     vdW  Elec       q    Type
REMARK                         _______ _______ _______ _____ _____    ______ ____
ROOT
ATOM      1  C   UNL     1      46.888   5.839  13.396  0.00  0.00    +0.000 A 
ATOM      2  N   UNL     1      46.487   4.554  13.268  0.00  0.00    +0.000 NA
ATOM      3  C   UNL     1      45.266   4.309  12.722  0.00  0.00    +0.000 A 
ATOM      4  C   UNL     1      44.391   5.294  12.295  0.00  0.00    +0.000 A 
ATOM      5  C   UNL     1      44.812   6.618  12.422  0.00  0.00    +0.000 A 
ATOM      6  C   UNL     1      46.075   6.893  12.950  0.00  0.00    +0.000 A 
ATOM      7 BR   UNL     1      46.614   8.707  13.082  0.00  0.00    +0.000 Br
ENDROOT
BRANCH   4   8
ATOM      8  C   UNL     1      43.049   5.016  11.732  0.00  0.00    +0.000 C 
ATOM      9  N   UNL     1      42.094   5.994  11.763  0.00  0.00    +0.000 N 
ATOM     10  O   UNL     1      42.780   3.920  11.253  0.00  0.00    +0.000 OA
ATOM     11  H   UNL     1      42.181   6.903  12.195  0.00  0.00    +0.000 HD
ATOM     12  H   UNL     1      41.182   5.745  11.389  0.00  0.00    +0.000 HD
ENDBRANCH   4   8
BRANCH   1  13
ATOM     13  N   UNL     1      48.137   6.113  13.979  0.00  0.00    +0.000 N 
ATOM     14  H   UNL     1      48.791   5.410  13.641  0.00  0.00    +0.000 HD
BRANCH  13  16
ATOM     15  C   UNL     1      49.281   7.343  15.759  0.00  0.00    +0.000 C 
ATOM     16  C   UNL     1      48.180   6.321  15.433  0.00  0.00    +0.000 C 
BRANCH  16  17
ATOM     17  C   UNL     1      48.446   4.983  16.197  0.00  0.00    +0.000 C 
ATOM     18  C   UNL     1      47.174   4.299  16.736  0.00  0.00    +0.000 C 
ATOM     19  C   UNL     1      47.488   2.994  17.469  0.00  0.00    +0.000 C 
ATOM     20  C   UNL     1      48.508   3.206  18.581  0.00  0.00    +0.000 C 
ATOM     21  C   UNL     1      49.785   3.835  18.036  0.00  0.00    +0.000 C 
ATOM     22  C   UNL     1      49.497   5.150  17.312  0.00  0.00    +0.000 C 
ENDBRANCH  16  17
ENDBRANCH  13  16
ENDBRANCH   1  13
TORSDOF 4
ENDMDL
MODEL 8
REMARK VINA RESULT:    -5.748      3.432      4.607
REMARK INTER + INTRA:          -7.492
REMARK INTER:                  -6.766
REMARK INTRA:                  -0.726
REMARK UNBOUND:                -0.400
REMARK  Name = 
REMARK  5 active torsions:
REMARK  status: ('A' for Active; 'I' for Inactive)
REMARK    1  A    between atoms: C_1  and  C_2
REMARK    2  A    between atoms: C_2  and  N_3
REMARK    3  A    between atoms: C_2  and  C_14
REMARK    4  A    between atoms: N_3  and  C_4
REMARK    5  A    between atoms: C_7  and  C_8
REMARK                            x       y       z     vdW  Elec       q    Type
REMARK                         _______ _______ _______ _____ _____    ______ ____
ROOT
ATOM      1  C   UNL     1      46.157   5.752  13.244  0.00  0.00    +0.000 A 
ATOM      2  N   UNL     1      46.348   4.450  13.554  0.00  0.00    +0.000 NA
ATOM      3  C   UNL     1      45.676   3.510  12.837  0.00  0.00    +0.000 A 
ATOM      4  C   UNL     1      44.793   3.796  11.809  0.00  0.00    +0.000 A 
ATOM      5  C   UNL     1      44.604   5.141  11.487  0.00  0.00    +0.000 A 
ATOM      6  C   UNL     1      45.308   6.122  12.189  0.00  0.00    +0.000 A 
ATOM      7 BR   UNL     1      45.038   7.936  11.701  0.00  0.00    +0.000 Br
ENDROOT
BRANCH   4   8
ATOM      8  C   UNL     1      44.042   2.764  11.057  0.00  0.00    +0.000 C 
ATOM      9  N   UNL     1      44.546   2.298   9.874  0.00  0.00    +0.000 N 
ATOM     10  O   UNL     1      42.971   2.334  11.471  0.00  0.00    +0.000 OA
ATOM     11  H   UNL     1      45.376   2.630   9.404  0.00  0.00    +0.000 HD
ATOM     12  H   UNL     1      43.980   1.611   9.383  0.00  0.00    +0.000 HD
ENDBRANCH   4   8
BRANCH   1  13
ATOM     13  N   UNL     1      46.824   6.739  13.989  0.00  0.00    +0.000 N 
ATOM     14  H   UNL     1      46.441   7.641  13.712  0.00  0.00    +0.000 HD
BRANCH  13  16
ATOM     15  C   UNL     1      48.763   6.550  15.471  0.00  0.00    +0.000 C 
ATOM     16  C   UNL     1      48.293   6.695  14.014  0.00  0.00    +0.000 C 
BRANCH  16  17
ATOM     17  C   UNL     1      48.917   7.978  13.374  0.00  0.00    +0.000 C 
ATOM     18  C   UNL     1      48.094   9.261  13.599  0.00  0.00    +0.000 C 
ATOM     19  C   UNL     1      48.749  10.486  12.959  0.00  0.00    +0.000 C 
ATOM     20  C   UNL     1      49.024  10.266  11.477  0.00  0.00    +0.000 C 
ATOM     21  C   UNL     1      49.883   9.026  11.262  0.00  0.00    +0.000 C 
ATOM     22  C   UNL     1      49.239   7.784  11.879  0.00  0.00    +0.000 C 
ENDBRANCH  16  17
ENDBRANCH  13  16
ENDBRANCH   1  13
TORSDOF 4
ENDMDL
MODEL 9
REMARK VINA RESULT:    -5.709      3.305      4.463
REMARK INTER + INTRA:          -7.444
REMARK INTER:                  -6.977
REMARK INTRA:                  -0.467
REMARK UNBOUND:                -0.400
REMARK  Name = 
REMARK  5 active torsions:
REMARK  status: ('A' for Active; 'I' for Inactive)
REMARK    1  A    between atoms: C_1  and  C_2
REMARK    2  A    between atoms: C_2  and  N_3
REMARK    3  A    between atoms: C_2  and  C_14
REMARK    4  A    between atoms: N_3  and  C_4
REMARK    5  A    between atoms: C_7  and  C_8
REMARK                            x       y       z     vdW  Elec       q    Type
REMARK                         _______ _______ _______ _____ _____    ______ ____
ROOT
ATOM      1  C   UNL     1      46.109   6.085  12.948  0.00  0.00    +0.000 A 
ATOM      2  N   UNL     1      45.384   6.344  11.836  0.00  0.00    +0.000 NA
ATOM      3  C   UNL     1      44.736   5.313  11.233  0.00  0.00    +0.000 A 
ATOM      4  C   UNL     1      44.776   4.000  11.675  0.00  0.00    +0.000 A 
ATOM      5  C   UNL     1      45.519   3.739  12.826  0.00  0.00    +0.000 A 
ATOM      6  C   UNL     1      46.167   4.788  13.482  0.00  0.00    +0.000 A 
ATOM      7 BR   UNL     1      47.146   4.388  15.057  0.00  0.00    +0.000 Br
ENDROOT
BRANCH   4   8
ATOM      8  C   UNL     1      44.091   2.879  10.990  0.00  0.00    +0.000 C 
ATOM      9  N   UNL     1      44.651   2.340   9.865  0.00  0.00    +0.000 N 
ATOM     10  O   UNL     1      43.026   2.439  11.408  0.00  0.00    +0.000 OA
ATOM     11  H   UNL     1      45.481   2.668   9.393  0.00  0.00    +0.000 HD
ATOM     12  H   UNL     1      44.129   1.591   9.417  0.00  0.00    +0.000 HD
ENDBRANCH   4   8
BRANCH   1  13
ATOM     13  N   UNL     1      46.805   7.134  13.573  0.00  0.00    +0.000 N 
ATOM     14  H   UNL     1      46.136   7.880  13.749  0.00  0.00    +0.000 HD
BRANCH  13  16
ATOM     15  C   UNL     1      49.224   7.296  13.907  0.00  0.00    +0.000 C 
ATOM     16  C   UNL     1      48.057   7.587  12.950  0.00  0.00    +0.000 C 
BRANCH  16  17
ATOM     17  C   UNL     1      48.010   9.111  12.609  0.00  0.00    +0.000 C 
ATOM     18  C   UNL     1      46.630   9.613  12.138  0.00  0.00    +0.000 C 
ATOM     19  C   UNL     1      46.636  11.109  11.823  0.00  0.00    +0.000 C 
ATOM     20  C   UNL     1      47.720  11.466  10.815  0.00  0.00    +0.000 C 
ATOM     21  C   UNL     1      49.091  11.016  11.306  0.00  0.00    +0.000 C 
ATOM     22  C   UNL     1      49.113   9.519  11.612  0.00  0.00    +0.000 C 
ENDBRANCH  16  17
ENDBRANCH  13  16
ENDBRANCH   1  13
TORSDOF 4
ENDMDL
