MODEL 1
REMARK VINA RESULT:    -8.059      0.000      0.000
REMARK INTER + INTRA:         -10.448
REMARK INTER:                  -9.944
REMARK INTRA:                  -0.504
REMARK UNBOUND:                -0.504
REMARK  Name = 
REMARK  4 active torsions:
REMARK  status: ('A' for Active; 'I' for Inactive)
REMARK    1  A    between atoms: C_2  and  C_3
REMARK    2  A    between atoms: N_7  and  C_8
REMARK    3  A    between atoms: C_8  and  C_9
REMARK    4  A    between atoms: C_11  and  C_12
REMARK                            x       y       z     vdW  Elec       q    Type
REMARK                         _______ _______ _______ _____ _____    ______ ____
ROOT
ATOM      1  C   UNL     1      44.584   5.696  11.652  0.00  0.00    +0.000 A 
ATOM      2  C   UNL     1      45.230   4.975  12.660  0.00  0.00    +0.000 A 
ATOM      3  C   UNL     1      46.271   5.561  13.395  0.00  0.00    +0.000 A 
ATOM      4  C   UNL     1      46.606   6.882  13.069  0.00  0.00    +0.000 A 
ATOM      5  C   UNL     1      45.909   7.536  12.064  0.00  0.00    +0.000 A 
ATOM      6  N   UNL     1      44.914   6.975  11.349  0.00  0.00    +0.000 NA
ENDROOT
BRANCH   3   7
ATOM      7  C   UNL     1      46.983   4.817  14.455  0.00  0.00    +0.000 A 
ATOM      8  C   UNL     1      47.468   5.440  15.613  0.00  0.00    +0.000 A 
ATOM      9  C   UNL     1      48.133   4.705  16.595  0.00  0.00    +0.000 A 
ATOM     10  C   UNL     1      48.292   3.345  16.402  0.00  0.00    +0.000 A 
ATOM     11  N   UNL     1      47.850   2.692  15.310  0.00  0.00    +0.000 NA
ATOM     12  C   UNL     1      47.217   3.440  14.372  0.00  0.00    +0.000 A 
ENDBRANCH   3   7
BRANCH   1  13
ATOM     13  C   UNL     1      43.490   5.041  10.836  0.00  0.00    +0.000 C 
BRANCH  13  18
ATOM     14  C   UNL     1      46.575   2.492   7.584  0.00  0.00    +0.000 A 
ATOM     15  C   UNL     1      46.325   3.853   7.704  0.00  0.00    +0.000 A 
ATOM     16  C   UNL     1      45.404   4.292   8.656  0.00  0.00    +0.000 A 
ATOM     17  C   UNL     1      44.745   3.369   9.459  0.00  0.00    +0.000 A 
ATOM     18  N   UNL     1      43.844   3.700  10.427  0.00  0.00    +0.000 N 
ATOM     19  N   UNL     1      44.979   2.044   9.342  0.00  0.00    +0.000 NA
ATOM     20  C   UNL     1      45.886   1.634   8.421  0.00  0.00    +0.000 A 
ATOM     21  H   UNL     1      43.398   2.905  10.862  0.00  0.00    +0.000 HD
BRANCH  14  23
ATOM     22  N   UNL     1      48.264   1.580   5.848  0.00  0.00    +0.000 NA
ATOM     23  C   UNL     1      47.507   1.989   6.629  0.00  0.00    +0.000 C 
ENDBRANCH  14  23
ENDBRANCH  13  18
ENDBRANCH   1  13
TORSDOF 4
ENDMDL
MODEL 2
REMARK VINA RESULT:    -7.983      1.754      3.627
REMARK INTER + INTRA:         -10.354
REMARK INTER:                  -9.803
REMARK INTRA:                  -0.551
REMARK UNBOUND:                -0.504
REMARK  Name = 
REMARK  4 active torsions:
REMARK  status: ('A' for Active; 'I' for Inactive)
REMARK    1  A    between atoms: C_2  and  C_3
REMARK    2  A    between atoms: N_7  and  C_8
REMARK    3  A    between atoms: C_8  and  C_9
REMARK    4  A    between atoms: C_11  and  C_12
REMARK                            x       y       z     vdW  Elec       q    Type
REMARK                         _______ _______ _______ _____ _____    ______ ____
ROOT
ATOM      1  C   UNL     1      45.008   4.304  11.911  0.00  0.00    +0.000 A 
ATOM      2  C   UNL     1      45.452   5.606  11.659  0.00  0.00    +0.000 A 
ATOM      3  C   UNL     1      46.402   6.205  12.500  0.00  0.00    +0.000 A 
ATOM      4  C   UNL     1      46.871   5.433  13.570  0.00  0.00    +0.000 A 
ATOM      5  C   UNL     1      46.393   4.144  13.746  0.00  0.00    +0.000 A 
ATOM      6  N   UNL     1      45.473   3.567  12.948  0.00  0.00    +0.000 NA
ENDROOT
BRANCH   3   7
ATOM      7  C   UNL     1      46.876   7.585  12.267  0.00  0.00    +0.000 A 
ATOM      8  C   UNL     1      48.209   7.875  11.940  0.00  0.00    +0.000 A 
ATOM      9  C   UNL     1      48.621   9.191  11.725  0.00  0.00    +0.000 A 
ATOM     10  C   UNL     1      47.681  10.199  11.832  0.00  0.00    +0.000 A 
ATOM     11  N   UNL     1      46.389   9.982  12.144  0.00  0.00    +0.000 NA
ATOM     12  C   UNL     1      46.026   8.692  12.356  0.00  0.00    +0.000 A 
ENDBRANCH   3   7
BRANCH   1  13
ATOM     13  C   UNL     1      43.952   3.680  11.024  0.00  0.00    +0.000 C 
BRANCH  13  18
ATOM     14  C   UNL     1      46.866   2.322   6.990  0.00  0.00    +0.000 A 
ATOM     15  C   UNL     1      46.424   3.575   7.399  0.00  0.00    +0.000 A 
ATOM     16  C   UNL     1      45.602   3.672   8.522  0.00  0.00    +0.000 A 
ATOM     17  C   UNL     1      45.229   2.522   9.209  0.00  0.00    +0.000 A 
ATOM     18  N   UNL     1      44.447   2.516  10.325  0.00  0.00    +0.000 N 
ATOM     19  N   UNL     1      45.650   1.302   8.812  0.00  0.00    +0.000 NA
ATOM     20  C   UNL     1      46.458   1.225   7.726  0.00  0.00    +0.000 A 
ATOM     21  H   UNL     1      44.205   1.591  10.651  0.00  0.00    +0.000 HD
BRANCH  14  23
ATOM     22  N   UNL     1      48.390   2.037   4.919  0.00  0.00    +0.000 NA
ATOM     23  C   UNL     1      47.707   2.166   5.850  0.00  0.00    +0.000 C 
ENDBRANCH  14  23
ENDBRANCH  13  18
ENDBRANCH   1  13
TORSDOF 4
ENDMDL
MODEL 3
REMARK VINA RESULT:    -7.414      1.917      6.766
REMARK INTER + INTRA:          -9.651
REMARK INTER:                  -9.393
REMARK INTRA:                  -0.258
REMARK UNBOUND:                -0.504
REMARK  Name = 
REMARK  4 active torsions:
REMARK  status: ('A' for Active; 'I' for Inactive)
REMARK    1  A    between atoms: C_2  and  C_3
REMARK    2  A    between atoms: N_7  and  C_8
REMARK    3  A    between atoms: C_8  and  C_9
REMARK    4  A    between atoms: C_11  and  C_12
REMARK                            x       y       z     vdW  Elec       q    Type
REMARK                         _______ _______ _______ _____ _____    ______ ____
ROOT
ATOM      1  C   UNL     1      43.480   4.740  10.741  0.00  0.00    +0.000 A 
ATOM      2  C   UNL     1      44.323   4.421   9.672  0.00  0.00    +0.000 A 
ATOM      3  C   UNL     1      44.712   3.092   9.448  0.00  0.00    +0.000 A 
ATOM      4  C   UNL     1      44.207   2.131  10.332  0.00  0.00    +0.000 A 
ATOM      5  C   UNL     1      43.365   2.523  11.362  0.00  0.00    +0.000 A 
ATOM      6  N   UNL     1      42.995   3.800  11.587  0.00  0.00    +0.000 NA
ENDROOT
BRANCH   3   7
ATOM      7  C   UNL     1      45.614   2.730   8.335  0.00  0.00    +0.000 A 
ATOM      8  C   UNL     1      45.944   3.630   7.312  0.00  0.00    +0.000 A 
ATOM      9  C   UNL     1      46.802   3.253   6.278  0.00  0.00    +0.000 A 
ATOM     10  C   UNL     1      47.327   1.974   6.294  0.00  0.00    +0.000 A 
ATOM     11  N   UNL     1      47.046   1.067   7.248  0.00  0.00    +0.000 NA
ATOM     12  C   UNL     1      46.201   1.464   8.232  0.00  0.00    +0.000 A 
ENDBRANCH   3   7
BRANCH   1  13
ATOM     13  C   UNL     1      43.100   6.182  11.000  0.00  0.00    +0.000 C 
BRANCH  13  18
ATOM     14  C   UNL     1      47.511   6.714  13.619  0.00  0.00    +0.000 A 
ATOM     15  C   UNL     1      46.460   5.824  13.800  0.00  0.00    +0.000 A 
ATOM     16  C   UNL     1      45.344   5.911  12.967  0.00  0.00    +0.000 A 
ATOM     17  C   UNL     1      45.293   6.887  11.979  0.00  0.00    +0.000 A 
ATOM     18  N   UNL     1      44.258   7.040  11.105  0.00  0.00    +0.000 N 
ATOM     19  N   UNL     1      46.309   7.759  11.801  0.00  0.00    +0.000 NA
ATOM     20  C   UNL     1      47.391   7.653  12.612  0.00  0.00    +0.000 A 
ATOM     21  H   UNL     1      44.344   7.847  10.504  0.00  0.00    +0.000 HD
BRANCH  14  23
ATOM     22  N   UNL     1      49.620   6.634  15.115  0.00  0.00    +0.000 NA
ATOM     23  C   UNL     1      48.674   6.668  14.442  0.00  0.00    +0.000 C 
ENDBRANCH  14  23
ENDBRANCH  13  18
ENDBRANCH   1  13
TORSDOF 4
ENDMDL
MODEL 4
REMARK VINA RESULT:    -7.364      2.589      6.740
REMARK INTER + INTRA:          -9.590
REMARK INTER:                  -8.957
REMARK INTRA:                  -0.633
REMARK UNBOUND:                -0.504
REMARK  Name = 
REMARK  4 active torsions:
REMARK  status: ('A' for Active; 'I' for Inactive)
REMARK    1  A    between atoms: C_2  and  C_3
REMARK    2  A    between atoms: N_7  and  C_8
REMARK    3  A    between atoms: C_8  and  C_9
REMARK    4  A    between atoms: C_11  and  C_12
REMARK                            x       y       z     vdW  Elec       q    Type
REMARK                         _______ _______ _______ _____ _____    ______ ____
ROOT
ATOM      1  C   UNL     1      44.393   4.952  11.733  0.00  0.00    +0.000 A 
ATOM      2  C   UNL     1      45.084   4.614  10.565  0.00  0.00    +0.000 A 
ATOM      3  C   UNL     1      44.887   3.362   9.964  0.00  0.00    +0.000 A 
ATOM      4  C   UNL     1      43.973   2.501  10.585  0.00  0.00    +0.000 A 
ATOM      5  C   UNL     1      43.316   2.915  11.734  0.00  0.00    +0.000 A 
ATOM      6  N   UNL     1      43.507   4.112  12.321  0.00  0.00    +0.000 NA
ENDROOT
BRANCH   3   7
ATOM      7  C   UNL     1      45.616   2.971   8.739  0.00  0.00    +0.000 A 
ATOM      8  C   UNL     1      45.978   3.900   7.753  0.00  0.00    +0.000 A 
ATOM      9  C   UNL     1      46.668   3.495   6.610  0.00  0.00    +0.000 A 
ATOM     10  C   UNL     1      46.996   2.158   6.480  0.00  0.00    +0.000 A 
ATOM     11  N   UNL     1      46.675   1.221   7.392  0.00  0.00    +0.000 NA
ATOM     12  C   UNL     1      45.995   1.649   8.486  0.00  0.00    +0.000 A 
ENDBRANCH   3   7
BRANCH   1  13
ATOM     13  C   UNL     1      44.642   6.289  12.398  0.00  0.00    +0.000 C 
BRANCH  13  18
ATOM     14  C   UNL     1      49.588   7.727  12.664  0.00  0.00    +0.000 A 
ATOM     15  C   UNL     1      48.693   7.776  11.602  0.00  0.00    +0.000 A 
ATOM     16  C   UNL     1      47.401   7.283  11.780  0.00  0.00    +0.000 A 
ATOM     17  C   UNL     1      47.028   6.742  13.005  0.00  0.00    +0.000 A 
ATOM     18  N   UNL     1      45.787   6.252  13.281  0.00  0.00    +0.000 N 
ATOM     19  N   UNL     1      47.895   6.685  14.038  0.00  0.00    +0.000 NA
ATOM     20  C   UNL     1      49.144   7.180  13.853  0.00  0.00    +0.000 A 
ATOM     21  H   UNL     1      45.708   5.824  14.192  0.00  0.00    +0.000 HD
BRANCH  14  23
ATOM     22  N   UNL     1      52.007   8.615  12.430  0.00  0.00    +0.000 NA
ATOM     23  C   UNL     1      50.921   8.218  12.537  0.00  0.00    +0.000 C 
ENDBRANCH  14  23
ENDBRANCH  13  18
ENDBRANCH   1  13
TORSDOF 4
ENDMDL
MODEL 5
REMARK VINA RESULT:    -6.655      1.726      7.538
REMARK INTER + INTRA:          -8.715
REMARK INTER:                  -8.330
REMARK INTRA:                  -0.386
REMARK UNBOUND:                -0.504
REMARK  Name = 
REMARK  4 active torsions:
REMARK  status: ('A' for Active; 'I' for Inactive)
REMARK    1  A    between atoms: C_2  and  C_3
REMARK    2  A    between atoms: N_7  and  C_8
REMARK    3  A    between atoms: C_8  and  C_9
REMARK    4  A    between atoms: C_11  and  C_12
REMARK                            x       y       z     vdW  Elec       q    Type
REMARK                         _______ _______ _______ _____ _____    ______ ____
ROOT
ATOM      1  C   UNL     1      44.997   5.278  12.447  0.00  0.00    +0.000 A 
ATOM      2  C   UNL     1      45.602   4.645  11.357  0.00  0.00    +0.000 A 
ATOM      3  C   UNL     1      44.825   4.180  10.287  0.00  0.00    +0.000 A 
ATOM      4  C   UNL     1      43.443   4.395  10.372  0.00  0.00    +0.000 A 
ATOM      5  C   UNL     1      42.919   5.043  11.480  0.00  0.00    +0.000 A 
ATOM      6  N   UNL     1      43.660   5.484  12.515  0.00  0.00    +0.000 NA
ENDROOT
BRANCH   3   7
ATOM      7  C   UNL     1      45.436   3.493   9.130  0.00  0.00    +0.000 A 
ATOM      8  C   UNL     1      45.940   4.190   8.023  0.00  0.00    +0.000 A 
ATOM      9  C   UNL     1      46.512   3.508   6.949  0.00  0.00    +0.000 A 
ATOM     10  C   UNL     1      46.581   2.128   7.009  0.00  0.00    +0.000 A 
ATOM     11  N   UNL     1      46.113   1.405   8.044  0.00  0.00    +0.000 NA
ATOM     12  C   UNL     1      45.553   2.100   9.066  0.00  0.00    +0.000 A 
ENDBRANCH   3   7
BRANCH   1  13
ATOM     13  C   UNL     1      45.839   5.739  13.617  0.00  0.00    +0.000 C 
BRANCH  13  18
ATOM     14  C   UNL     1      49.198   4.540  17.343  0.00  0.00    +0.000 A 
ATOM     15  C   UNL     1      49.076   5.695  16.581  0.00  0.00    +0.000 A 
ATOM     16  C   UNL     1      48.091   5.757  15.595  0.00  0.00    +0.000 A 
ATOM     17  C   UNL     1      47.256   4.667  15.381  0.00  0.00    +0.000 A 
ATOM     18  N   UNL     1      46.255   4.637  14.457  0.00  0.00    +0.000 N 
ATOM     19  N   UNL     1      47.374   3.539  16.114  0.00  0.00    +0.000 NA
ATOM     20  C   UNL     1      48.329   3.499  17.077  0.00  0.00    +0.000 A 
ATOM     21  H   UNL     1      45.796   3.741  14.376  0.00  0.00    +0.000 HD
BRANCH  14  23
ATOM     22  N   UNL     1      50.992   4.325  19.195  0.00  0.00    +0.000 NA
ATOM     23  C   UNL     1      50.187   4.424  18.364  0.00  0.00    +0.000 C 
ENDBRANCH  14  23
ENDBRANCH  13  18
ENDBRANCH   1  13
TORSDOF 4
ENDMDL
MODEL 6
REMARK VINA RESULT:    -6.452      3.073      8.129
REMARK INTER + INTRA:          -8.464
REMARK INTER:                  -7.942
REMARK INTRA:                  -0.522
REMARK UNBOUND:                -0.504
REMARK  Name = 
REMARK  4 active torsions:
REMARK  status: ('A' for Active; 'I' for Inactive)
REMARK    1  A    between atoms: C_2  and  C_3
REMARK    2  A    between atoms: N_7  and  C_8
REMARK    3  A    between atoms: C_8  and  C_9
REMARK    4  A    between atoms: C_11  and  C_12
REMARK                            x       y       z     vdW  Elec       q    Type
REMARK                         _______ _______ _______ _____ _____    ______ ____
ROOT
ATOM      1  C   UNL     1      47.656   4.675  15.707  0.00  0.00    +0.000 A 
ATOM      2  C   UNL     1      46.774   4.298  14.690  0.00  0.00    +0.000 A 
ATOM      3  C   UNL     1      46.646   5.086  13.536  0.00  0.00    +0.000 A 
ATOM      4  C   UNL     1      47.444   6.235  13.466  0.00  0.00    +0.000 A 
ATOM      5  C   UNL     1      48.305   6.534  14.510  0.00  0.00    +0.000 A 
ATOM      6  N   UNL     1      48.426   5.787  15.625  0.00  0.00    +0.000 NA
ENDROOT
BRANCH   3   7
ATOM      7  C   UNL     1      45.710   4.720  12.453  0.00  0.00    +0.000 A 
ATOM      8  C   UNL     1      45.606   5.463  11.268  0.00  0.00    +0.000 A 
ATOM      9  C   UNL     1      44.712   5.087  10.265  0.00  0.00    +0.000 A 
ATOM     10  C   UNL     1      43.939   3.958  10.464  0.00  0.00    +0.000 A 
ATOM     11  N   UNL     1      43.993   3.207  11.580  0.00  0.00    +0.000 NA
ATOM     12  C   UNL     1      44.866   3.608  12.539  0.00  0.00    +0.000 A 
ENDBRANCH   3   7
BRANCH   1  13
ATOM     13  C   UNL     1      47.758   3.842  16.967  0.00  0.00    +0.000 C 
BRANCH  13  18
ATOM     14  C   UNL     1      52.556   2.254  17.991  0.00  0.00    +0.000 A 
ATOM     15  C   UNL     1      51.967   3.500  18.161  0.00  0.00    +0.000 A 
ATOM     16  C   UNL     1      50.642   3.685  17.764  0.00  0.00    +0.000 A 
ATOM     17  C   UNL     1      49.935   2.629  17.200  0.00  0.00    +0.000 A 
ATOM     18  N   UNL     1      48.634   2.705  16.799  0.00  0.00    +0.000 N 
ATOM     19  N   UNL     1      50.505   1.417  17.027  0.00  0.00    +0.000 NA
ATOM     20  C   UNL     1      51.789   1.251  17.428  0.00  0.00    +0.000 A 
ATOM     21  H   UNL     1      48.298   1.873  16.337  0.00  0.00    +0.000 HD
BRANCH  14  23
ATOM     22  N   UNL     1      55.006   1.809  18.695  0.00  0.00    +0.000 NA
ATOM     23  C   UNL     1      53.907   2.011  18.379  0.00  0.00    +0.000 C 
ENDBRANCH  14  23
ENDBRANCH  13  18
ENDBRANCH   1  13
TORSDOF 4
ENDMDL
MODEL 7
REMARK VINA RESULT:    -5.877      2.351      7.973
REMARK INTER + INTRA:          -7.755
REMARK INTER:                  -7.313
REMARK INTRA:                  -0.442
REMARK UNBOUND:                -0.504
REMARK  Name = 
REMARK  4 active torsions:
REMARK  status: ('A' for Active; 'I' for Inactive)
REMARK    1  A    between atoms: C_2  and  C_3
REMARK    2  A    between atoms: N_7  and  C_8
REMARK    3  A    between atoms: C_8  and  C_9
REMARK    4  A    between atoms: C_11  and  C_12
REMARK                            x       y       z     vdW  Elec       q    Type
REMARK                         _______ _______ _______ _____ _____    ______ ____
ROOT
ATOM      1  C   UNL     1      47.025   7.716  13.127  0.00  0.00    +0.000 A 
ATOM      2  C   UNL     1      46.728   6.570  12.384  0.00  0.00    +0.000 A 
ATOM      3  C   UNL     1      45.629   6.556  11.512  0.00  0.00    +0.000 A 
ATOM      4  C   UNL     1      44.876   7.735  11.429  0.00  0.00    +0.000 A 
ATOM      5  C   UNL     1      45.242   8.835  12.189  0.00  0.00    +0.000 A 
ATOM      6  N   UNL     1      46.291   8.852  13.034  0.00  0.00    +0.000 NA
ENDROOT
BRANCH   3   7
ATOM      7  C   UNL     1      45.282   5.353  10.727  0.00  0.00    +0.000 A 
ATOM      8  C   UNL     1      45.609   5.223   9.369  0.00  0.00    +0.000 A 
ATOM      9  C   UNL     1      45.267   4.072   8.660  0.00  0.00    +0.000 A 
ATOM     10  C   UNL     1      44.608   3.058   9.331  0.00  0.00    +0.000 A 
ATOM     11  N   UNL     1      44.267   3.127  10.632  0.00  0.00    +0.000 NA
ATOM     12  C   UNL     1      44.606   4.265  11.288  0.00  0.00    +0.000 A 
ENDBRANCH   3   7
BRANCH   1  13
ATOM     13  C   UNL     1      48.188   7.709  14.096  0.00  0.00    +0.000 C 
BRANCH  13  18
ATOM     14  C   UNL     1      48.967   5.447  18.665  0.00  0.00    +0.000 A 
ATOM     15  C   UNL     1      48.923   6.793  18.324  0.00  0.00    +0.000 A 
ATOM     16  C   UNL     1      48.732   7.150  16.989  0.00  0.00    +0.000 A 
ATOM     17  C   UNL     1      48.597   6.162  16.021  0.00  0.00    +0.000 A 
ATOM     18  N   UNL     1      48.388   6.410  14.697  0.00  0.00    +0.000 N 
ATOM     19  N   UNL     1      48.644   4.852  16.345  0.00  0.00    +0.000 NA
ATOM     20  C   UNL     1      48.820   4.521  17.648  0.00  0.00    +0.000 A 
ATOM     21  H   UNL     1      48.393   5.582  14.119  0.00  0.00    +0.000 HD
BRANCH  14  23
ATOM     22  N   UNL     1      49.315   4.682  21.112  0.00  0.00    +0.000 NA
ATOM     23  C   UNL     1      49.160   5.026  20.013  0.00  0.00    +0.000 C 
ENDBRANCH  14  23
ENDBRANCH  13  18
ENDBRANCH   1  13
TORSDOF 4
ENDMDL
MODEL 8
REMARK VINA RESULT:    -5.630      3.239      6.057
REMARK INTER + INTRA:          -7.450
REMARK INTER:                  -7.049
REMARK INTRA:                  -0.401
REMARK UNBOUND:                -0.504
REMARK  Name = 
REMARK  4 active torsions:
REMARK  status: ('A' for Active; 'I' for Inactive)
REMARK    1  A    between atoms: C_2  and  C_3
REMARK    2  A    between atoms: N_7  and  C_8
REMARK    3  A    between atoms: C_8  and  C_9
REMARK    4  A    between atoms: C_11  and  C_12
REMARK                            x       y       z     vdW  Elec       q    Type
REMARK                         _______ _______ _______ _____ _____    ______ ____
ROOT
ATOM      1  C   UNL     1      48.911   5.750  16.841  0.00  0.00    +0.000 A 
ATOM      2  C   UNL     1      49.821   4.689  16.838  0.00  0.00    +0.000 A 
ATOM      3  C   UNL     1      50.510   4.344  18.011  0.00  0.00    +0.000 A 
ATOM      4  C   UNL     1      50.227   5.103  19.154  0.00  0.00    +0.000 A 
ATOM      5  C   UNL     1      49.301   6.132  19.079  0.00  0.00    +0.000 A 
ATOM      6  N   UNL     1      48.643   6.474  17.954  0.00  0.00    +0.000 NA
ENDROOT
BRANCH   3   7
ATOM      7  C   UNL     1      51.490   3.238  18.033  0.00  0.00    +0.000 A 
ATOM      8  C   UNL     1      51.239   2.001  17.422  0.00  0.00    +0.000 A 
ATOM      9  C   UNL     1      52.189   0.980  17.461  0.00  0.00    +0.000 A 
ATOM     10  C   UNL     1      53.386   1.221  18.108  0.00  0.00    +0.000 A 
ATOM     11  N   UNL     1      53.683   2.387  18.713  0.00  0.00    +0.000 NA
ATOM     12  C   UNL     1      52.733   3.354  18.664  0.00  0.00    +0.000 A 
ENDBRANCH   3   7
BRANCH   1  13
ATOM     13  C   UNL     1      48.203   6.142  15.561  0.00  0.00    +0.000 C 
BRANCH  13  18
ATOM     14  C   UNL     1      45.339   4.743  11.507  0.00  0.00    +0.000 A 
ATOM     15  C   UNL     1      46.129   5.868  11.703  0.00  0.00    +0.000 A 
ATOM     16  C   UNL     1      46.784   6.034  12.924  0.00  0.00    +0.000 A 
ATOM     17  C   UNL     1      46.632   5.082  13.926  0.00  0.00    +0.000 A 
ATOM     18  N   UNL     1      47.244   5.145  15.142  0.00  0.00    +0.000 N 
ATOM     19  N   UNL     1      45.861   3.989  13.743  0.00  0.00    +0.000 NA
ATOM     20  C   UNL     1      45.240   3.837  12.546  0.00  0.00    +0.000 A 
ATOM     21  H   UNL     1      46.963   4.415  15.781  0.00  0.00    +0.000 HD
BRANCH  14  23
ATOM     22  N   UNL     1      44.087   4.349   9.277  0.00  0.00    +0.000 NA
ATOM     23  C   UNL     1      44.648   4.524  10.279  0.00  0.00    +0.000 C 
ENDBRANCH  14  23
ENDBRANCH  13  18
ENDBRANCH   1  13
TORSDOF 4
ENDMDL
MODEL 9
REMARK VINA RESULT:    -5.537      4.071      6.888
REMARK INTER + INTRA:          -7.335
REMARK INTER:                  -6.810
REMARK INTRA:                  -0.525
REMARK UNBOUND:                -0.504
REMARK  Name = 
REMARK  4 active torsions:
REMARK  status: ('A' for Active; 'I' for Inactive)
REMARK    1  A    between atoms: C_2  and  C_3
REMARK    2  A    between atoms: N_7  and  C_8
REMARK    3  A    between atoms: C_8  and  C_9
REMARK    4  A    between atoms: C_11  and  C_12
REMARK                            x       y       z     vdW  Elec       q    Type
REMARK                         _______ _______ _______ _____ _____    ______ ____
ROOT
ATOM      1  C   UNL     1      47.063   7.267  13.061  0.00  0.00    +0.000 A 
ATOM      2  C   UNL     1      46.762   6.185  12.227  0.00  0.00    +0.000 A 
ATOM      3  C   UNL     1      45.634   6.224  11.395  0.00  0.00    +0.000 A 
ATOM      4  C   UNL     1      44.856   7.388  11.444  0.00  0.00    +0.000 A 
ATOM      5  C   UNL     1      45.227   8.424  12.287  0.00  0.00    +0.000 A 
ATOM      6  N   UNL     1      46.304   8.389  13.095  0.00  0.00    +0.000 NA
ENDROOT
BRANCH   3   7
ATOM      7  C   UNL     1      45.283   5.089  10.517  0.00  0.00    +0.000 A 
ATOM      8  C   UNL     1      45.637   5.053   9.160  0.00  0.00    +0.000 A 
ATOM      9  C   UNL     1      45.291   3.963   8.361  0.00  0.00    +0.000 A 
ATOM     10  C   UNL     1      44.601   2.915   8.941  0.00  0.00    +0.000 A 
ATOM     11  N   UNL     1      44.233   2.895  10.237  0.00  0.00    +0.000 NA
ATOM     12  C   UNL     1      44.577   3.975  10.982  0.00  0.00    +0.000 A 
ENDBRANCH   3   7
BRANCH   1  13
ATOM     13  C   UNL     1      48.259   7.199  13.986  0.00  0.00    +0.000 C 
BRANCH  13  18
ATOM     14  C   UNL     1      51.852   9.000  10.754  0.00  0.00    +0.000 A 
ATOM     15  C   UNL     1      51.190   7.779  10.772  0.00  0.00    +0.000 A 
ATOM     16  C   UNL     1      50.274   7.518  11.791  0.00  0.00    +0.000 A 
ATOM     17  C   UNL     1      50.043   8.471  12.775  0.00  0.00    +0.000 A 
ATOM     18  N   UNL     1      49.156   8.317  13.799  0.00  0.00    +0.000 N 
ATOM     19  N   UNL     1      50.688   9.658  12.767  0.00  0.00    +0.000 NA
ATOM     20  C   UNL     1      51.567   9.901  11.763  0.00  0.00    +0.000 A 
ATOM     21  H   UNL     1      49.169   9.072  14.471  0.00  0.00    +0.000 HD
BRANCH  14  23
ATOM     22  N   UNL     1      53.566   9.577   8.904  0.00  0.00    +0.000 NA
ATOM     23  C   UNL     1      52.798   9.319   9.736  0.00  0.00    +0.000 C 
ENDBRANCH  14  23
ENDBRANCH  13  18
ENDBRANCH   1  13
TORSDOF 4
ENDMDL
