MODEL 1
REMARK VINA RESULT:    -8.309      0.000      0.000
REMARK INTER + INTRA:         -11.921
REMARK INTER:                 -11.223
REMARK INTRA:                  -0.698
REMARK UNBOUND:                -0.698
REMARK  Name = 
REMARK  6 active torsions:
REMARK  status: ('A' for Active; 'I' for Inactive)
REMARK    1  A    between atoms: C_2  and  C_21
REMARK    2  A    between atoms: N_3  and  C_4
REMARK    3  A    between atoms: C_4  and  C_5
REMARK    4  A    between atoms: C_8  and  C_9
REMARK    5  A    between atoms: C_9  and  N_10
REMARK    6  A    between atoms: C_11  and  C_13
REMARK                            x       y       z     vdW  Elec       q    Type
REMARK                         _______ _______ _______ _____ _____    ______ ____
ROOT
ATOM      1  C   UNL     1      46.777   4.059  13.259  0.00  0.00    +0.000 C 
ATOM      2  C   UNL     1      45.678   3.600  12.282  0.00  0.00    +0.000 C 
ATOM      3  C   UNL     1      44.456   4.516  12.298  0.00  0.00    +0.000 C 
ATOM      4  C   UNL     1      44.816   5.984  12.017  0.00  0.00    +0.000 C 
ATOM      5  C   UNL     1      45.916   6.452  12.990  0.00  0.00    +0.000 C 
ATOM      6  C   UNL     1      47.139   5.530  13.002  0.00  0.00    +0.000 C 
ENDROOT
BRANCH   1   7
ATOM      7  C   UNL     1      46.389   3.859  14.735  0.00  0.00    +0.000 C 
BRANCH   7  10
ATOM      8  O   UNL     1      46.637   3.024  17.421  0.00  0.00    +0.000 OA
ATOM      9  C   UNL     1      47.531   3.702  16.925  0.00  0.00    +0.000 C 
ATOM     10  N   UNL     1      47.468   4.172  15.639  0.00  0.00    +0.000 N 
ATOM     11  H   UNL     1      48.264   4.662  15.243  0.00  0.00    +0.000 HD
BRANCH   9  12
ATOM     12  C   UNL     1      48.720   4.091  17.694  0.00  0.00    +0.000 A 
ATOM     13  C   UNL     1      48.662   5.185  18.545  0.00  0.00    +0.000 A 
ATOM     14  S   UNL     1      50.126   5.494  19.362  0.00  0.00    +0.000 S 
ATOM     15  C   UNL     1      50.880   4.153  18.634  0.00  0.00    +0.000 A 
ATOM     16  N   UNL     1      52.164   3.826  18.933  0.00  0.00    +0.000 NA
ATOM     17  C   UNL     1      52.598   2.764  18.345  0.00  0.00    +0.000 A 
ATOM     18  N   UNL     1      51.868   2.003  17.468  0.00  0.00    +0.000 N 
ATOM     19  C   UNL     1      50.592   2.338  17.078  0.00  0.00    +0.000 A 
ATOM     20  O   UNL     1      50.021   1.709  16.191  0.00  0.00    +0.000 OA
ATOM     21  C   UNL     1      50.038   3.495  17.755  0.00  0.00    +0.000 A 
ATOM     22  H   UNL     1      52.279   1.204  17.010  0.00  0.00    +0.000 HD
ENDBRANCH   9  12
ENDBRANCH   7  10
ENDBRANCH   1   7
BRANCH   4  23
ATOM     23  C   UNL     1      45.245   6.244  10.563  0.00  0.00    +0.000 C 
BRANCH  23  24
ATOM     24  N   UNL     1      44.721   5.265   9.626  0.00  0.00    +0.000 N 
ATOM     25  C   UNL     1      45.522   4.795   8.599  0.00  0.00    +0.000 C 
ATOM     26  O   UNL     1      46.636   5.262   8.376  0.00  0.00    +0.000 OA
ATOM     27  H   UNL     1      43.968   4.668   9.927  0.00  0.00    +0.000 HD
BRANCH  25  28
ATOM     28  C   UNL     1      44.872   3.702   7.709  0.00  0.00    +0.000 C 
ATOM     29  C   UNL     1      45.839   3.210   6.622  0.00  0.00    +0.000 C 
ATOM     30  C   UNL     1      46.962   2.346   7.196  0.00  0.00    +0.000 C 
ATOM     31  C   UNL     1      46.397   1.230   8.065  0.00  0.00    +0.000 C 
ATOM     32  C   UNL     1      45.407   1.759   9.101  0.00  0.00    +0.000 C 
ATOM     33  N   UNL     1      44.349   2.558   8.488  0.00  0.00    +0.000 NA
ATOM     34  H   UNL     1      43.671   2.852   9.182  0.00  0.00    +0.000 HD
ENDBRANCH  25  28
ENDBRANCH  23  24
ENDBRANCH   4  23
TORSDOF 6
ENDMDL
MODEL 2
REMARK VINA RESULT:    -7.573      2.023      2.388
REMARK INTER + INTRA:         -10.928
REMARK INTER:                  -9.862
REMARK INTRA:                  -1.066
REMARK UNBOUND:                -0.698
REMARK  Name = 
REMARK  6 active torsions:
REMARK  status: ('A' for Active; 'I' for Inactive)
REMARK    1  A    between atoms: C_2  and  C_21
REMARK    2  A    between atoms: N_3  and  C_4
REMARK    3  A    between atoms: C_4  and  C_5
REMARK    4  A    between atoms: C_8  and  C_9
REMARK    5  A    between atoms: C_9  and  N_10
REMARK    6  A    between atoms: C_11  and  C_13
REMARK                            x       y       z     vdW  Elec       q    Type
REMARK                         _______ _______ _______ _____ _____    ______ ____
ROOT
ATOM      1  C   UNL     1      47.121   4.281  13.784  0.00  0.00    +0.000 C 
ATOM      2  C   UNL     1      46.301   3.512  12.731  0.00  0.00    +0.000 C 
ATOM      3  C   UNL     1      44.897   4.083  12.547  0.00  0.00    +0.000 C 
ATOM      4  C   UNL     1      44.911   5.580  12.197  0.00  0.00    +0.000 C 
ATOM      5  C   UNL     1      45.730   6.358  13.245  0.00  0.00    +0.000 C 
ATOM      6  C   UNL     1      47.133   5.783  13.459  0.00  0.00    +0.000 C 
ENDROOT
BRANCH   1   7
ATOM      7  C   UNL     1      46.615   4.056  15.221  0.00  0.00    +0.000 C 
BRANCH   7  10
ATOM      8  O   UNL     1      48.003   3.285  17.556  0.00  0.00    +0.000 OA
ATOM      9  C   UNL     1      47.932   4.478  17.273  0.00  0.00    +0.000 C 
ATOM     10  N   UNL     1      47.249   4.932  16.175  0.00  0.00    +0.000 N 
ATOM     11  H   UNL     1      47.282   5.917  15.935  0.00  0.00    +0.000 HD
BRANCH   9  12
ATOM     12  C   UNL     1      48.546   5.508  18.120  0.00  0.00    +0.000 A 
ATOM     13  C   UNL     1      48.226   5.571  19.469  0.00  0.00    +0.000 A 
ATOM     14  S   UNL     1      49.029   6.821  20.304  0.00  0.00    +0.000 S 
ATOM     15  C   UNL     1      49.862   7.301  18.899  0.00  0.00    +0.000 A 
ATOM     16  N   UNL     1      50.757   8.322  18.931  0.00  0.00    +0.000 NA
ATOM     17  C   UNL     1      51.348   8.554  17.809  0.00  0.00    +0.000 A 
ATOM     18  N   UNL     1      51.114   7.865  16.646  0.00  0.00    +0.000 N 
ATOM     19  C   UNL     1      50.164   6.875  16.548  0.00  0.00    +0.000 A 
ATOM     20  O   UNL     1      49.888   6.375  15.461  0.00  0.00    +0.000 OA
ATOM     21  C   UNL     1      49.510   6.539  17.799  0.00  0.00    +0.000 A 
ATOM     22  H   UNL     1      51.581   8.121  15.791  0.00  0.00    +0.000 HD
ENDBRANCH   9  12
ENDBRANCH   7  10
ENDBRANCH   1   7
BRANCH   4  23
ATOM     23  C   UNL     1      45.438   5.875  10.782  0.00  0.00    +0.000 C 
BRANCH  23  24
ATOM     24  N   UNL     1      44.906   4.978   9.771  0.00  0.00    +0.000 N 
ATOM     25  C   UNL     1      45.637   4.716   8.625  0.00  0.00    +0.000 C 
ATOM     26  O   UNL     1      46.682   5.309   8.371  0.00  0.00    +0.000 OA
ATOM     27  H   UNL     1      44.236   4.280  10.055  0.00  0.00    +0.000 HD
BRANCH  25  28
ATOM     28  C   UNL     1      44.994   3.689   7.657  0.00  0.00    +0.000 C 
ATOM     29  C   UNL     1      46.005   3.178   6.621  0.00  0.00    +0.000 C 
ATOM     30  C   UNL     1      47.040   2.237   7.239  0.00  0.00    +0.000 C 
ATOM     31  C   UNL     1      46.359   1.127   8.029  0.00  0.00    +0.000 C 
ATOM     32  C   UNL     1      45.330   1.678   9.014  0.00  0.00    +0.000 C 
ATOM     33  N   UNL     1      44.359   2.551   8.360  0.00  0.00    +0.000 NA
ATOM     34  H   UNL     1      43.651   2.861   9.017  0.00  0.00    +0.000 HD
ENDBRANCH  25  28
ENDBRANCH  23  24
ENDBRANCH   4  23
TORSDOF 6
ENDMDL
MODEL 3
REMARK VINA RESULT:    -7.325      3.598      8.784
REMARK INTER + INTRA:         -10.593
REMARK INTER:                  -9.377
REMARK INTRA:                  -1.216
REMARK UNBOUND:                -0.698
REMARK  Name = 
REMARK  6 active torsions:
REMARK  status: ('A' for Active; 'I' for Inactive)
REMARK    1  A    between atoms: C_2  and  C_21
REMARK    2  A    between atoms: N_3  and  C_4
REMARK    3  A    between atoms: C_4  and  C_5
REMARK    4  A    between atoms: C_8  and  C_9
REMARK    5  A    between atoms: C_9  and  N_10
REMARK    6  A    between atoms: C_11  and  C_13
REMARK                            x       y       z     vdW  Elec       q    Type
REMARK                         _______ _______ _______ _____ _____    ______ ____
ROOT
ATOM      1  C   UNL     1      49.547   7.648  12.751  0.00  0.00    +0.000 C 
ATOM      2  C   UNL     1      50.295   8.823  13.411  0.00  0.00    +0.000 C 
ATOM      3  C   UNL     1      49.441   9.559  14.441  0.00  0.00    +0.000 C 
ATOM      4  C   UNL     1      48.891   8.622  15.528  0.00  0.00    +0.000 C 
ATOM      5  C   UNL     1      48.141   7.443  14.877  0.00  0.00    +0.000 C 
ATOM      6  C   UNL     1      48.976   6.708  13.825  0.00  0.00    +0.000 C 
ENDROOT
BRANCH   1   7
ATOM      7  C   UNL     1      48.427   8.108  11.801  0.00  0.00    +0.000 C 
BRANCH   7  10
ATOM      8  O   UNL     1      45.630   7.784  12.013  0.00  0.00    +0.000 OA
ATOM      9  C   UNL     1      46.282   6.937  11.409  0.00  0.00    +0.000 C 
ATOM     10  N   UNL     1      47.645   7.008  11.292  0.00  0.00    +0.000 N 
ATOM     11  H   UNL     1      48.136   6.330  10.718  0.00  0.00    +0.000 HD
BRANCH   9  12
ATOM     12  C   UNL     1      45.644   5.763  10.801  0.00  0.00    +0.000 A 
ATOM     13  C   UNL     1      45.820   5.508   9.448  0.00  0.00    +0.000 A 
ATOM     14  S   UNL     1      45.015   4.107   8.907  0.00  0.00    +0.000 S 
ATOM     15  C   UNL     1      44.432   3.770  10.470  0.00  0.00    +0.000 A 
ATOM     16  N   UNL     1      43.680   2.665  10.713  0.00  0.00    +0.000 NA
ATOM     17  C   UNL     1      43.341   2.507  11.946  0.00  0.00    +0.000 A 
ATOM     18  N   UNL     1      43.671   3.366  12.964  0.00  0.00    +0.000 N 
ATOM     19  C   UNL     1      44.365   4.534  12.753  0.00  0.00    +0.000 A 
ATOM     20  O   UNL     1      44.525   5.343  13.663  0.00  0.00    +0.000 OA
ATOM     21  C   UNL     1      44.819   4.730  11.388  0.00  0.00    +0.000 A 
ATOM     22  H   UNL     1      43.341   3.207  13.902  0.00  0.00    +0.000 HD
ENDBRANCH   9  12
ENDBRANCH   7  10
ENDBRANCH   1   7
BRANCH   4  23
ATOM     23  C   UNL     1      49.969   8.101  16.493  0.00  0.00    +0.000 C 
BRANCH  23  24
ATOM     24  N   UNL     1      49.458   7.156  17.471  0.00  0.00    +0.000 N 
ATOM     25  C   UNL     1      49.964   5.868  17.517  0.00  0.00    +0.000 C 
ATOM     26  O   UNL     1      50.760   5.451  16.680  0.00  0.00    +0.000 OA
ATOM     27  H   UNL     1      49.049   7.516  18.318  0.00  0.00    +0.000 HD
BRANCH  25  28
ATOM     28  C   UNL     1      49.388   4.977  18.649  0.00  0.00    +0.000 C 
ATOM     29  C   UNL     1      47.861   5.101  18.745  0.00  0.00    +0.000 C 
ATOM     30  C   UNL     1      47.151   4.412  17.579  0.00  0.00    +0.000 C 
ATOM     31  C   UNL     1      47.640   2.979  17.419  0.00  0.00    +0.000 C 
ATOM     32  C   UNL     1      49.165   2.898  17.374  0.00  0.00    +0.000 C 
ATOM     33  N   UNL     1      49.781   3.556  18.524  0.00  0.00    +0.000 NA
ATOM     34  H   UNL     1      50.789   3.443  18.507  0.00  0.00    +0.000 HD
ENDBRANCH  25  28
ENDBRANCH  23  24
ENDBRANCH   4  23
TORSDOF 6
ENDMDL
MODEL 4
REMARK VINA RESULT:    -7.213      3.082      8.904
REMARK INTER + INTRA:         -10.442
REMARK INTER:                  -9.299
REMARK INTRA:                  -1.143
REMARK UNBOUND:                -0.698
REMARK  Name = 
REMARK  6 active torsions:
REMARK  status: ('A' for Active; 'I' for Inactive)
REMARK    1  A    between atoms: C_2  and  C_21
REMARK    2  A    between atoms: N_3  and  C_4
REMARK    3  A    between atoms: C_4  and  C_5
REMARK    4  A    between atoms: C_8  and  C_9
REMARK    5  A    between atoms: C_9  and  N_10
REMARK    6  A    between atoms: C_11  and  C_13
REMARK                            x       y       z     vdW  Elec       q    Type
REMARK                         _______ _______ _______ _____ _____    ______ ____
ROOT
ATOM      1  C   UNL     1      49.232   7.770  12.642  0.00  0.00    +0.000 C 
ATOM      2  C   UNL     1      49.652   9.062  13.369  0.00  0.00    +0.000 C 
ATOM      3  C   UNL     1      48.666   9.467  14.463  0.00  0.00    +0.000 C 
ATOM      4  C   UNL     1      48.435   8.348  15.491  0.00  0.00    +0.000 C 
ATOM      5  C   UNL     1      48.015   7.051  14.773  0.00  0.00    +0.000 C 
ATOM      6  C   UNL     1      48.982   6.644  13.656  0.00  0.00    +0.000 C 
ENDROOT
BRANCH   1   7
ATOM      7  C   UNL     1      47.995   7.960  11.746  0.00  0.00    +0.000 C 
BRANCH   7  10
ATOM      8  O   UNL     1      45.178   7.835  11.904  0.00  0.00    +0.000 OA
ATOM      9  C   UNL     1      45.810   6.798  11.723  0.00  0.00    +0.000 C 
ATOM     10  N   UNL     1      47.179   6.774  11.668  0.00  0.00    +0.000 N 
ATOM     11  H   UNL     1      47.657   5.909  11.439  0.00  0.00    +0.000 HD
BRANCH   9  12
ATOM     12  C   UNL     1      45.137   5.500  11.592  0.00  0.00    +0.000 A 
ATOM     13  C   UNL     1      44.432   4.979  12.668  0.00  0.00    +0.000 A 
ATOM     14  S   UNL     1      43.712   3.468  12.345  0.00  0.00    +0.000 S 
ATOM     15  C   UNL     1      44.286   3.473  10.743  0.00  0.00    +0.000 A 
ATOM     16  N   UNL     1      43.991   2.458   9.891  0.00  0.00    +0.000 NA
ATOM     17  C   UNL     1      44.451   2.608   8.696  0.00  0.00    +0.000 A 
ATOM     18  N   UNL     1      45.198   3.679   8.276  0.00  0.00    +0.000 N 
ATOM     19  C   UNL     1      45.584   4.692   9.122  0.00  0.00    +0.000 A 
ATOM     20  O   UNL     1      46.364   5.563   8.744  0.00  0.00    +0.000 OA
ATOM     21  C   UNL     1      45.044   4.597  10.466  0.00  0.00    +0.000 A 
ATOM     22  H   UNL     1      45.562   3.718   7.337  0.00  0.00    +0.000 HD
ENDBRANCH   9  12
ENDBRANCH   7  10
ENDBRANCH   1   7
BRANCH   4  23
ATOM     23  C   UNL     1      49.650   8.086  16.398  0.00  0.00    +0.000 C 
BRANCH  23  24
ATOM     24  N   UNL     1      49.399   7.086  17.421  0.00  0.00    +0.000 N 
ATOM     25  C   UNL     1      50.131   5.911  17.433  0.00  0.00    +0.000 C 
ATOM     26  O   UNL     1      50.918   5.626  16.534  0.00  0.00    +0.000 OA
ATOM     27  H   UNL     1      49.002   7.385  18.298  0.00  0.00    +0.000 HD
BRANCH  25  28
ATOM     28  C   UNL     1      49.820   4.956  18.615  0.00  0.00    +0.000 C 
ATOM     29  C   UNL     1      48.326   4.967  18.972  0.00  0.00    +0.000 C 
ATOM     30  C   UNL     1      47.476   4.254  17.921  0.00  0.00    +0.000 C 
ATOM     31  C   UNL     1      48.026   2.863  17.631  0.00  0.00    +0.000 C 
ATOM     32  C   UNL     1      49.523   2.895  17.326  0.00  0.00    +0.000 C 
ATOM     33  N   UNL     1      50.281   3.570  18.376  0.00  0.00    +0.000 NA
ATOM     34  H   UNL     1      51.276   3.531  18.185  0.00  0.00    +0.000 HD
ENDBRANCH  25  28
ENDBRANCH  23  24
ENDBRANCH   4  23
TORSDOF 6
ENDMDL
MODEL 5
REMARK VINA RESULT:    -6.979      3.308      9.076
REMARK INTER + INTRA:         -10.125
REMARK INTER:                  -9.834
REMARK INTRA:                  -0.291
REMARK UNBOUND:                -0.698
REMARK  Name = 
REMARK  6 active torsions:
REMARK  status: ('A' for Active; 'I' for Inactive)
REMARK    1  A    between atoms: C_2  and  C_21
REMARK    2  A    between atoms: N_3  and  C_4
REMARK    3  A    between atoms: C_4  and  C_5
REMARK    4  A    between atoms: C_8  and  C_9
REMARK    5  A    between atoms: C_9  and  N_10
REMARK    6  A    between atoms: C_11  and  C_13
REMARK                            x       y       z     vdW  Elec       q    Type
REMARK                         _______ _______ _______ _____ _____    ______ ____
ROOT
ATOM      1  C   UNL     1      45.329   7.102  12.763  0.00  0.00    +0.000 C 
ATOM      2  C   UNL     1      46.172   5.900  13.230  0.00  0.00    +0.000 C 
ATOM      3  C   UNL     1      47.629   5.994  12.782  0.00  0.00    +0.000 C 
ATOM      4  C   UNL     1      48.301   7.301  13.232  0.00  0.00    +0.000 C 
ATOM      5  C   UNL     1      47.464   8.509  12.769  0.00  0.00    +0.000 C 
ATOM      6  C   UNL     1      45.995   8.419  13.191  0.00  0.00    +0.000 C 
ENDROOT
BRANCH   1   7
ATOM      7  C   UNL     1      45.079   7.105  11.244  0.00  0.00    +0.000 C 
BRANCH   7  10
ATOM      8  O   UNL     1      43.132   5.262  10.358  0.00  0.00    +0.000 OA
ATOM      9  C   UNL     1      44.320   4.990  10.206  0.00  0.00    +0.000 C 
ATOM     10  N   UNL     1      45.322   5.818  10.639  0.00  0.00    +0.000 N 
ATOM     11  H   UNL     1      46.288   5.594  10.424  0.00  0.00    +0.000 HD
BRANCH   9  12
ATOM     12  C   UNL     1      44.749   3.733   9.581  0.00  0.00    +0.000 A 
ATOM     13  C   UNL     1      44.120   2.545   9.924  0.00  0.00    +0.000 A 
ATOM     14  S   UNL     1      44.737   1.184   9.104  0.00  0.00    +0.000 S 
ATOM     15  C   UNL     1      45.844   2.140   8.234  0.00  0.00    +0.000 A 
ATOM     16  N   UNL     1      46.675   1.586   7.313  0.00  0.00    +0.000 NA
ATOM     17  C   UNL     1      47.431   2.428   6.696  0.00  0.00    +0.000 A 
ATOM     18  N   UNL     1      47.445   3.780   6.927  0.00  0.00    +0.000 N 
ATOM     19  C   UNL     1      46.676   4.375   7.900  0.00  0.00    +0.000 A 
ATOM     20  O   UNL     1      46.815   5.565   8.169  0.00  0.00    +0.000 OA
ATOM     21  C   UNL     1      45.766   3.476   8.585  0.00  0.00    +0.000 A 
ATOM     22  H   UNL     1      48.089   4.381   6.437  0.00  0.00    +0.000 HD
ENDBRANCH   9  12
ENDBRANCH   7  10
ENDBRANCH   1   7
BRANCH   4  23
ATOM     23  C   UNL     1      48.550   7.373  14.749  0.00  0.00    +0.000 C 
BRANCH  23  24
ATOM     24  N   UNL     1      47.950   6.273  15.483  0.00  0.00    +0.000 N 
ATOM     25  C   UNL     1      48.726   5.506  16.335  0.00  0.00    +0.000 C 
ATOM     26  O   UNL     1      49.944   5.648  16.410  0.00  0.00    +0.000 OA
ATOM     27  H   UNL     1      46.961   6.307  15.673  0.00  0.00    +0.000 HD
BRANCH  25  28
ATOM     28  C   UNL     1      47.956   4.409  17.115  0.00  0.00    +0.000 C 
ATOM     29  C   UNL     1      48.887   3.615  18.042  0.00  0.00    +0.000 C 
ATOM     30  C   UNL     1      49.330   4.434  19.254  0.00  0.00    +0.000 C 
ATOM     31  C   UNL     1      48.129   5.042  19.966  0.00  0.00    +0.000 C 
ATOM     32  C   UNL     1      47.207   5.782  18.999  0.00  0.00    +0.000 C 
ATOM     33  N   UNL     1      46.803   4.940  17.876  0.00  0.00    +0.000 NA
ATOM     34  H   UNL     1      46.148   5.429  17.276  0.00  0.00    +0.000 HD
ENDBRANCH  25  28
ENDBRANCH  23  24
ENDBRANCH   4  23
TORSDOF 6
ENDMDL
MODEL 6
REMARK VINA RESULT:    -6.835      3.786      9.660
REMARK INTER + INTRA:          -9.932
REMARK INTER:                  -8.633
REMARK INTRA:                  -1.298
REMARK UNBOUND:                -0.698
REMARK  Name = 
REMARK  6 active torsions:
REMARK  status: ('A' for Active; 'I' for Inactive)
REMARK    1  A    between atoms: C_2  and  C_21
REMARK    2  A    between atoms: N_3  and  C_4
REMARK    3  A    between atoms: C_4  and  C_5
REMARK    4  A    between atoms: C_8  and  C_9
REMARK    5  A    between atoms: C_9  and  N_10
REMARK    6  A    between atoms: C_11  and  C_13
REMARK                            x       y       z     vdW  Elec       q    Type
REMARK                         _______ _______ _______ _____ _____    ______ ____
ROOT
ATOM      1  C   UNL     1      47.537   3.914  17.051  0.00  0.00    +0.000 C 
ATOM      2  C   UNL     1      48.358   2.916  17.889  0.00  0.00    +0.000 C 
ATOM      3  C   UNL     1      49.858   3.015  17.617  0.00  0.00    +0.000 C 
ATOM      4  C   UNL     1      50.402   4.436  17.829  0.00  0.00    +0.000 C 
ATOM      5  C   UNL     1      49.586   5.443  16.995  0.00  0.00    +0.000 C 
ATOM      6  C   UNL     1      48.077   5.340  17.239  0.00  0.00    +0.000 C 
ENDROOT
BRANCH   1   7
ATOM      7  C   UNL     1      47.500   3.555  15.555  0.00  0.00    +0.000 C 
BRANCH   7  10
ATOM      8  O   UNL     1      48.254   5.218  13.401  0.00  0.00    +0.000 OA
ATOM      9  C   UNL     1      47.075   5.183  13.741  0.00  0.00    +0.000 C 
ATOM     10  N   UNL     1      46.638   4.427  14.796  0.00  0.00    +0.000 N 
ATOM     11  H   UNL     1      45.644   4.366  14.994  0.00  0.00    +0.000 HD
BRANCH   9  12
ATOM     12  C   UNL     1      46.053   5.987  13.058  0.00  0.00    +0.000 A 
ATOM     13  C   UNL     1      46.306   7.320  12.768  0.00  0.00    +0.000 A 
ATOM     14  S   UNL     1      45.018   8.103  11.973  0.00  0.00    +0.000 S 
ATOM     15  C   UNL     1      44.089   6.677  11.954  0.00  0.00    +0.000 A 
ATOM     16  N   UNL     1      42.860   6.651  11.376  0.00  0.00    +0.000 NA
ATOM     17  C   UNL     1      42.283   5.498  11.394  0.00  0.00    +0.000 A 
ATOM     18  N   UNL     1      42.818   4.366  11.954  0.00  0.00    +0.000 N 
ATOM     19  C   UNL     1      44.023   4.362  12.615  0.00  0.00    +0.000 A 
ATOM     20  O   UNL     1      44.406   3.364  13.219  0.00  0.00    +0.000 OA
ATOM     21  C   UNL     1      44.738   5.625  12.574  0.00  0.00    +0.000 A 
ATOM     22  H   UNL     1      42.298   3.502  11.969  0.00  0.00    +0.000 HD
ENDBRANCH   9  12
ENDBRANCH   7  10
ENDBRANCH   1   7
BRANCH   4  23
ATOM     23  C   UNL     1      50.434   4.869  19.305  0.00  0.00    +0.000 C 
BRANCH  23  24
ATOM     24  N   UNL     1      50.336   6.306  19.486  0.00  0.00    +0.000 N 
ATOM     25  C   UNL     1      49.324   6.837  20.268  0.00  0.00    +0.000 C 
ATOM     26  O   UNL     1      48.425   6.140  20.730  0.00  0.00    +0.000 OA
ATOM     27  H   UNL     1      51.171   6.861  19.382  0.00  0.00    +0.000 HD
BRANCH  25  28
ATOM     28  C   UNL     1      49.369   8.378  20.441  0.00  0.00    +0.000 C 
ATOM     29  C   UNL     1      50.105   9.057  19.277  0.00  0.00    +0.000 C 
ATOM     30  C   UNL     1      49.289   9.033  17.985  0.00  0.00    +0.000 C 
ATOM     31  C   UNL     1      47.886   9.576  18.221  0.00  0.00    +0.000 C 
ATOM     32  C   UNL     1      47.209   8.905  19.415  0.00  0.00    +0.000 C 
ATOM     33  N   UNL     1      48.029   8.979  20.622  0.00  0.00    +0.000 NA
ATOM     34  H   UNL     1      47.540   8.581  21.415  0.00  0.00    +0.000 HD
ENDBRANCH  25  28
ENDBRANCH  23  24
ENDBRANCH   4  23
TORSDOF 6
ENDMDL
MODEL 7
REMARK VINA RESULT:    -6.740      2.963      4.233
REMARK INTER + INTRA:          -9.803
REMARK INTER:                  -8.931
REMARK INTRA:                  -0.872
REMARK UNBOUND:                -0.698
REMARK  Name = 
REMARK  6 active torsions:
REMARK  status: ('A' for Active; 'I' for Inactive)
REMARK    1  A    between atoms: C_2  and  C_21
REMARK    2  A    between atoms: N_3  and  C_4
REMARK    3  A    between atoms: C_4  and  C_5
REMARK    4  A    between atoms: C_8  and  C_9
REMARK    5  A    between atoms: C_9  and  N_10
REMARK    6  A    between atoms: C_11  and  C_13
REMARK                            x       y       z     vdW  Elec       q    Type
REMARK                         _______ _______ _______ _____ _____    ______ ____
ROOT
ATOM      1  C   UNL     1      49.182   7.578  12.514  0.00  0.00    +0.000 C 
ATOM      2  C   UNL     1      47.817   7.068  13.012  0.00  0.00    +0.000 C 
ATOM      3  C   UNL     1      46.973   8.171  13.647  0.00  0.00    +0.000 C 
ATOM      4  C   UNL     1      46.764   9.368  12.705  0.00  0.00    +0.000 C 
ATOM      5  C   UNL     1      48.125   9.885  12.201  0.00  0.00    +0.000 C 
ATOM      6  C   UNL     1      48.994   8.785  11.583  0.00  0.00    +0.000 C 
ENDROOT
BRANCH   1   7
ATOM      7  C   UNL     1      50.143   7.939  13.661  0.00  0.00    +0.000 C 
BRANCH   7  10
ATOM      8  O   UNL     1      49.365   8.521  16.312  0.00  0.00    +0.000 OA
ATOM      9  C   UNL     1      49.651   7.364  16.017  0.00  0.00    +0.000 C 
ATOM     10  N   UNL     1      50.068   7.010  14.761  0.00  0.00    +0.000 N 
ATOM     11  H   UNL     1      50.218   6.031  14.539  0.00  0.00    +0.000 HD
BRANCH   9  12
ATOM     12  C   UNL     1      49.601   6.282  17.008  0.00  0.00    +0.000 A 
ATOM     13  C   UNL     1      50.400   6.349  18.141  0.00  0.00    +0.000 A 
ATOM     14  S   UNL     1      50.216   5.014  19.186  0.00  0.00    +0.000 S 
ATOM     15  C   UNL     1      49.034   4.317  18.179  0.00  0.00    +0.000 A 
ATOM     16  N   UNL     1      48.427   3.150  18.517  0.00  0.00    +0.000 NA
ATOM     17  C   UNL     1      47.521   2.756  17.690  0.00  0.00    +0.000 A 
ATOM     18  N   UNL     1      47.174   3.417  16.538  0.00  0.00    +0.000 N 
ATOM     19  C   UNL     1      47.813   4.560  16.118  0.00  0.00    +0.000 A 
ATOM     20  O   UNL     1      47.568   5.047  15.017  0.00  0.00    +0.000 OA
ATOM     21  C   UNL     1      48.803   5.075  17.045  0.00  0.00    +0.000 A 
ATOM     22  H   UNL     1      46.483   3.035  15.912  0.00  0.00    +0.000 HD
ENDBRANCH   9  12
ENDBRANCH   7  10
ENDBRANCH   1   7
BRANCH   4  23
ATOM     23  C   UNL     1      45.837   9.061  11.517  0.00  0.00    +0.000 C 
BRANCH  23  24
ATOM     24  N   UNL     1      44.706   8.222  11.873  0.00  0.00    +0.000 N 
ATOM     25  C   UNL     1      44.615   6.935  11.369  0.00  0.00    +0.000 C 
ATOM     26  O   UNL     1      45.404   6.507  10.531  0.00  0.00    +0.000 OA
ATOM     27  H   UNL     1      44.224   8.408  12.738  0.00  0.00    +0.000 HD
BRANCH  25  28
ATOM     28  C   UNL     1      43.400   6.116  11.878  0.00  0.00    +0.000 C 
ATOM     29  C   UNL     1      43.037   4.982  10.909  0.00  0.00    +0.000 C 
ATOM     30  C   UNL     1      44.060   3.846  10.940  0.00  0.00    +0.000 C 
ATOM     31  C   UNL     1      44.305   3.376  12.368  0.00  0.00    +0.000 C 
ATOM     32  C   UNL     1      44.618   4.541  13.305  0.00  0.00    +0.000 C 
ATOM     33  N   UNL     1      43.594   5.582  13.245  0.00  0.00    +0.000 NA
ATOM     34  H   UNL     1      43.788   6.318  13.914  0.00  0.00    +0.000 HD
ENDBRANCH  25  28
ENDBRANCH  23  24
ENDBRANCH   4  23
TORSDOF 6
ENDMDL
MODEL 8
REMARK VINA RESULT:    -6.689      5.401      8.464
REMARK INTER + INTRA:          -9.734
REMARK INTER:                  -8.922
REMARK INTRA:                  -0.812
REMARK UNBOUND:                -0.698
REMARK  Name = 
REMARK  6 active torsions:
REMARK  status: ('A' for Active; 'I' for Inactive)
REMARK    1  A    between atoms: C_2  and  C_21
REMARK    2  A    between atoms: N_3  and  C_4
REMARK    3  A    between atoms: C_4  and  C_5
REMARK    4  A    between atoms: C_8  and  C_9
REMARK    5  A    between atoms: C_9  and  N_10
REMARK    6  A    between atoms: C_11  and  C_13
REMARK                            x       y       z     vdW  Elec       q    Type
REMARK                         _______ _______ _______ _____ _____    ______ ____
ROOT
ATOM      1  C   UNL     1      48.086   8.085  13.884  0.00  0.00    +0.000 C 
ATOM      2  C   UNL     1      48.880   7.009  13.120  0.00  0.00    +0.000 C 
ATOM      3  C   UNL     1      49.200   7.423  11.685  0.00  0.00    +0.000 C 
ATOM      4  C   UNL     1      49.946   8.765  11.611  0.00  0.00    +0.000 C 
ATOM      5  C   UNL     1      49.158   9.848  12.374  0.00  0.00    +0.000 C 
ATOM      6  C   UNL     1      48.809   9.438  13.808  0.00  0.00    +0.000 C 
ENDROOT
BRANCH   1   7
ATOM      7  C   UNL     1      46.637   8.231  13.383  0.00  0.00    +0.000 C 
BRANCH   7  10
ATOM      8  O   UNL     1      44.822   7.735  11.277  0.00  0.00    +0.000 OA
ATOM      9  C   UNL     1      45.186   6.797  11.981  0.00  0.00    +0.000 C 
ATOM     10  N   UNL     1      46.039   6.964  13.041  0.00  0.00    +0.000 N 
ATOM     11  H   UNL     1      46.376   6.152  13.547  0.00  0.00    +0.000 HD
BRANCH   9  12
ATOM     12  C   UNL     1      44.698   5.431  11.756  0.00  0.00    +0.000 A 
ATOM     13  C   UNL     1      43.976   4.786  12.750  0.00  0.00    +0.000 A 
ATOM     14  S   UNL     1      43.484   3.211  12.325  0.00  0.00    +0.000 S 
ATOM     15  C   UNL     1      44.188   3.348  10.781  0.00  0.00    +0.000 A 
ATOM     16  N   UNL     1      44.099   2.336   9.879  0.00  0.00    +0.000 NA
ATOM     17  C   UNL     1      44.637   2.587   8.735  0.00  0.00    +0.000 A 
ATOM     18  N   UNL     1      45.274   3.758   8.412  0.00  0.00    +0.000 N 
ATOM     19  C   UNL     1      45.454   4.779   9.315  0.00  0.00    +0.000 A 
ATOM     20  O   UNL     1      46.146   5.753   9.032  0.00  0.00    +0.000 OA
ATOM     21  C   UNL     1      44.817   4.567  10.602  0.00  0.00    +0.000 A 
ATOM     22  H   UNL     1      45.709   3.877   7.511  0.00  0.00    +0.000 HD
ENDBRANCH   9  12
ENDBRANCH   7  10
ENDBRANCH   1   7
BRANCH   4  23
ATOM     23  C   UNL     1      51.393   8.693  12.129  0.00  0.00    +0.000 C 
BRANCH  23  24
ATOM     24  N   UNL     1      52.215   7.737  11.408  0.00  0.00    +0.000 N 
ATOM     25  C   UNL     1      53.427   8.134  10.871  0.00  0.00    +0.000 C 
ATOM     26  O   UNL     1      53.790   9.308  10.881  0.00  0.00    +0.000 OA
ATOM     27  H   UNL     1      52.109   6.757  11.621  0.00  0.00    +0.000 HD
BRANCH  25  28
ATOM     28  C   UNL     1      54.244   7.006  10.188  0.00  0.00    +0.000 C 
ATOM     29  C   UNL     1      53.331   6.010   9.459  0.00  0.00    +0.000 C 
ATOM     30  C   UNL     1      52.726   6.605   8.187  0.00  0.00    +0.000 C 
ATOM     31  C   UNL     1      53.810   7.205   7.301  0.00  0.00    +0.000 C 
ATOM     32  C   UNL     1      54.721   8.153   8.077  0.00  0.00    +0.000 C 
ATOM     33  N   UNL     1      55.283   7.519   9.268  0.00  0.00    +0.000 NA
ATOM     34  H   UNL     1      55.928   8.144   9.738  0.00  0.00    +0.000 HD
ENDBRANCH  25  28
ENDBRANCH  23  24
ENDBRANCH   4  23
TORSDOF 6
ENDMDL
MODEL 9
REMARK VINA RESULT:    -6.573      6.201      8.220
REMARK INTER + INTRA:          -9.577
REMARK INTER:                  -8.773
REMARK INTRA:                  -0.803
REMARK UNBOUND:                -0.698
REMARK  Name = 
REMARK  6 active torsions:
REMARK  status: ('A' for Active; 'I' for Inactive)
REMARK    1  A    between atoms: C_2  and  C_21
REMARK    2  A    between atoms: N_3  and  C_4
REMARK    3  A    between atoms: C_4  and  C_5
REMARK    4  A    between atoms: C_8  and  C_9
REMARK    5  A    between atoms: C_9  and  N_10
REMARK    6  A    between atoms: C_11  and  C_13
REMARK                            x       y       z     vdW  Elec       q    Type
REMARK                         _______ _______ _______ _____ _____    ______ ____
ROOT
ATOM      1  C   UNL     1      50.395   9.183  12.497  0.00  0.00    +0.000 C 
ATOM      2  C   UNL     1      49.356   8.833  11.415  0.00  0.00    +0.000 C 
ATOM      3  C   UNL     1      48.910   7.373  11.479  0.00  0.00    +0.000 C 
ATOM      4  C   UNL     1      48.365   6.984  12.862  0.00  0.00    +0.000 C 
ATOM      5  C   UNL     1      49.398   7.331  13.952  0.00  0.00    +0.000 C 
ATOM      6  C   UNL     1      49.873   8.786  13.887  0.00  0.00    +0.000 C 
ENDROOT
BRANCH   1   7
ATOM      7  C   UNL     1      51.768   8.535  12.242  0.00  0.00    +0.000 C 
BRANCH   7  10
ATOM      8  O   UNL     1      53.742   9.611  10.533  0.00  0.00    +0.000 OA
ATOM      9  C   UNL     1      52.981   8.753  10.096  0.00  0.00    +0.000 C 
ATOM     10  N   UNL     1      51.978   8.207  10.853  0.00  0.00    +0.000 N 
ATOM     11  H   UNL     1      51.422   7.445  10.479  0.00  0.00    +0.000 HD
BRANCH   9  12
ATOM     12  C   UNL     1      53.070   8.278   8.710  0.00  0.00    +0.000 A 
ATOM     13  C   UNL     1      52.925   9.178   7.663  0.00  0.00    +0.000 A 
ATOM     14  S   UNL     1      53.060   8.462   6.122  0.00  0.00    +0.000 S 
ATOM     15  C   UNL     1      53.354   6.929   6.799  0.00  0.00    +0.000 A 
ATOM     16  N   UNL     1      53.591   5.849   6.009  0.00  0.00    +0.000 NA
ATOM     17  C   UNL     1      53.842   4.759   6.650  0.00  0.00    +0.000 A 
ATOM     18  N   UNL     1      53.862   4.644   8.016  0.00  0.00    +0.000 N 
ATOM     19  C   UNL     1      53.554   5.690   8.854  0.00  0.00    +0.000 A 
ATOM     20  O   UNL     1      53.451   5.515  10.065  0.00  0.00    +0.000 OA
ATOM     21  C   UNL     1      53.319   6.954   8.182  0.00  0.00    +0.000 A 
ATOM     22  H   UNL     1      54.026   3.752   8.457  0.00  0.00    +0.000 HD
ENDBRANCH   9  12
ENDBRANCH   7  10
ENDBRANCH   1   7
BRANCH   4  23
ATOM     23  C   UNL     1      47.006   7.626  13.191  0.00  0.00    +0.000 C 
BRANCH  23  24
ATOM     24  N   UNL     1      45.947   6.655  13.401  0.00  0.00    +0.000 N 
ATOM     25  C   UNL     1      44.911   6.555  12.489  0.00  0.00    +0.000 C 
ATOM     26  O   UNL     1      44.788   7.343  11.554  0.00  0.00    +0.000 OA
ATOM     27  H   UNL     1      46.150   5.837  13.954  0.00  0.00    +0.000 HD
BRANCH  25  28
ATOM     28  C   UNL     1      43.881   5.433  12.786  0.00  0.00    +0.000 C 
ATOM     29  C   UNL     1      42.988   5.148  11.570  0.00  0.00    +0.000 C 
ATOM     30  C   UNL     1      43.744   4.423  10.457  0.00  0.00    +0.000 C 
ATOM     31  C   UNL     1      44.454   3.189  10.998  0.00  0.00    +0.000 C 
ATOM     32  C   UNL     1      45.293   3.510  12.233  0.00  0.00    +0.000 C 
ATOM     33  N   UNL     1      44.510   4.183  13.267  0.00  0.00    +0.000 NA
ATOM     34  H   UNL     1      45.068   4.337  14.100  0.00  0.00    +0.000 HD
ENDBRANCH  25  28
ENDBRANCH  23  24
ENDBRANCH   4  23
TORSDOF 6
ENDMDL
