MODEL 1
REMARK VINA RESULT:    -8.834      0.000      0.000
REMARK INTER + INTRA:         -12.049
REMARK INTER:                 -11.416
REMARK INTRA:                  -0.633
REMARK UNBOUND:                -0.633
REMARK  Name = 
REMARK  5 active torsions:
REMARK  status: ('A' for Active; 'I' for Inactive)
REMARK    1  A    between atoms: C_2  and  C_18
REMARK    2  A    between atoms: N_3  and  C_4
REMARK    3  A    between atoms: C_4  and  C_5
REMARK    4  A    between atoms: C_8  and  C_9
REMARK    5  A    between atoms: C_9  and  C_10
REMARK                            x       y       z     vdW  Elec       q    Type
REMARK                         _______ _______ _______ _____ _____    ______ ____
ROOT
ATOM      1  O   UNL     1      48.296   6.864  12.653  0.00  0.00    +0.000 OA
ATOM      2  C   UNL     1      47.650   6.618  13.669  0.00  0.00    +0.000 C 
ATOM      3  N   UNL     1      46.281   6.585  13.677  0.00  0.00    +0.000 N 
ATOM      4  H   UNL     1      45.784   6.520  14.559  0.00  0.00    +0.000 HD
ENDROOT
BRANCH   2   5
ATOM      5  C   UNL     1      48.319   6.301  14.937  0.00  0.00    +0.000 A 
ATOM      6  C   UNL     1      49.288   7.159  15.438  0.00  0.00    +0.000 A 
ATOM      7  S   UNL     1      49.939   6.661  16.933  0.00  0.00    +0.000 S 
ATOM      8  C   UNL     1      48.922   5.298  16.984  0.00  0.00    +0.000 A 
ATOM      9  N   UNL     1      48.938   4.455  18.051  0.00  0.00    +0.000 NA
ATOM     10  C   UNL     1      48.087   3.487  17.978  0.00  0.00    +0.000 A 
ATOM     11  N   UNL     1      47.240   3.271  16.922  0.00  0.00    +0.000 N 
ATOM     12  C   UNL     1      47.253   4.042  15.785  0.00  0.00    +0.000 A 
ATOM     13  O   UNL     1      46.597   3.729  14.797  0.00  0.00    +0.000 OA
ATOM     14  C   UNL     1      48.135   5.195  15.849  0.00  0.00    +0.000 A 
ATOM     15  H   UNL     1      46.630   2.467  16.907  0.00  0.00    +0.000 HD
ENDBRANCH   2   5
BRANCH   3  16
ATOM     16  C   UNL     1      45.488   6.915  12.520  0.00  0.00    +0.000 C 
BRANCH  16  17
ATOM     17  C   UNL     1      45.335   5.738  11.593  0.00  0.00    +0.000 A 
ATOM     18  C   UNL     1      45.674   5.856  10.239  0.00  0.00    +0.000 A 
ATOM     19  C   UNL     1      45.581   4.755   9.383  0.00  0.00    +0.000 A 
ATOM     20  C   UNL     1      45.135   3.515   9.860  0.00  0.00    +0.000 A 
ATOM     21  C   UNL     1      44.767   3.405  11.208  0.00  0.00    +0.000 A 
ATOM     22  C   UNL     1      44.856   4.509  12.063  0.00  0.00    +0.000 A 
BRANCH  20  23
ATOM     23  C   UNL     1      45.038   2.325   8.935  0.00  0.00    +0.000 C 
BRANCH  23  24
ATOM     24  C   UNL     1      46.031   2.307   7.804  0.00  0.00    +0.000 A 
ATOM     25  C   UNL     1      46.011   3.269   6.790  0.00  0.00    +0.000 A 
ATOM     26  C   UNL     1      46.904   3.176   5.726  0.00  0.00    +0.000 A 
ATOM     27  C   UNL     1      47.803   2.122   5.714  0.00  0.00    +0.000 A 
ATOM     28  N   UNL     1      47.873   1.189   6.684  0.00  0.00    +0.000 NA
ATOM     29  C   UNL     1      46.994   1.306   7.706  0.00  0.00    +0.000 A 
ENDBRANCH  23  24
ENDBRANCH  20  23
ENDBRANCH  16  17
ENDBRANCH   3  16
TORSDOF 5
ENDMDL
MODEL 2
REMARK VINA RESULT:    -8.389      1.447      2.062
REMARK INTER + INTRA:         -11.473
REMARK INTER:                 -10.753
REMARK INTRA:                  -0.720
REMARK UNBOUND:                -0.633
REMARK  Name = 
REMARK  5 active torsions:
REMARK  status: ('A' for Active; 'I' for Inactive)
REMARK    1  A    between atoms: C_2  and  C_18
REMARK    2  A    between atoms: N_3  and  C_4
REMARK    3  A    between atoms: C_4  and  C_5
REMARK    4  A    between atoms: C_8  and  C_9
REMARK    5  A    between atoms: C_9  and  C_10
REMARK                            x       y       z     vdW  Elec       q    Type
REMARK                         _______ _______ _______ _____ _____    ______ ____
ROOT
ATOM      1  O   UNL     1      48.490   6.082  13.684  0.00  0.00    +0.000 OA
ATOM      2  C   UNL     1      47.579   5.705  14.417  0.00  0.00    +0.000 C 
ATOM      3  N   UNL     1      46.260   5.822  14.068  0.00  0.00    +0.000 N 
ATOM      4  H   UNL     1      45.538   5.630  14.755  0.00  0.00    +0.000 HD
ENDROOT
BRANCH   2   5
ATOM      5  C   UNL     1      47.859   5.059  15.706  0.00  0.00    +0.000 A 
ATOM      6  C   UNL     1      47.465   3.744  15.918  0.00  0.00    +0.000 A 
ATOM      7  S   UNL     1      47.897   3.138  17.451  0.00  0.00    +0.000 S 
ATOM      8  C   UNL     1      48.662   4.598  17.875  0.00  0.00    +0.000 A 
ATOM      9  N   UNL     1      49.298   4.731  19.070  0.00  0.00    +0.000 NA
ATOM     10  C   UNL     1      49.871   5.875  19.243  0.00  0.00    +0.000 A 
ATOM     11  N   UNL     1      49.843   6.907  18.341  0.00  0.00    +0.000 N 
ATOM     12  C   UNL     1      49.137   6.848  17.163  0.00  0.00    +0.000 A 
ATOM     13  O   UNL     1      49.001   7.840  16.454  0.00  0.00    +0.000 OA
ATOM     14  C   UNL     1      48.542   5.553  16.880  0.00  0.00    +0.000 A 
ATOM     15  H   UNL     1      50.273   7.793  18.558  0.00  0.00    +0.000 HD
ENDBRANCH   2   5
BRANCH   3  16
ATOM     16  C   UNL     1      45.832   6.470  12.855  0.00  0.00    +0.000 C 
BRANCH  16  17
ATOM     17  C   UNL     1      45.533   5.474  11.764  0.00  0.00    +0.000 A 
ATOM     18  C   UNL     1      45.708   5.825  10.420  0.00  0.00    +0.000 A 
ATOM     19  C   UNL     1      45.480   4.891   9.405  0.00  0.00    +0.000 A 
ATOM     20  C   UNL     1      45.058   3.591   9.712  0.00  0.00    +0.000 A 
ATOM     21  C   UNL     1      44.854   3.250  11.056  0.00  0.00    +0.000 A 
ATOM     22  C   UNL     1      45.078   4.186  12.071  0.00  0.00    +0.000 A 
BRANCH  20  23
ATOM     23  C   UNL     1      44.815   2.582   8.615  0.00  0.00    +0.000 C 
BRANCH  23  24
ATOM     24  C   UNL     1      45.937   2.427   7.624  0.00  0.00    +0.000 A 
ATOM     25  C   UNL     1      46.078   3.287   6.531  0.00  0.00    +0.000 A 
ATOM     26  C   UNL     1      47.091   3.066   5.599  0.00  0.00    +0.000 A 
ATOM     27  C   UNL     1      47.941   1.991   5.797  0.00  0.00    +0.000 A 
ATOM     28  N   UNL     1      47.855   1.154   6.850  0.00  0.00    +0.000 NA
ATOM     29  C   UNL     1      46.864   1.394   7.739  0.00  0.00    +0.000 A 
ENDBRANCH  23  24
ENDBRANCH  20  23
ENDBRANCH  16  17
ENDBRANCH   3  16
TORSDOF 5
ENDMDL
MODEL 3
REMARK VINA RESULT:    -8.183      1.962      3.170
REMARK INTER + INTRA:         -11.207
REMARK INTER:                 -10.646
REMARK INTRA:                  -0.561
REMARK UNBOUND:                -0.633
REMARK  Name = 
REMARK  5 active torsions:
REMARK  status: ('A' for Active; 'I' for Inactive)
REMARK    1  A    between atoms: C_2  and  C_18
REMARK    2  A    between atoms: N_3  and  C_4
REMARK    3  A    between atoms: C_4  and  C_5
REMARK    4  A    between atoms: C_8  and  C_9
REMARK    5  A    between atoms: C_9  and  C_10
REMARK                            x       y       z     vdW  Elec       q    Type
REMARK                         _______ _______ _______ _____ _____    ______ ____
ROOT
ATOM      1  O   UNL     1      46.330   4.492  14.362  0.00  0.00    +0.000 OA
ATOM      2  C   UNL     1      46.552   5.637  13.977  0.00  0.00    +0.000 C 
ATOM      3  N   UNL     1      45.605   6.393  13.338  0.00  0.00    +0.000 N 
ATOM      4  H   UNL     1      45.869   7.275  12.912  0.00  0.00    +0.000 HD
ENDROOT
BRANCH   2   5
ATOM      5  C   UNL     1      47.849   6.282  14.220  0.00  0.00    +0.000 A 
ATOM      6  C   UNL     1      48.432   6.204  15.478  0.00  0.00    +0.000 A 
ATOM      7  S   UNL     1      49.948   6.976  15.580  0.00  0.00    +0.000 S 
ATOM      8  C   UNL     1      49.900   7.410  13.936  0.00  0.00    +0.000 A 
ATOM      9  N   UNL     1      50.943   8.063  13.356  0.00  0.00    +0.000 NA
ATOM     10  C   UNL     1      50.792   8.293  12.094  0.00  0.00    +0.000 A 
ATOM     11  N   UNL     1      49.682   7.951  11.366  0.00  0.00    +0.000 N 
ATOM     12  C   UNL     1      48.569   7.373  11.929  0.00  0.00    +0.000 A 
ATOM     13  O   UNL     1      47.535   7.226  11.286  0.00  0.00    +0.000 OA
ATOM     14  C   UNL     1      48.718   7.018  13.331  0.00  0.00    +0.000 A 
ATOM     15  H   UNL     1      49.607   8.202  10.392  0.00  0.00    +0.000 HD
ENDBRANCH   2   5
BRANCH   3  16
ATOM     16  C   UNL     1      44.304   5.880  12.995  0.00  0.00    +0.000 C 
BRANCH  16  17
ATOM     17  C   UNL     1      44.381   4.843  11.904  0.00  0.00    +0.000 A 
ATOM     18  C   UNL     1      45.006   5.143  10.687  0.00  0.00    +0.000 A 
ATOM     19  C   UNL     1      45.126   4.171   9.690  0.00  0.00    +0.000 A 
ATOM     20  C   UNL     1      44.610   2.883   9.882  0.00  0.00    +0.000 A 
ATOM     21  C   UNL     1      43.957   2.593  11.088  0.00  0.00    +0.000 A 
ATOM     22  C   UNL     1      43.835   3.567  12.085  0.00  0.00    +0.000 A 
BRANCH  20  23
ATOM     23  C   UNL     1      44.742   1.833   8.804  0.00  0.00    +0.000 C 
BRANCH  23  24
ATOM     24  C   UNL     1      45.872   2.047   7.833  0.00  0.00    +0.000 A 
ATOM     25  C   UNL     1      45.919   3.163   6.993  0.00  0.00    +0.000 A 
ATOM     26  C   UNL     1      46.946   3.288   6.060  0.00  0.00    +0.000 A 
ATOM     27  C   UNL     1      47.905   2.291   6.004  0.00  0.00    +0.000 A 
ATOM     28  N   UNL     1      47.911   1.213   6.813  0.00  0.00    +0.000 NA
ATOM     29  C   UNL     1      46.902   1.119   7.710  0.00  0.00    +0.000 A 
ENDBRANCH  23  24
ENDBRANCH  20  23
ENDBRANCH  16  17
ENDBRANCH   3  16
TORSDOF 5
ENDMDL
MODEL 4
REMARK VINA RESULT:    -7.837      2.103      2.649
REMARK INTER + INTRA:         -10.761
REMARK INTER:                  -9.997
REMARK INTRA:                  -0.764
REMARK UNBOUND:                -0.633
REMARK  Name = 
REMARK  5 active torsions:
REMARK  status: ('A' for Active; 'I' for Inactive)
REMARK    1  A    between atoms: C_2  and  C_18
REMARK    2  A    between atoms: N_3  and  C_4
REMARK    3  A    between atoms: C_4  and  C_5
REMARK    4  A    between atoms: C_8  and  C_9
REMARK    5  A    between atoms: C_9  and  C_10
REMARK                            x       y       z     vdW  Elec       q    Type
REMARK                         _______ _______ _______ _____ _____    ______ ____
ROOT
ATOM      1  O   UNL     1      46.207   8.721  13.474  0.00  0.00    +0.000 OA
ATOM      2  C   UNL     1      47.057   7.835  13.436  0.00  0.00    +0.000 C 
ATOM      3  N   UNL     1      46.734   6.516  13.256  0.00  0.00    +0.000 N 
ATOM      4  H   UNL     1      47.447   5.803  13.371  0.00  0.00    +0.000 HD
ENDROOT
BRANCH   2   5
ATOM      5  C   UNL     1      48.487   8.150  13.540  0.00  0.00    +0.000 A 
ATOM      6  C   UNL     1      49.046   9.104  12.700  0.00  0.00    +0.000 A 
ATOM      7  S   UNL     1      50.706   9.374  12.976  0.00  0.00    +0.000 S 
ATOM      8  C   UNL     1      50.732   8.251  14.254  0.00  0.00    +0.000 A 
ATOM      9  N   UNL     1      51.868   8.038  14.972  0.00  0.00    +0.000 NA
ATOM     10  C   UNL     1      51.736   7.193  15.939  0.00  0.00    +0.000 A 
ATOM     11  N   UNL     1      50.577   6.523  16.238  0.00  0.00    +0.000 N 
ATOM     12  C   UNL     1      49.433   6.640  15.485  0.00  0.00    +0.000 A 
ATOM     13  O   UNL     1      48.467   5.911  15.682  0.00  0.00    +0.000 OA
ATOM     14  C   UNL     1      49.503   7.640  14.433  0.00  0.00    +0.000 A 
ATOM     15  H   UNL     1      50.554   5.840  16.980  0.00  0.00    +0.000 HD
ENDBRANCH   2   5
BRANCH   3  16
ATOM     16  C   UNL     1      45.373   6.052  13.179  0.00  0.00    +0.000 C 
BRANCH  16  17
ATOM     17  C   UNL     1      45.178   5.075  12.049  0.00  0.00    +0.000 A 
ATOM     18  C   UNL     1      45.306   5.497  10.720  0.00  0.00    +0.000 A 
ATOM     19  C   UNL     1      45.175   4.586   9.668  0.00  0.00    +0.000 A 
ATOM     20  C   UNL     1      44.900   3.236   9.922  0.00  0.00    +0.000 A 
ATOM     21  C   UNL     1      44.742   2.820  11.251  0.00  0.00    +0.000 A 
ATOM     22  C   UNL     1      44.869   3.733  12.304  0.00  0.00    +0.000 A 
BRANCH  20  23
ATOM     23  C   UNL     1      44.762   2.252   8.784  0.00  0.00    +0.000 C 
BRANCH  23  24
ATOM     24  C   UNL     1      45.888   2.261   7.785  0.00  0.00    +0.000 A 
ATOM     25  C   UNL     1      46.005   3.264   6.818  0.00  0.00    +0.000 A 
ATOM     26  C   UNL     1      47.023   3.197   5.869  0.00  0.00    +0.000 A 
ATOM     27  C   UNL     1      47.903   2.130   5.924  0.00  0.00    +0.000 A 
ATOM     28  N   UNL     1      47.841   1.157   6.855  0.00  0.00    +0.000 NA
ATOM     29  C   UNL     1      46.843   1.248   7.765  0.00  0.00    +0.000 A 
ENDBRANCH  23  24
ENDBRANCH  20  23
ENDBRANCH  16  17
ENDBRANCH   3  16
TORSDOF 5
ENDMDL
MODEL 5
REMARK VINA RESULT:    -7.780      1.437      2.188
REMARK INTER + INTRA:         -10.686
REMARK INTER:                  -9.657
REMARK INTRA:                  -1.029
REMARK UNBOUND:                -0.633
REMARK  Name = 
REMARK  5 active torsions:
REMARK  status: ('A' for Active; 'I' for Inactive)
REMARK    1  A    between atoms: C_2  and  C_18
REMARK    2  A    between atoms: N_3  and  C_4
REMARK    3  A    between atoms: C_4  and  C_5
REMARK    4  A    between atoms: C_8  and  C_9
REMARK    5  A    between atoms: C_9  and  C_10
REMARK                            x       y       z     vdW  Elec       q    Type
REMARK                         _______ _______ _______ _____ _____    ______ ____
ROOT
ATOM      1  O   UNL     1      49.974   7.172  14.230  0.00  0.00    +0.000 OA
ATOM      2  C   UNL     1      49.110   7.062  15.096  0.00  0.00    +0.000 C 
ATOM      3  N   UNL     1      47.819   7.478  14.902  0.00  0.00    +0.000 N 
ATOM      4  H   UNL     1      47.174   7.500  15.685  0.00  0.00    +0.000 HD
ENDROOT
BRANCH   2   5
ATOM      5  C   UNL     1      49.406   6.430  16.388  0.00  0.00    +0.000 A 
ATOM      6  C   UNL     1      50.301   7.034  17.261  0.00  0.00    +0.000 A 
ATOM      7  S   UNL     1      50.504   6.190  18.728  0.00  0.00    +0.000 S 
ATOM      8  C   UNL     1      49.374   5.004  18.266  0.00  0.00    +0.000 A 
ATOM      9  N   UNL     1      49.037   3.994  19.112  0.00  0.00    +0.000 NA
ATOM     10  C   UNL     1      48.137   3.191  18.651  0.00  0.00    +0.000 A 
ATOM     11  N   UNL     1      47.563   3.292  17.411  0.00  0.00    +0.000 N 
ATOM     12  C   UNL     1      47.938   4.241  16.490  0.00  0.00    +0.000 A 
ATOM     13  O   UNL     1      47.521   4.207  15.337  0.00  0.00    +0.000 OA
ATOM     14  C   UNL     1      48.888   5.221  16.988  0.00  0.00    +0.000 A 
ATOM     15  H   UNL     1      46.898   2.602  17.093  0.00  0.00    +0.000 HD
ENDBRANCH   2   5
BRANCH   3  16
ATOM     16  C   UNL     1      47.391   8.151  13.703  0.00  0.00    +0.000 C 
BRANCH  16  17
ATOM     17  C   UNL     1      46.528   7.266  12.842  0.00  0.00    +0.000 A 
ATOM     18  C   UNL     1      45.398   7.789  12.201  0.00  0.00    +0.000 A 
ATOM     19  C   UNL     1      44.620   6.986  11.362  0.00  0.00    +0.000 A 
ATOM     20  C   UNL     1      44.948   5.639  11.156  0.00  0.00    +0.000 A 
ATOM     21  C   UNL     1      46.061   5.109  11.822  0.00  0.00    +0.000 A 
ATOM     22  C   UNL     1      46.837   5.912  12.665  0.00  0.00    +0.000 A 
BRANCH  20  23
ATOM     23  C   UNL     1      44.109   4.773  10.247  0.00  0.00    +0.000 C 
BRANCH  23  24
ATOM     24  C   UNL     1      44.881   3.829   9.365  0.00  0.00    +0.000 A 
ATOM     25  C   UNL     1      45.657   4.288   8.297  0.00  0.00    +0.000 A 
ATOM     26  C   UNL     1      46.300   3.376   7.463  0.00  0.00    +0.000 A 
ATOM     27  C   UNL     1      46.155   2.025   7.733  0.00  0.00    +0.000 A 
ATOM     28  N   UNL     1      45.439   1.542   8.767  0.00  0.00    +0.000 NA
ATOM     29  C   UNL     1      44.826   2.451   9.561  0.00  0.00    +0.000 A 
ENDBRANCH  23  24
ENDBRANCH  20  23
ENDBRANCH  16  17
ENDBRANCH   3  16
TORSDOF 5
ENDMDL
MODEL 6
REMARK VINA RESULT:    -7.725      3.468      4.452
REMARK INTER + INTRA:         -10.615
REMARK INTER:                 -10.597
REMARK INTRA:                  -0.018
REMARK UNBOUND:                -0.633
REMARK  Name = 
REMARK  5 active torsions:
REMARK  status: ('A' for Active; 'I' for Inactive)
REMARK    1  A    between atoms: C_2  and  C_18
REMARK    2  A    between atoms: N_3  and  C_4
REMARK    3  A    between atoms: C_4  and  C_5
REMARK    4  A    between atoms: C_8  and  C_9
REMARK    5  A    between atoms: C_9  and  C_10
REMARK                            x       y       z     vdW  Elec       q    Type
REMARK                         _______ _______ _______ _____ _____    ______ ____
ROOT
ATOM      1  O   UNL     1      46.724   6.739  13.586  0.00  0.00    +0.000 OA
ATOM      2  C   UNL     1      46.063   7.473  12.856  0.00  0.00    +0.000 C 
ATOM      3  N   UNL     1      44.768   7.192  12.511  0.00  0.00    +0.000 N 
ATOM      4  H   UNL     1      44.305   7.745  11.797  0.00  0.00    +0.000 HD
ENDROOT
BRANCH   2   5
ATOM      5  C   UNL     1      46.618   8.732  12.341  0.00  0.00    +0.000 A 
ATOM      6  C   UNL     1      45.795   9.841  12.200  0.00  0.00    +0.000 A 
ATOM      7  S   UNL     1      46.604  11.227  11.624  0.00  0.00    +0.000 S 
ATOM      8  C   UNL     1      48.093  10.405  11.578  0.00  0.00    +0.000 A 
ATOM      9  N   UNL     1      49.234  11.050  11.214  0.00  0.00    +0.000 NA
ATOM     10  C   UNL     1      50.298  10.319  11.263  0.00  0.00    +0.000 A 
ATOM     11  N   UNL     1      50.319   8.996  11.620  0.00  0.00    +0.000 N 
ATOM     12  C   UNL     1      49.181   8.282  11.907  0.00  0.00    +0.000 A 
ATOM     13  O   UNL     1      49.216   7.067  12.067  0.00  0.00    +0.000 OA
ATOM     14  C   UNL     1      47.964   9.077  11.946  0.00  0.00    +0.000 A 
ATOM     15  H   UNL     1      51.180   8.469  11.593  0.00  0.00    +0.000 HD
ENDBRANCH   2   5
BRANCH   3  16
ATOM     16  C   UNL     1      44.105   5.976  12.906  0.00  0.00    +0.000 C 
BRANCH  16  17
ATOM     17  C   UNL     1      44.241   4.899  11.861  0.00  0.00    +0.000 A 
ATOM     18  C   UNL     1      45.011   5.123  10.713  0.00  0.00    +0.000 A 
ATOM     19  C   UNL     1      45.182   4.112   9.762  0.00  0.00    +0.000 A 
ATOM     20  C   UNL     1      44.575   2.861   9.932  0.00  0.00    +0.000 A 
ATOM     21  C   UNL     1      43.779   2.648  11.066  0.00  0.00    +0.000 A 
ATOM     22  C   UNL     1      43.605   3.661  12.016  0.00  0.00    +0.000 A 
BRANCH  20  23
ATOM     23  C   UNL     1      44.762   1.769   8.906  0.00  0.00    +0.000 C 
BRANCH  23  24
ATOM     24  C   UNL     1      45.856   2.014   7.900  0.00  0.00    +0.000 A 
ATOM     25  C   UNL     1      45.867   3.151   7.087  0.00  0.00    +0.000 A 
ATOM     26  C   UNL     1      46.860   3.304   6.121  0.00  0.00    +0.000 A 
ATOM     27  C   UNL     1      47.821   2.314   6.006  0.00  0.00    +0.000 A 
ATOM     28  N   UNL     1      47.861   1.216   6.786  0.00  0.00    +0.000 NA
ATOM     29  C   UNL     1      46.885   1.094   7.716  0.00  0.00    +0.000 A 
ENDBRANCH  23  24
ENDBRANCH  20  23
ENDBRANCH  16  17
ENDBRANCH   3  16
TORSDOF 5
ENDMDL
MODEL 7
REMARK VINA RESULT:    -7.500      4.086      9.104
REMARK INTER + INTRA:         -10.325
REMARK INTER:                  -9.578
REMARK INTRA:                  -0.747
REMARK UNBOUND:                -0.633
REMARK  Name = 
REMARK  5 active torsions:
REMARK  status: ('A' for Active; 'I' for Inactive)
REMARK    1  A    between atoms: C_2  and  C_18
REMARK    2  A    between atoms: N_3  and  C_4
REMARK    3  A    between atoms: C_4  and  C_5
REMARK    4  A    between atoms: C_8  and  C_9
REMARK    5  A    between atoms: C_9  and  C_10
REMARK                            x       y       z     vdW  Elec       q    Type
REMARK                         _______ _______ _______ _____ _____    ______ ____
ROOT
ATOM      1  O   UNL     1      47.333   3.184  13.994  0.00  0.00    +0.000 OA
ATOM      2  C   UNL     1      46.795   4.175  14.482  0.00  0.00    +0.000 C 
ATOM      3  N   UNL     1      46.768   4.406  15.832  0.00  0.00    +0.000 N 
ATOM      4  H   UNL     1      46.196   5.157  16.203  0.00  0.00    +0.000 HD
ENDROOT
BRANCH   2   5
ATOM      5  C   UNL     1      46.181   5.202  13.630  0.00  0.00    +0.000 A 
ATOM      6  C   UNL     1      46.858   6.389  13.385  0.00  0.00    +0.000 A 
ATOM      7  S   UNL     1      46.021   7.455  12.351  0.00  0.00    +0.000 S 
ATOM      8  C   UNL     1      44.739   6.354  12.163  0.00  0.00    +0.000 A 
ATOM      9  N   UNL     1      43.691   6.636  11.341  0.00  0.00    +0.000 NA
ATOM     10  C   UNL     1      42.811   5.695  11.259  0.00  0.00    +0.000 A 
ATOM     11  N   UNL     1      42.870   4.509  11.943  0.00  0.00    +0.000 N 
ATOM     12  C   UNL     1      43.860   4.220  12.851  0.00  0.00    +0.000 A 
ATOM     13  O   UNL     1      43.799   3.222  13.561  0.00  0.00    +0.000 OA
ATOM     14  C   UNL     1      44.922   5.210  12.921  0.00  0.00    +0.000 A 
ATOM     15  H   UNL     1      42.123   3.834  11.869  0.00  0.00    +0.000 HD
ENDBRANCH   2   5
BRANCH   3  16
ATOM     16  C   UNL     1      47.293   3.469  16.791  0.00  0.00    +0.000 C 
BRANCH  16  17
ATOM     17  C   UNL     1      48.745   3.733  17.094  0.00  0.00    +0.000 A 
ATOM     18  C   UNL     1      49.638   2.667  17.262  0.00  0.00    +0.000 A 
ATOM     19  C   UNL     1      50.995   2.904  17.494  0.00  0.00    +0.000 A 
ATOM     20  C   UNL     1      51.488   4.213  17.577  0.00  0.00    +0.000 A 
ATOM     21  C   UNL     1      50.589   5.280  17.440  0.00  0.00    +0.000 A 
ATOM     22  C   UNL     1      49.229   5.042  17.211  0.00  0.00    +0.000 A 
BRANCH  20  23
ATOM     23  C   UNL     1      52.955   4.469  17.826  0.00  0.00    +0.000 C 
BRANCH  23  24
ATOM     24  C   UNL     1      53.735   3.288  18.340  0.00  0.00    +0.000 A 
ATOM     25  C   UNL     1      54.388   2.404  17.476  0.00  0.00    +0.000 A 
ATOM     26  C   UNL     1      55.041   1.286  17.989  0.00  0.00    +0.000 A 
ATOM     27  C   UNL     1      55.028   1.090  19.360  0.00  0.00    +0.000 A 
ATOM     28  N   UNL     1      54.433   1.931  20.229  0.00  0.00    +0.000 NA
ATOM     29  C   UNL     1      53.808   3.010  19.702  0.00  0.00    +0.000 A 
ENDBRANCH  23  24
ENDBRANCH  20  23
ENDBRANCH  16  17
ENDBRANCH   3  16
TORSDOF 5
ENDMDL
MODEL 8
REMARK VINA RESULT:    -7.307      2.944      3.980
REMARK INTER + INTRA:         -10.075
REMARK INTER:                  -9.191
REMARK INTRA:                  -0.884
REMARK UNBOUND:                -0.633
REMARK  Name = 
REMARK  5 active torsions:
REMARK  status: ('A' for Active; 'I' for Inactive)
REMARK    1  A    between atoms: C_2  and  C_18
REMARK    2  A    between atoms: N_3  and  C_4
REMARK    3  A    between atoms: C_4  and  C_5
REMARK    4  A    between atoms: C_8  and  C_9
REMARK    5  A    between atoms: C_9  and  C_10
REMARK                            x       y       z     vdW  Elec       q    Type
REMARK                         _______ _______ _______ _____ _____    ______ ____
ROOT
ATOM      1  O   UNL     1      49.612   5.396  16.401  0.00  0.00    +0.000 OA
ATOM      2  C   UNL     1      48.775   6.271  16.604  0.00  0.00    +0.000 C 
ATOM      3  N   UNL     1      48.234   7.018  15.591  0.00  0.00    +0.000 N 
ATOM      4  H   UNL     1      47.655   7.821  15.812  0.00  0.00    +0.000 HD
ENDROOT
BRANCH   2   5
ATOM      5  C   UNL     1      48.269   6.540  17.956  0.00  0.00    +0.000 A 
ATOM      6  C   UNL     1      48.027   5.483  18.824  0.00  0.00    +0.000 A 
ATOM      7  S   UNL     1      47.476   5.970  20.362  0.00  0.00    +0.000 S 
ATOM      8  C   UNL     1      47.577   7.615  19.938  0.00  0.00    +0.000 A 
ATOM      9  N   UNL     1      47.288   8.588  20.843  0.00  0.00    +0.000 NA
ATOM     10  C   UNL     1      47.447   9.791  20.401  0.00  0.00    +0.000 A 
ATOM     11  N   UNL     1      47.845  10.109  19.129  0.00  0.00    +0.000 N 
ATOM     12  C   UNL     1      48.060   9.161  18.156  0.00  0.00    +0.000 A 
ATOM     13  O   UNL     1      48.259   9.483  16.989  0.00  0.00    +0.000 OA
ATOM     14  C   UNL     1      47.974   7.788  18.622  0.00  0.00    +0.000 A 
ATOM     15  H   UNL     1      47.905  11.071  18.833  0.00  0.00    +0.000 HD
ENDBRANCH   2   5
BRANCH   3  16
ATOM     16  C   UNL     1      48.662   6.895  14.221  0.00  0.00    +0.000 C 
BRANCH  16  17
ATOM     17  C   UNL     1      47.576   6.327  13.345  0.00  0.00    +0.000 A 
ATOM     18  C   UNL     1      47.174   7.005  12.188  0.00  0.00    +0.000 A 
ATOM     19  C   UNL     1      46.202   6.460  11.344  0.00  0.00    +0.000 A 
ATOM     20  C   UNL     1      45.601   5.231  11.647  0.00  0.00    +0.000 A 
ATOM     21  C   UNL     1      45.982   4.567  12.821  0.00  0.00    +0.000 A 
ATOM     22  C   UNL     1      46.952   5.115  13.667  0.00  0.00    +0.000 A 
BRANCH  20  23
ATOM     23  C   UNL     1      44.553   4.641  10.733  0.00  0.00    +0.000 C 
BRANCH  23  24
ATOM     24  C   UNL     1      45.087   3.860   9.562  0.00  0.00    +0.000 A 
ATOM     25  C   UNL     1      45.146   2.463   9.574  0.00  0.00    +0.000 A 
ATOM     26  C   UNL     1      45.711   1.782   8.498  0.00  0.00    +0.000 A 
ATOM     27  C   UNL     1      46.193   2.524   7.433  0.00  0.00    +0.000 A 
ATOM     28  N   UNL     1      46.132   3.869   7.370  0.00  0.00    +0.000 NA
ATOM     29  C   UNL     1      45.577   4.503   8.429  0.00  0.00    +0.000 A 
ENDBRANCH  23  24
ENDBRANCH  20  23
ENDBRANCH  16  17
ENDBRANCH   3  16
TORSDOF 5
ENDMDL
MODEL 9
REMARK VINA RESULT:    -7.057      2.774      4.246
REMARK INTER + INTRA:          -9.752
REMARK INTER:                  -9.233
REMARK INTRA:                  -0.519
REMARK UNBOUND:                -0.633
REMARK  Name = 
REMARK  5 active torsions:
REMARK  status: ('A' for Active; 'I' for Inactive)
REMARK    1  A    between atoms: C_2  and  C_18
REMARK    2  A    between atoms: N_3  and  C_4
REMARK    3  A    between atoms: C_4  and  C_5
REMARK    4  A    between atoms: C_8  and  C_9
REMARK    5  A    between atoms: C_9  and  C_10
REMARK                            x       y       z     vdW  Elec       q    Type
REMARK                         _______ _______ _______ _____ _____    ______ ____
ROOT
ATOM      1  O   UNL     1      48.686   5.899  13.460  0.00  0.00    +0.000 OA
ATOM      2  C   UNL     1      47.993   6.913  13.502  0.00  0.00    +0.000 C 
ATOM      3  N   UNL     1      46.630   6.865  13.632  0.00  0.00    +0.000 N 
ATOM      4  H   UNL     1      46.084   7.713  13.521  0.00  0.00    +0.000 HD
ENDROOT
BRANCH   2   5
ATOM      5  C   UNL     1      48.600   8.249  13.459  0.00  0.00    +0.000 A 
ATOM      6  C   UNL     1      48.193   9.220  14.365  0.00  0.00    +0.000 A 
ATOM      7  S   UNL     1      49.021  10.701  14.201  0.00  0.00    +0.000 S 
ATOM      8  C   UNL     1      49.980  10.088  12.936  0.00  0.00    +0.000 A 
ATOM      9  N   UNL     1      50.954  10.849  12.367  0.00  0.00    +0.000 NA
ATOM     10  C   UNL     1      51.632  10.246  11.450  0.00  0.00    +0.000 A 
ATOM     11  N   UNL     1      51.410   8.960  11.032  0.00  0.00    +0.000 N 
ATOM     12  C   UNL     1      50.381   8.186  11.515  0.00  0.00    +0.000 A 
ATOM     13  O   UNL     1      50.110   7.102  11.010  0.00  0.00    +0.000 OA
ATOM     14  C   UNL     1      49.636   8.788  12.608  0.00  0.00    +0.000 A 
ATOM     15  H   UNL     1      51.947   8.562  10.276  0.00  0.00    +0.000 HD
ENDBRANCH   2   5
BRANCH   3  16
ATOM     16  C   UNL     1      45.893   5.628  13.645  0.00  0.00    +0.000 C 
BRANCH  16  17
ATOM     17  C   UNL     1      45.614   5.128  12.251  0.00  0.00    +0.000 A 
ATOM     18  C   UNL     1      45.210   3.804  12.043  0.00  0.00    +0.000 A 
ATOM     19  C   UNL     1      44.901   3.347  10.759  0.00  0.00    +0.000 A 
ATOM     20  C   UNL     1      45.003   4.202   9.653  0.00  0.00    +0.000 A 
ATOM     21  C   UNL     1      45.437   5.519   9.858  0.00  0.00    +0.000 A 
ATOM     22  C   UNL     1      45.749   5.974  11.144  0.00  0.00    +0.000 A 
BRANCH  20  23
ATOM     23  C   UNL     1      44.667   3.708   8.266  0.00  0.00    +0.000 C 
BRANCH  23  24
ATOM     24  C   UNL     1      45.722   2.855   7.613  0.00  0.00    +0.000 A 
ATOM     25  C   UNL     1      46.401   3.273   6.465  0.00  0.00    +0.000 A 
ATOM     26  C   UNL     1      47.321   2.424   5.853  0.00  0.00    +0.000 A 
ATOM     27  C   UNL     1      47.542   1.180   6.420  0.00  0.00    +0.000 A 
ATOM     28  N   UNL     1      46.929   0.749   7.540  0.00  0.00    +0.000 NA
ATOM     29  C   UNL     1      46.042   1.595   8.113  0.00  0.00    +0.000 A 
ENDBRANCH  23  24
ENDBRANCH  20  23
ENDBRANCH  16  17
ENDBRANCH   3  16
TORSDOF 5
ENDMDL
