MODEL 1
REMARK VINA RESULT:    -8.405      0.000      0.000
REMARK INTER + INTRA:         -14.637
REMARK INTER:                 -13.073
REMARK INTRA:                  -1.564
REMARK UNBOUND:                -1.564
REMARK  Name = 
REMARK  11 active torsions:
REMARK  status: ('A' for Active; 'I' for Inactive)
REMARK    1  A    between atoms: C_1  and  O_2
REMARK    2  A    between atoms: O_2  and  C_3
REMARK    3  A    between atoms: C_10  and  C_11
REMARK    4  A    between atoms: N_13  and  C_14
REMARK    5  A    between atoms: C_14  and  C_15
REMARK    6  A    between atoms: C_18  and  O_19
REMARK    7  A    between atoms: O_19  and  C_20
REMARK    8  A    between atoms: C_20  and  C_21
REMARK    9  A    between atoms: C_21  and  C_22
REMARK   10  A    between atoms: C_25  and  C_26
REMARK   11  A    between atoms: C_26  and  O_28
REMARK                            x       y       z     vdW  Elec       q    Type
REMARK                         _______ _______ _______ _____ _____    ______ ____
ROOT
ATOM      1  C   UNL     1      47.231   6.384  13.198  0.00  0.00    +0.000 A 
ATOM      2  C   UNL     1      46.965   5.018  13.357  0.00  0.00    +0.000 A 
ATOM      3  C   UNL     1      45.675   4.508  13.155  0.00  0.00    +0.000 A 
ATOM      4  C   UNL     1      44.627   5.354  12.786  0.00  0.00    +0.000 A 
ATOM      5  C   UNL     1      44.899   6.707  12.573  0.00  0.00    +0.000 A 
ATOM      6  C   UNL     1      46.188   7.219  12.778  0.00  0.00    +0.000 A 
ENDROOT
BRANCH   1   7
ATOM      7  C   UNL     1      48.614   6.931  13.453  0.00  0.00    +0.000 C 
BRANCH   7  10
ATOM      8  C   UNL     1      48.721   7.822  15.743  0.00  0.00    +0.000 C 
ATOM      9  O   UNL     1      48.174   8.864  15.399  0.00  0.00    +0.000 OA
ATOM     10  N   UNL     1      48.980   6.821  14.846  0.00  0.00    +0.000 N 
ATOM     11  H   UNL     1      49.495   6.005  15.130  0.00  0.00    +0.000 HD
BRANCH   8  19
ATOM     12  C   UNL     1      48.457   5.112  17.864  0.00  0.00    +0.000 A 
ATOM     13  N   UNL     1      48.405   4.262  18.911  0.00  0.00    +0.000 NA
ATOM     14  C   UNL     1      48.869   4.681  20.089  0.00  0.00    +0.000 A 
ATOM     15  N   UNL     1      49.397   5.869  20.362  0.00  0.00    +0.000 NA
ATOM     16  C   UNL     1      49.417   6.692  19.300  0.00  0.00    +0.000 A 
ATOM     17  S   UNL     1      50.071   8.250  19.466  0.00  0.00    +0.000 S 
ATOM     18  C   UNL     1      49.730   8.619  17.843  0.00  0.00    +0.000 A 
ATOM     19  C   UNL     1      49.113   7.587  17.147  0.00  0.00    +0.000 A 
ATOM     20  C   UNL     1      48.956   6.419  18.014  0.00  0.00    +0.000 A 
BRANCH  12  22
ATOM     21  C   UNL     1      47.881   3.237  16.574  0.00  0.00    +0.000 C 
ATOM     22  O   UNL     1      48.030   4.655  16.633  0.00  0.00    +0.000 OA
ENDBRANCH  12  22
ENDBRANCH   8  19
ENDBRANCH   7  10
ENDBRANCH   1   7
BRANCH   4  23
ATOM     23  O   UNL     1      43.329   4.952  12.574  0.00  0.00    +0.000 OA
BRANCH  23  24
ATOM     24  C   UNL     1      43.135   4.110  11.426  0.00  0.00    +0.000 C 
BRANCH  24  25
ATOM     25  C   UNL     1      43.719   4.775  10.173  0.00  0.00    +0.000 C 
BRANCH  25  26
ATOM     26  C   UNL     1      44.606   3.833   9.384  0.00  0.00    +0.000 A 
ATOM     27  C   UNL     1      45.534   4.324   8.454  0.00  0.00    +0.000 A 
ATOM     28  C   UNL     1      46.363   3.451   7.732  0.00  0.00    +0.000 A 
ATOM     29  C   UNL     1      46.256   2.067   7.921  0.00  0.00    +0.000 A 
ATOM     30  C   UNL     1      45.332   1.574   8.847  0.00  0.00    +0.000 A 
ATOM     31  C   UNL     1      44.509   2.448   9.568  0.00  0.00    +0.000 A 
BRANCH  29  32
ATOM     32  C   UNL     1      47.133   1.084   7.227  0.00  0.00    +0.000 C 
ATOM     33  O   UNL     1      47.872   1.398   6.309  0.00  0.00    +0.000 OA
BRANCH  32  34
ATOM     34  O   UNL     1      47.078  -0.172   7.719  0.00  0.00    +0.000 OA
ATOM     35  H   UNL     1      47.929  -0.637   7.788  0.00  0.00    +0.000 HD
ENDBRANCH  32  34
ENDBRANCH  29  32
ENDBRANCH  25  26
ENDBRANCH  24  25
ENDBRANCH  23  24
ENDBRANCH   4  23
TORSDOF 10
ENDMDL
MODEL 2
REMARK VINA RESULT:    -7.636      2.176      2.498
REMARK INTER + INTRA:         -13.441
REMARK INTER:                 -11.942
REMARK INTRA:                  -1.499
REMARK UNBOUND:                -1.564
REMARK  Name = 
REMARK  11 active torsions:
REMARK  status: ('A' for Active; 'I' for Inactive)
REMARK    1  A    between atoms: C_1  and  O_2
REMARK    2  A    between atoms: O_2  and  C_3
REMARK    3  A    between atoms: C_10  and  C_11
REMARK    4  A    between atoms: N_13  and  C_14
REMARK    5  A    between atoms: C_14  and  C_15
REMARK    6  A    between atoms: C_18  and  O_19
REMARK    7  A    between atoms: O_19  and  C_20
REMARK    8  A    between atoms: C_20  and  C_21
REMARK    9  A    between atoms: C_21  and  C_22
REMARK   10  A    between atoms: C_25  and  C_26
REMARK   11  A    between atoms: C_26  and  O_28
REMARK                            x       y       z     vdW  Elec       q    Type
REMARK                         _______ _______ _______ _____ _____    ______ ____
ROOT
ATOM      1  C   UNL     1      47.908   7.026  12.546  0.00  0.00    +0.000 A 
ATOM      2  C   UNL     1      47.877   5.885  13.358  0.00  0.00    +0.000 A 
ATOM      3  C   UNL     1      46.740   5.067  13.404  0.00  0.00    +0.000 A 
ATOM      4  C   UNL     1      45.614   5.371  12.635  0.00  0.00    +0.000 A 
ATOM      5  C   UNL     1      45.661   6.476  11.783  0.00  0.00    +0.000 A 
ATOM      6  C   UNL     1      46.796   7.298  11.739  0.00  0.00    +0.000 A 
ENDROOT
BRANCH   1   7
ATOM      7  C   UNL     1      49.121   7.924  12.529  0.00  0.00    +0.000 C 
BRANCH   7  10
ATOM      8  C   UNL     1      50.371   7.877  14.646  0.00  0.00    +0.000 C 
ATOM      9  O   UNL     1      49.668   8.762  15.121  0.00  0.00    +0.000 OA
ATOM     10  N   UNL     1      50.173   7.410  13.375  0.00  0.00    +0.000 N 
ATOM     11  H   UNL     1      50.805   6.736  12.976  0.00  0.00    +0.000 HD
BRANCH   8  19
ATOM     12  C   UNL     1      50.470   5.327  16.972  0.00  0.00    +0.000 A 
ATOM     13  N   UNL     1      50.782   4.452  17.949  0.00  0.00    +0.000 NA
ATOM     14  C   UNL     1      52.047   4.396  18.368  0.00  0.00    +0.000 A 
ATOM     15  N   UNL     1      53.069   5.118  17.921  0.00  0.00    +0.000 NA
ATOM     16  C   UNL     1      52.716   5.990  16.961  0.00  0.00    +0.000 A 
ATOM     17  S   UNL     1      53.901   6.986  16.264  0.00  0.00    +0.000 S 
ATOM     18  C   UNL     1      52.752   7.733  15.260  0.00  0.00    +0.000 A 
ATOM     19  C   UNL     1      51.458   7.257  15.430  0.00  0.00    +0.000 A 
ATOM     20  C   UNL     1      51.443   6.186  16.429  0.00  0.00    +0.000 A 
BRANCH  12  22
ATOM     21  C   UNL     1      48.285   6.118  17.303  0.00  0.00    +0.000 C 
ATOM     22  O   UNL     1      49.173   5.341  16.499  0.00  0.00    +0.000 OA
ENDBRANCH  12  22
ENDBRANCH   8  19
ENDBRANCH   7  10
ENDBRANCH   1   7
BRANCH   4  23
ATOM     23  O   UNL     1      44.452   4.637  12.619  0.00  0.00    +0.000 OA
BRANCH  23  24
ATOM     24  C   UNL     1      44.557   3.348  11.993  0.00  0.00    +0.000 C 
BRANCH  24  25
ATOM     25  C   UNL     1      43.860   3.363  10.626  0.00  0.00    +0.000 C 
BRANCH  25  26
ATOM     26  C   UNL     1      44.825   3.104   9.487  0.00  0.00    +0.000 A 
ATOM     27  C   UNL     1      45.211   1.798   9.149  0.00  0.00    +0.000 A 
ATOM     28  C   UNL     1      46.096   1.559   8.086  0.00  0.00    +0.000 A 
ATOM     29  C   UNL     1      46.623   2.634   7.358  0.00  0.00    +0.000 A 
ATOM     30  C   UNL     1      46.241   3.937   7.692  0.00  0.00    +0.000 A 
ATOM     31  C   UNL     1      45.355   4.172   8.751  0.00  0.00    +0.000 A 
BRANCH  29  32
ATOM     32  C   UNL     1      47.529   2.455   6.190  0.00  0.00    +0.000 C 
ATOM     33  O   UNL     1      48.368   1.572   6.140  0.00  0.00    +0.000 OA
BRANCH  32  34
ATOM     34  O   UNL     1      47.320   3.319   5.174  0.00  0.00    +0.000 OA
ATOM     35  H   UNL     1      46.984   4.196   5.427  0.00  0.00    +0.000 HD
ENDBRANCH  32  34
ENDBRANCH  29  32
ENDBRANCH  25  26
ENDBRANCH  24  25
ENDBRANCH  23  24
ENDBRANCH   4  23
TORSDOF 10
ENDMDL
MODEL 3
REMARK VINA RESULT:    -7.242      4.688      6.601
REMARK INTER + INTRA:         -12.828
REMARK INTER:                 -11.557
REMARK INTRA:                  -1.271
REMARK UNBOUND:                -1.564
REMARK  Name = 
REMARK  11 active torsions:
REMARK  status: ('A' for Active; 'I' for Inactive)
REMARK    1  A    between atoms: C_1  and  O_2
REMARK    2  A    between atoms: O_2  and  C_3
REMARK    3  A    between atoms: C_10  and  C_11
REMARK    4  A    between atoms: N_13  and  C_14
REMARK    5  A    between atoms: C_14  and  C_15
REMARK    6  A    between atoms: C_18  and  O_19
REMARK    7  A    between atoms: O_19  and  C_20
REMARK    8  A    between atoms: C_20  and  C_21
REMARK    9  A    between atoms: C_21  and  C_22
REMARK   10  A    between atoms: C_25  and  C_26
REMARK   11  A    between atoms: C_26  and  O_28
REMARK                            x       y       z     vdW  Elec       q    Type
REMARK                         _______ _______ _______ _____ _____    ______ ____
ROOT
ATOM      1  C   UNL     1      48.327   6.838  12.738  0.00  0.00    +0.000 A 
ATOM      2  C   UNL     1      47.869   5.791  13.547  0.00  0.00    +0.000 A 
ATOM      3  C   UNL     1      46.624   5.190  13.310  0.00  0.00    +0.000 A 
ATOM      4  C   UNL     1      45.817   5.622  12.256  0.00  0.00    +0.000 A 
ATOM      5  C   UNL     1      46.293   6.627  11.412  0.00  0.00    +0.000 A 
ATOM      6  C   UNL     1      47.536   7.232  11.650  0.00  0.00    +0.000 A 
ENDROOT
BRANCH   1   7
ATOM      7  C   UNL     1      49.651   7.505  13.020  0.00  0.00    +0.000 C 
BRANCH   7  10
ATOM      8  C   UNL     1      51.515   8.504  11.764  0.00  0.00    +0.000 C 
ATOM      9  O   UNL     1      52.273   8.373  12.719  0.00  0.00    +0.000 OA
ATOM     10  N   UNL     1      50.206   8.107  11.831  0.00  0.00    +0.000 N 
ATOM     11  H   UNL     1      49.580   8.289  11.064  0.00  0.00    +0.000 HD
BRANCH   8  19
ATOM     12  C   UNL     1      53.256   7.223   9.073  0.00  0.00    +0.000 A 
ATOM     13  N   UNL     1      53.983   7.019   7.955  0.00  0.00    +0.000 NA
ATOM     14  C   UNL     1      54.176   8.048   7.129  0.00  0.00    +0.000 A 
ATOM     15  N   UNL     1      53.721   9.288   7.278  0.00  0.00    +0.000 NA
ATOM     16  C   UNL     1      53.016   9.457   8.410  0.00  0.00    +0.000 A 
ATOM     17  S   UNL     1      52.347  10.978   8.755  0.00  0.00    +0.000 S 
ATOM     18  C   UNL     1      51.702  10.415  10.223  0.00  0.00    +0.000 A 
ATOM     19  C   UNL     1      51.980   9.080  10.487  0.00  0.00    +0.000 A 
ATOM     20  C   UNL     1      52.742   8.496   9.382  0.00  0.00    +0.000 A 
BRANCH  12  22
ATOM     21  C   UNL     1      54.178   5.389  10.211  0.00  0.00    +0.000 C 
ATOM     22  O   UNL     1      53.008   6.142   9.895  0.00  0.00    +0.000 OA
ENDBRANCH  12  22
ENDBRANCH   8  19
ENDBRANCH   7  10
ENDBRANCH   1   7
BRANCH   4  23
ATOM     23  O   UNL     1      44.581   5.103  11.949  0.00  0.00    +0.000 OA
BRANCH  23  24
ATOM     24  C   UNL     1      44.543   3.675  11.800  0.00  0.00    +0.000 C 
BRANCH  24  25
ATOM     25  C   UNL     1      43.854   3.296  10.483  0.00  0.00    +0.000 C 
BRANCH  25  26
ATOM     26  C   UNL     1      44.848   3.040   9.368  0.00  0.00    +0.000 A 
ATOM     27  C   UNL     1      45.283   1.739   9.072  0.00  0.00    +0.000 A 
ATOM     28  C   UNL     1      46.196   1.503   8.032  0.00  0.00    +0.000 A 
ATOM     29  C   UNL     1      46.700   2.575   7.285  0.00  0.00    +0.000 A 
ATOM     30  C   UNL     1      46.269   3.874   7.577  0.00  0.00    +0.000 A 
ATOM     31  C   UNL     1      45.356   4.105   8.613  0.00  0.00    +0.000 A 
BRANCH  29  32
ATOM     32  C   UNL     1      47.632   2.397   6.138  0.00  0.00    +0.000 C 
ATOM     33  O   UNL     1      48.432   1.478   6.080  0.00  0.00    +0.000 OA
BRANCH  32  34
ATOM     34  O   UNL     1      47.495   3.306   5.149  0.00  0.00    +0.000 OA
ATOM     35  H   UNL     1      46.757   3.154   4.535  0.00  0.00    +0.000 HD
ENDBRANCH  32  34
ENDBRANCH  29  32
ENDBRANCH  25  26
ENDBRANCH  24  25
ENDBRANCH  23  24
ENDBRANCH   4  23
TORSDOF 10
ENDMDL
MODEL 4
REMARK VINA RESULT:    -6.988      3.402      5.264
REMARK INTER + INTRA:         -12.433
REMARK INTER:                 -10.997
REMARK INTRA:                  -1.435
REMARK UNBOUND:                -1.564
REMARK  Name = 
REMARK  11 active torsions:
REMARK  status: ('A' for Active; 'I' for Inactive)
REMARK    1  A    between atoms: C_1  and  O_2
REMARK    2  A    between atoms: O_2  and  C_3
REMARK    3  A    between atoms: C_10  and  C_11
REMARK    4  A    between atoms: N_13  and  C_14
REMARK    5  A    between atoms: C_14  and  C_15
REMARK    6  A    between atoms: C_18  and  O_19
REMARK    7  A    between atoms: O_19  and  C_20
REMARK    8  A    between atoms: C_20  and  C_21
REMARK    9  A    between atoms: C_21  and  C_22
REMARK   10  A    between atoms: C_25  and  C_26
REMARK   11  A    between atoms: C_26  and  O_28
REMARK                            x       y       z     vdW  Elec       q    Type
REMARK                         _______ _______ _______ _____ _____    ______ ____
ROOT
ATOM      1  C   UNL     1      48.022   6.763  14.185  0.00  0.00    +0.000 A 
ATOM      2  C   UNL     1      47.403   7.782  13.450  0.00  0.00    +0.000 A 
ATOM      3  C   UNL     1      46.326   7.501  12.598  0.00  0.00    +0.000 A 
ATOM      4  C   UNL     1      45.844   6.197  12.468  0.00  0.00    +0.000 A 
ATOM      5  C   UNL     1      46.422   5.187  13.240  0.00  0.00    +0.000 A 
ATOM      6  C   UNL     1      47.502   5.465  14.090  0.00  0.00    +0.000 A 
ENDROOT
BRANCH   1   7
ATOM      7  C   UNL     1      49.205   7.065  15.073  0.00  0.00    +0.000 C 
BRANCH   7  10
ATOM      8  C   UNL     1      51.278   8.314  14.636  0.00  0.00    +0.000 C 
ATOM      9  O   UNL     1      51.087   9.037  15.608  0.00  0.00    +0.000 OA
ATOM     10  N   UNL     1      50.397   7.322  14.299  0.00  0.00    +0.000 N 
ATOM     11  H   UNL     1      50.531   6.787  13.458  0.00  0.00    +0.000 HD
BRANCH   8  19
ATOM     12  C   UNL     1      51.777   8.468  11.224  0.00  0.00    +0.000 A 
ATOM     13  N   UNL     1      52.263   8.467   9.966  0.00  0.00    +0.000 NA
ATOM     14  C   UNL     1      53.584   8.532   9.798  0.00  0.00    +0.000 A 
ATOM     15  N   UNL     1      54.508   8.604  10.751  0.00  0.00    +0.000 NA
ATOM     16  C   UNL     1      53.987   8.586  11.989  0.00  0.00    +0.000 A 
ATOM     17  S   UNL     1      55.023   8.684  13.330  0.00  0.00    +0.000 S 
ATOM     18  C   UNL     1      53.715   8.583  14.410  0.00  0.00    +0.000 A 
ATOM     19  C   UNL     1      52.478   8.466  13.790  0.00  0.00    +0.000 A 
ATOM     20  C   UNL     1      52.639   8.501  12.335  0.00  0.00    +0.000 A 
BRANCH  12  22
ATOM     21  C   UNL     1      49.833   9.767  11.434  0.00  0.00    +0.000 C 
ATOM     22  O   UNL     1      50.406   8.461  11.393  0.00  0.00    +0.000 OA
ENDBRANCH  12  22
ENDBRANCH   8  19
ENDBRANCH   7  10
ENDBRANCH   1   7
BRANCH   4  23
ATOM     23  O   UNL     1      44.802   5.821  11.654  0.00  0.00    +0.000 OA
BRANCH  23  24
ATOM     24  C   UNL     1      44.396   4.449  11.782  0.00  0.00    +0.000 C 
BRANCH  24  25
ATOM     25  C   UNL     1      43.715   3.973  10.494  0.00  0.00    +0.000 C 
BRANCH  25  26
ATOM     26  C   UNL     1      44.715   3.515   9.451  0.00  0.00    +0.000 A 
ATOM     27  C   UNL     1      45.041   2.157   9.310  0.00  0.00    +0.000 A 
ATOM     28  C   UNL     1      45.959   1.734   8.336  0.00  0.00    +0.000 A 
ATOM     29  C   UNL     1      46.578   2.673   7.501  0.00  0.00    +0.000 A 
ATOM     30  C   UNL     1      46.255   4.027   7.639  0.00  0.00    +0.000 A 
ATOM     31  C   UNL     1      45.337   4.446   8.609  0.00  0.00    +0.000 A 
BRANCH  29  32
ATOM     32  C   UNL     1      47.524   2.293   6.416  0.00  0.00    +0.000 C 
ATOM     33  O   UNL     1      48.216   1.290   6.470  0.00  0.00    +0.000 OA
BRANCH  32  34
ATOM     34  O   UNL     1      47.526   3.121   5.349  0.00  0.00    +0.000 OA
ATOM     35  H   UNL     1      46.847   3.819   5.355  0.00  0.00    +0.000 HD
ENDBRANCH  32  34
ENDBRANCH  29  32
ENDBRANCH  25  26
ENDBRANCH  24  25
ENDBRANCH  23  24
ENDBRANCH   4  23
TORSDOF 10
ENDMDL
MODEL 5
REMARK VINA RESULT:    -6.723      4.009      8.300
REMARK INTER + INTRA:         -12.021
REMARK INTER:                 -10.074
REMARK INTRA:                  -1.947
REMARK UNBOUND:                -1.564
REMARK  Name = 
REMARK  11 active torsions:
REMARK  status: ('A' for Active; 'I' for Inactive)
REMARK    1  A    between atoms: C_1  and  O_2
REMARK    2  A    between atoms: O_2  and  C_3
REMARK    3  A    between atoms: C_10  and  C_11
REMARK    4  A    between atoms: N_13  and  C_14
REMARK    5  A    between atoms: C_14  and  C_15
REMARK    6  A    between atoms: C_18  and  O_19
REMARK    7  A    between atoms: O_19  and  C_20
REMARK    8  A    between atoms: C_20  and  C_21
REMARK    9  A    between atoms: C_21  and  C_22
REMARK   10  A    between atoms: C_25  and  C_26
REMARK   11  A    between atoms: C_26  and  O_28
REMARK                            x       y       z     vdW  Elec       q    Type
REMARK                         _______ _______ _______ _____ _____    ______ ____
ROOT
ATOM      1  C   UNL     1      49.463   8.669  15.527  0.00  0.00    +0.000 A 
ATOM      2  C   UNL     1      50.687   8.483  16.181  0.00  0.00    +0.000 A 
ATOM      3  C   UNL     1      50.755   8.430  17.580  0.00  0.00    +0.000 A 
ATOM      4  C   UNL     1      49.598   8.557  18.352  0.00  0.00    +0.000 A 
ATOM      5  C   UNL     1      48.368   8.688  17.704  0.00  0.00    +0.000 A 
ATOM      6  C   UNL     1      48.299   8.745  16.304  0.00  0.00    +0.000 A 
ENDROOT
BRANCH   1   7
ATOM      7  C   UNL     1      49.402   8.762  14.022  0.00  0.00    +0.000 C 
BRANCH   7  10
ATOM      8  C   UNL     1      47.982   7.040  12.987  0.00  0.00    +0.000 C 
ATOM      9  O   UNL     1      48.924   6.258  12.917  0.00  0.00    +0.000 OA
ATOM     10  N   UNL     1      48.133   8.296  13.513  0.00  0.00    +0.000 N 
ATOM     11  H   UNL     1      47.369   8.949  13.496  0.00  0.00    +0.000 HD
BRANCH   8  19
ATOM     12  C   UNL     1      46.161   4.110  13.111  0.00  0.00    +0.000 A 
ATOM     13  N   UNL     1      45.280   3.103  12.943  0.00  0.00    +0.000 NA
ATOM     14  C   UNL     1      44.147   3.356  12.288  0.00  0.00    +0.000 A 
ATOM     15  N   UNL     1      43.767   4.519  11.768  0.00  0.00    +0.000 NA
ATOM     16  C   UNL     1      44.677   5.493  11.940  0.00  0.00    +0.000 A 
ATOM     17  S   UNL     1      44.351   7.051  11.350  0.00  0.00    +0.000 S 
ATOM     18  C   UNL     1      45.853   7.625  11.896  0.00  0.00    +0.000 A 
ATOM     19  C   UNL     1      46.632   6.662  12.524  0.00  0.00    +0.000 A 
ATOM     20  C   UNL     1      45.911   5.389  12.580  0.00  0.00    +0.000 A 
BRANCH  12  22
ATOM     21  C   UNL     1      47.189   4.214  15.218  0.00  0.00    +0.000 C 
ATOM     22  O   UNL     1      47.306   3.860  13.841  0.00  0.00    +0.000 OA
ENDBRANCH  12  22
ENDBRANCH   8  19
ENDBRANCH   7  10
ENDBRANCH   1   7
BRANCH   4  23
ATOM     23  O   UNL     1      49.563   8.528  19.726  0.00  0.00    +0.000 OA
BRANCH  23  24
ATOM     24  C   UNL     1      50.311   7.459  20.329  0.00  0.00    +0.000 C 
BRANCH  24  25
ATOM     25  C   UNL     1      49.400   6.254  20.592  0.00  0.00    +0.000 C 
BRANCH  25  26
ATOM     26  C   UNL     1      49.635   5.130  19.603  0.00  0.00    +0.000 A 
ATOM     27  C   UNL     1      50.914   4.883  19.082  0.00  0.00    +0.000 A 
ATOM     28  C   UNL     1      51.133   3.834  18.174  0.00  0.00    +0.000 A 
ATOM     29  C   UNL     1      50.063   3.029  17.763  0.00  0.00    +0.000 A 
ATOM     30  C   UNL     1      48.786   3.272  18.280  0.00  0.00    +0.000 A 
ATOM     31  C   UNL     1      48.572   4.317  19.187  0.00  0.00    +0.000 A 
BRANCH  29  32
ATOM     32  C   UNL     1      50.228   1.871  16.842  0.00  0.00    +0.000 C 
ATOM     33  O   UNL     1      49.444   1.635  15.938  0.00  0.00    +0.000 OA
BRANCH  32  34
ATOM     34  O   UNL     1      51.334   1.127  17.058  0.00  0.00    +0.000 OA
ATOM     35  H   UNL     1      51.362   0.647  17.903  0.00  0.00    +0.000 HD
ENDBRANCH  32  34
ENDBRANCH  29  32
ENDBRANCH  25  26
ENDBRANCH  24  25
ENDBRANCH  23  24
ENDBRANCH   4  23
TORSDOF 10
ENDMDL
MODEL 6
REMARK VINA RESULT:    -6.399      4.089      8.712
REMARK INTER + INTRA:         -11.516
REMARK INTER:                  -9.622
REMARK INTRA:                  -1.894
REMARK UNBOUND:                -1.564
REMARK  Name = 
REMARK  11 active torsions:
REMARK  status: ('A' for Active; 'I' for Inactive)
REMARK    1  A    between atoms: C_1  and  O_2
REMARK    2  A    between atoms: O_2  and  C_3
REMARK    3  A    between atoms: C_10  and  C_11
REMARK    4  A    between atoms: N_13  and  C_14
REMARK    5  A    between atoms: C_14  and  C_15
REMARK    6  A    between atoms: C_18  and  O_19
REMARK    7  A    between atoms: O_19  and  C_20
REMARK    8  A    between atoms: C_20  and  C_21
REMARK    9  A    between atoms: C_21  and  C_22
REMARK   10  A    between atoms: C_25  and  C_26
REMARK   11  A    between atoms: C_26  and  O_28
REMARK                            x       y       z     vdW  Elec       q    Type
REMARK                         _______ _______ _______ _____ _____    ______ ____
ROOT
ATOM      1  C   UNL     1      48.642   8.735  15.914  0.00  0.00    +0.000 A 
ATOM      2  C   UNL     1      49.726   7.933  16.292  0.00  0.00    +0.000 A 
ATOM      3  C   UNL     1      50.072   7.781  17.642  0.00  0.00    +0.000 A 
ATOM      4  C   UNL     1      49.338   8.425  18.640  0.00  0.00    +0.000 A 
ATOM      5  C   UNL     1      48.224   9.181  18.273  0.00  0.00    +0.000 A 
ATOM      6  C   UNL     1      47.878   9.337  16.923  0.00  0.00    +0.000 A 
ENDROOT
BRANCH   1   7
ATOM      7  C   UNL     1      48.296   8.923  14.458  0.00  0.00    +0.000 C 
BRANCH   7  10
ATOM      8  C   UNL     1      47.772   6.771  13.389  0.00  0.00    +0.000 C 
ATOM      9  O   UNL     1      48.961   6.541  13.191  0.00  0.00    +0.000 OA
ATOM     10  N   UNL     1      47.359   7.924  14.001  0.00  0.00    +0.000 N 
ATOM     11  H   UNL     1      46.378   8.129  14.089  0.00  0.00    +0.000 HD
BRANCH   8  19
ATOM     12  C   UNL     1      44.746   7.083  11.758  0.00  0.00    +0.000 A 
ATOM     13  N   UNL     1      43.511   6.927  11.238  0.00  0.00    +0.000 NA
ATOM     14  C   UNL     1      42.975   5.706  11.237  0.00  0.00    +0.000 A 
ATOM     15  N   UNL     1      43.531   4.589  11.697  0.00  0.00    +0.000 NA
ATOM     16  C   UNL     1      44.752   4.788  12.221  0.00  0.00    +0.000 A 
ATOM     17  S   UNL     1      45.616   3.466  12.844  0.00  0.00    +0.000 S 
ATOM     18  C   UNL     1      46.916   4.464  13.292  0.00  0.00    +0.000 A 
ATOM     19  C   UNL     1      46.727   5.807  12.991  0.00  0.00    +0.000 A 
ATOM     20  C   UNL     1      45.441   5.996  12.318  0.00  0.00    +0.000 A 
BRANCH  12  22
ATOM     21  C   UNL     1      44.429   9.352  11.246  0.00  0.00    +0.000 C 
ATOM     22  O   UNL     1      45.321   8.338  11.705  0.00  0.00    +0.000 OA
ENDBRANCH  12  22
ENDBRANCH   8  19
ENDBRANCH   7  10
ENDBRANCH   1   7
BRANCH   4  23
ATOM     23  O   UNL     1      49.605   8.346  19.987  0.00  0.00    +0.000 OA
BRANCH  23  24
ATOM     24  C   UNL     1      50.674   7.454  20.342  0.00  0.00    +0.000 C 
BRANCH  24  25
ATOM     25  C   UNL     1      50.111   6.119  20.841  0.00  0.00    +0.000 C 
BRANCH  25  26
ATOM     26  C   UNL     1      50.153   5.043  19.774  0.00  0.00    +0.000 A 
ATOM     27  C   UNL     1      51.367   4.657  19.185  0.00  0.00    +0.000 A 
ATOM     28  C   UNL     1      51.405   3.653  18.205  0.00  0.00    +0.000 A 
ATOM     29  C   UNL     1      50.220   3.033  17.789  0.00  0.00    +0.000 A 
ATOM     30  C   UNL     1      49.008   3.415  18.374  0.00  0.00    +0.000 A 
ATOM     31  C   UNL     1      48.973   4.415  19.354  0.00  0.00    +0.000 A 
BRANCH  29  32
ATOM     32  C   UNL     1      50.190   1.929  16.791  0.00  0.00    +0.000 C 
ATOM     33  O   UNL     1      49.402   1.908  15.860  0.00  0.00    +0.000 OA
BRANCH  32  34
ATOM     34  O   UNL     1      51.129   0.976  16.971  0.00  0.00    +0.000 OA
ATOM     35  H   UNL     1      51.240   0.659  17.884  0.00  0.00    +0.000 HD
ENDBRANCH  32  34
ENDBRANCH  29  32
ENDBRANCH  25  26
ENDBRANCH  24  25
ENDBRANCH  23  24
ENDBRANCH   4  23
TORSDOF 10
ENDMDL
MODEL 7
REMARK VINA RESULT:    -6.122      2.700      4.056
REMARK INTER + INTRA:         -11.085
REMARK INTER:                  -9.327
REMARK INTRA:                  -1.758
REMARK UNBOUND:                -1.564
REMARK  Name = 
REMARK  11 active torsions:
REMARK  status: ('A' for Active; 'I' for Inactive)
REMARK    1  A    between atoms: C_1  and  O_2
REMARK    2  A    between atoms: O_2  and  C_3
REMARK    3  A    between atoms: C_10  and  C_11
REMARK    4  A    between atoms: N_13  and  C_14
REMARK    5  A    between atoms: C_14  and  C_15
REMARK    6  A    between atoms: C_18  and  O_19
REMARK    7  A    between atoms: O_19  and  C_20
REMARK    8  A    between atoms: C_20  and  C_21
REMARK    9  A    between atoms: C_21  and  C_22
REMARK   10  A    between atoms: C_25  and  C_26
REMARK   11  A    between atoms: C_26  and  O_28
REMARK                            x       y       z     vdW  Elec       q    Type
REMARK                         _______ _______ _______ _____ _____    ______ ____
ROOT
ATOM      1  C   UNL     1      49.860   8.528  13.716  0.00  0.00    +0.000 A 
ATOM      2  C   UNL     1      49.242   9.742  14.041  0.00  0.00    +0.000 A 
ATOM      3  C   UNL     1      48.105  10.179  13.346  0.00  0.00    +0.000 A 
ATOM      4  C   UNL     1      47.562   9.408  12.317  0.00  0.00    +0.000 A 
ATOM      5  C   UNL     1      48.142   8.171  12.026  0.00  0.00    +0.000 A 
ATOM      6  C   UNL     1      49.282   7.735  12.717  0.00  0.00    +0.000 A 
ENDROOT
BRANCH   1   7
ATOM      7  C   UNL     1      51.105   8.082  14.443  0.00  0.00    +0.000 C 
BRANCH   7  10
ATOM      8  C   UNL     1      50.409   7.263  16.656  0.00  0.00    +0.000 C 
ATOM      9  O   UNL     1      50.272   8.407  17.074  0.00  0.00    +0.000 OA
ATOM     10  N   UNL     1      50.821   7.014  15.374  0.00  0.00    +0.000 N 
ATOM     11  H   UNL     1      50.998   6.071  15.071  0.00  0.00    +0.000 HD
BRANCH   8  19
ATOM     12  C   UNL     1      48.201   4.621  16.401  0.00  0.00    +0.000 A 
ATOM     13  N   UNL     1      47.398   3.557  16.601  0.00  0.00    +0.000 NA
ATOM     14  C   UNL     1      47.545   2.855  17.726  0.00  0.00    +0.000 A 
ATOM     15  N   UNL     1      48.418   3.084  18.701  0.00  0.00    +0.000 NA
ATOM     16  C   UNL     1      49.189   4.161  18.474  0.00  0.00    +0.000 A 
ATOM     17  S   UNL     1      50.371   4.594  19.612  0.00  0.00    +0.000 S 
ATOM     18  C   UNL     1      50.842   5.937  18.685  0.00  0.00    +0.000 A 
ATOM     19  C   UNL     1      50.119   6.094  17.509  0.00  0.00    +0.000 A 
ATOM     20  C   UNL     1      49.149   5.007  17.367  0.00  0.00    +0.000 A 
BRANCH  12  22
ATOM     21  C   UNL     1      47.081   4.783  14.345  0.00  0.00    +0.000 C 
ATOM     22  O   UNL     1      48.087   5.310  15.209  0.00  0.00    +0.000 OA
ENDBRANCH  12  22
ENDBRANCH   8  19
ENDBRANCH   7  10
ENDBRANCH   1   7
BRANCH   4  23
ATOM     23  O   UNL     1      46.459   9.754  11.573  0.00  0.00    +0.000 OA
BRANCH  23  24
ATOM     24  C   UNL     1      45.196   9.399  12.160  0.00  0.00    +0.000 C 
BRANCH  24  25
ATOM     25  C   UNL     1      44.274   8.779  11.103  0.00  0.00    +0.000 C 
BRANCH  25  26
ATOM     26  C   UNL     1      44.200   7.270  11.220  0.00  0.00    +0.000 A 
ATOM     27  C   UNL     1      45.354   6.479  11.105  0.00  0.00    +0.000 A 
ATOM     28  C   UNL     1      45.285   5.082  11.224  0.00  0.00    +0.000 A 
ATOM     29  C   UNL     1      44.051   4.457  11.443  0.00  0.00    +0.000 A 
ATOM     30  C   UNL     1      42.899   5.242  11.558  0.00  0.00    +0.000 A 
ATOM     31  C   UNL     1      42.971   6.635  11.441  0.00  0.00    +0.000 A 
BRANCH  29  32
ATOM     32  C   UNL     1      43.908   2.986  11.627  0.00  0.00    +0.000 C 
ATOM     33  O   UNL     1      43.432   2.494  12.636  0.00  0.00    +0.000 OA
BRANCH  32  34
ATOM     34  O   UNL     1      44.307   2.242  10.573  0.00  0.00    +0.000 OA
ATOM     35  H   UNL     1      44.761   2.726   9.861  0.00  0.00    +0.000 HD
ENDBRANCH  32  34
ENDBRANCH  29  32
ENDBRANCH  25  26
ENDBRANCH  24  25
ENDBRANCH  23  24
ENDBRANCH   4  23
TORSDOF 10
ENDMDL
MODEL 8
REMARK VINA RESULT:    -5.604      4.430      8.488
REMARK INTER + INTRA:         -10.280
REMARK INTER:                  -8.203
REMARK INTRA:                  -2.076
REMARK UNBOUND:                -1.564
REMARK  Name = 
REMARK  11 active torsions:
REMARK  status: ('A' for Active; 'I' for Inactive)
REMARK    1  A    between atoms: C_1  and  O_2
REMARK    2  A    between atoms: O_2  and  C_3
REMARK    3  A    between atoms: C_10  and  C_11
REMARK    4  A    between atoms: N_13  and  C_14
REMARK    5  A    between atoms: C_14  and  C_15
REMARK    6  A    between atoms: C_18  and  O_19
REMARK    7  A    between atoms: O_19  and  C_20
REMARK    8  A    between atoms: C_20  and  C_21
REMARK    9  A    between atoms: C_21  and  C_22
REMARK   10  A    between atoms: C_25  and  C_26
REMARK   11  A    between atoms: C_26  and  O_28
REMARK                            x       y       z     vdW  Elec       q    Type
REMARK                         _______ _______ _______ _____ _____    ______ ____
ROOT
ATOM      1  C   UNL     1      50.866   9.692  14.363  0.00  0.00    +0.000 A 
ATOM      2  C   UNL     1      51.029  10.236  15.644  0.00  0.00    +0.000 A 
ATOM      3  C   UNL     1      51.785   9.568  16.618  0.00  0.00    +0.000 A 
ATOM      4  C   UNL     1      52.395   8.346  16.329  0.00  0.00    +0.000 A 
ATOM      5  C   UNL     1      52.281   7.827  15.038  0.00  0.00    +0.000 A 
ATOM      6  C   UNL     1      51.522   8.491  14.063  0.00  0.00    +0.000 A 
ENDROOT
BRANCH   1   7
ATOM      7  C   UNL     1      50.022  10.398  13.331  0.00  0.00    +0.000 C 
BRANCH   7  10
ATOM      8  C   UNL     1      48.393   8.910  12.242  0.00  0.00    +0.000 C 
ATOM      9  O   UNL     1      49.215   8.574  11.396  0.00  0.00    +0.000 OA
ATOM     10  N   UNL     1      48.707   9.808  13.227  0.00  0.00    +0.000 N 
ATOM     11  H   UNL     1      48.001  10.127  13.868  0.00  0.00    +0.000 HD
BRANCH   8  19
ATOM     12  C   UNL     1      47.061   5.912  13.316  0.00  0.00    +0.000 A 
ATOM     13  N   UNL     1      46.303   4.823  13.560  0.00  0.00    +0.000 NA
ATOM     14  C   UNL     1      45.010   4.866  13.233  0.00  0.00    +0.000 A 
ATOM     15  N   UNL     1      44.360   5.885  12.682  0.00  0.00    +0.000 NA
ATOM     16  C   UNL     1      45.151   6.944  12.439  0.00  0.00    +0.000 A 
ATOM     17  S   UNL     1      44.481   8.343  11.749  0.00  0.00    +0.000 S 
ATOM     18  C   UNL     1      45.991   9.122  11.744  0.00  0.00    +0.000 A 
ATOM     19  C   UNL     1      47.027   8.349  12.252  0.00  0.00    +0.000 A 
ATOM     20  C   UNL     1      46.515   7.053  12.700  0.00  0.00    +0.000 A 
BRANCH  12  22
ATOM     21  C   UNL     1      48.616   6.533  14.960  0.00  0.00    +0.000 C 
ATOM     22  O   UNL     1      48.384   5.886  13.710  0.00  0.00    +0.000 OA
ENDBRANCH  12  22
ENDBRANCH   8  19
ENDBRANCH   7  10
ENDBRANCH   1   7
BRANCH   4  23
ATOM     23  O   UNL     1      53.146   7.613  17.217  0.00  0.00    +0.000 OA
BRANCH  23  24
ATOM     24  C   UNL     1      53.321   6.231  16.867  0.00  0.00    +0.000 C 
BRANCH  24  25
ATOM     25  C   UNL     1      52.867   5.327  18.019  0.00  0.00    +0.000 C 
BRANCH  25  26
ATOM     26  C   UNL     1      51.370   5.090  18.006  0.00  0.00    +0.000 A 
ATOM     27  C   UNL     1      50.483   6.044  18.528  0.00  0.00    +0.000 A 
ATOM     28  C   UNL     1      49.096   5.827  18.504  0.00  0.00    +0.000 A 
ATOM     29  C   UNL     1      48.581   4.638  17.974  0.00  0.00    +0.000 A 
ATOM     30  C   UNL     1      49.462   3.684  17.453  0.00  0.00    +0.000 A 
ATOM     31  C   UNL     1      50.845   3.905  17.475  0.00  0.00    +0.000 A 
BRANCH  29  32
ATOM     32  C   UNL     1      47.122   4.360  17.873  0.00  0.00    +0.000 C 
ATOM     33  O   UNL     1      46.678   3.394  17.276  0.00  0.00    +0.000 OA
BRANCH  32  34
ATOM     34  O   UNL     1      46.331   5.236  18.529  0.00  0.00    +0.000 OA
ATOM     35  H   UNL     1      46.016   5.994  18.007  0.00  0.00    +0.000 HD
ENDBRANCH  32  34
ENDBRANCH  29  32
ENDBRANCH  25  26
ENDBRANCH  24  25
ENDBRANCH  23  24
ENDBRANCH   4  23
TORSDOF 10
ENDMDL
