MODEL 1
REMARK VINA RESULT:    -8.159      0.000      0.000
REMARK INTER + INTRA:         -10.827
REMARK INTER:                 -10.066
REMARK INTRA:                  -0.761
REMARK UNBOUND:                -0.761
REMARK  Name = 
REMARK  4 active torsions:
REMARK  status: ('A' for Active; 'I' for Inactive)
REMARK    1  A    between atoms: C_2  and  C_5
REMARK    2  A    between atoms: N_10  and  C_11
REMARK    3  A    between atoms: C_11  and  C_12
REMARK    4  A    between atoms: C_16  and  C_17
REMARK                            x       y       z     vdW  Elec       q    Type
REMARK                         _______ _______ _______ _____ _____    ______ ____
ROOT
ATOM      1  C   UNL     1      44.115   5.371  11.264  0.00  0.00    +0.000 C 
ENDROOT
BRANCH   1   7
ATOM      2  C   UNL     1      46.010   2.902   7.793  0.00  0.00    +0.000 A 
ATOM      3  C   UNL     1      45.603   1.697   8.335  0.00  0.00    +0.000 A 
ATOM      4  C   UNL     1      44.783   1.780   9.432  0.00  0.00    +0.000 A 
ATOM      5  N   UNL     1      44.378   2.944   9.967  0.00  0.00    +0.000 NA
ATOM      6  C   UNL     1      44.800   4.072   9.383  0.00  0.00    +0.000 A 
ATOM      7  N   UNL     1      44.384   5.307   9.846  0.00  0.00    +0.000 N 
ATOM      8  N   UNL     1      45.616   4.092   8.323  0.00  0.00    +0.000 NA
ATOM      9  H   UNL     1      45.027   6.001   9.486  0.00  0.00    +0.000 HD
BRANCH   2  11
ATOM     10  F   UNL     1      46.728   1.834   5.755  0.00  0.00    +0.000 F 
ATOM     11  C   UNL     1      46.915   2.913   6.573  0.00  0.00    +0.000 C 
ATOM     12  F   UNL     1      48.240   2.898   6.893  0.00  0.00    +0.000 F 
ATOM     13  F   UNL     1      46.730   4.004   5.778  0.00  0.00    +0.000 F 
ENDBRANCH   2  11
ENDBRANCH   1   7
BRANCH   1  14
ATOM     14  C   UNL     1      45.417   5.522  12.016  0.00  0.00    +0.000 A 
ATOM     15  C   UNL     1      45.732   4.707  13.102  0.00  0.00    +0.000 A 
ATOM     16  C   UNL     1      46.932   4.925  13.759  0.00  0.00    +0.000 A 
ATOM     17  N   UNL     1      47.822   5.881  13.413  0.00  0.00    +0.000 NA
ATOM     18  C   UNL     1      47.533   6.659  12.339  0.00  0.00    +0.000 A 
ATOM     19  C   UNL     1      46.346   6.496  11.624  0.00  0.00    +0.000 A 
BRANCH  18  20
ATOM     20  C   UNL     1      48.521   7.709  12.007  0.00  0.00    +0.000 A 
ATOM     21  C   UNL     1      49.864   7.404  11.716  0.00  0.00    +0.000 A 
ATOM     22  C   UNL     1      50.780   8.400  11.357  0.00  0.00    +0.000 A 
ATOM     23  C   UNL     1      50.373   9.729  11.291  0.00  0.00    +0.000 A 
ATOM     24  C   UNL     1      49.057  10.063  11.595  0.00  0.00    +0.000 A 
ATOM     25  C   UNL     1      48.144   9.064  11.951  0.00  0.00    +0.000 A 
ENDBRANCH  18  20
ENDBRANCH   1  14
TORSDOF 4
ENDMDL
MODEL 2
REMARK VINA RESULT:    -8.094      1.792      3.756
REMARK INTER + INTRA:         -10.747
REMARK INTER:                 -10.021
REMARK INTRA:                  -0.726
REMARK UNBOUND:                -0.761
REMARK  Name = 
REMARK  4 active torsions:
REMARK  status: ('A' for Active; 'I' for Inactive)
REMARK    1  A    between atoms: C_2  and  C_5
REMARK    2  A    between atoms: N_10  and  C_11
REMARK    3  A    between atoms: C_11  and  C_12
REMARK    4  A    between atoms: C_16  and  C_17
REMARK                            x       y       z     vdW  Elec       q    Type
REMARK                         _______ _______ _______ _____ _____    ______ ____
ROOT
ATOM      1  C   UNL     1      44.800   5.819  11.352  0.00  0.00    +0.000 C 
ENDROOT
BRANCH   1   7
ATOM      2  C   UNL     1      46.072   2.976   7.883  0.00  0.00    +0.000 A 
ATOM      3  C   UNL     1      45.371   1.907   8.408  0.00  0.00    +0.000 A 
ATOM      4  C   UNL     1      44.581   2.185   9.495  0.00  0.00    +0.000 A 
ATOM      5  N   UNL     1      44.470   3.410  10.035  0.00  0.00    +0.000 NA
ATOM      6  C   UNL     1      45.168   4.401   9.467  0.00  0.00    +0.000 A 
ATOM      7  N   UNL     1      45.065   5.698   9.937  0.00  0.00    +0.000 N 
ATOM      8  N   UNL     1      45.979   4.224   8.418  0.00  0.00    +0.000 NA
ATOM      9  H   UNL     1      45.866   6.212   9.591  0.00  0.00    +0.000 HD
BRANCH   2  11
ATOM     10  F   UNL     1      48.299   2.904   6.963  0.00  0.00    +0.000 F 
ATOM     11  C   UNL     1      46.970   2.769   6.674  0.00  0.00    +0.000 C 
ATOM     12  F   UNL     1      46.726   3.660   5.672  0.00  0.00    +0.000 F 
ATOM     13  F   UNL     1      46.846   1.530   6.119  0.00  0.00    +0.000 F 
ENDBRANCH   2  11
ENDBRANCH   1   7
BRANCH   1  14
ATOM     14  C   UNL     1      46.095   6.077  12.085  0.00  0.00    +0.000 A 
ATOM     15  C   UNL     1      47.113   6.846  11.523  0.00  0.00    +0.000 A 
ATOM     16  C   UNL     1      48.283   7.015  12.245  0.00  0.00    +0.000 A 
ATOM     17  N   UNL     1      48.503   6.479  13.466  0.00  0.00    +0.000 NA
ATOM     18  C   UNL     1      47.505   5.753  14.031  0.00  0.00    +0.000 A 
ATOM     19  C   UNL     1      46.296   5.544  13.366  0.00  0.00    +0.000 A 
BRANCH  18  20
ATOM     20  C   UNL     1      47.794   5.164  15.357  0.00  0.00    +0.000 A 
ATOM     21  C   UNL     1      48.615   5.813  16.298  0.00  0.00    +0.000 A 
ATOM     22  C   UNL     1      48.843   5.271  17.568  0.00  0.00    +0.000 A 
ATOM     23  C   UNL     1      48.262   4.058  17.921  0.00  0.00    +0.000 A 
ATOM     24  C   UNL     1      47.463   3.382  17.004  0.00  0.00    +0.000 A 
ATOM     25  C   UNL     1      47.235   3.929  15.736  0.00  0.00    +0.000 A 
ENDBRANCH  18  20
ENDBRANCH   1  14
TORSDOF 4
ENDMDL
MODEL 3
REMARK VINA RESULT:    -7.801      3.958      7.372
REMARK INTER + INTRA:         -10.386
REMARK INTER:                  -9.771
REMARK INTRA:                  -0.615
REMARK UNBOUND:                -0.761
REMARK  Name = 
REMARK  4 active torsions:
REMARK  status: ('A' for Active; 'I' for Inactive)
REMARK    1  A    between atoms: C_2  and  C_5
REMARK    2  A    between atoms: N_10  and  C_11
REMARK    3  A    between atoms: C_11  and  C_12
REMARK    4  A    between atoms: C_16  and  C_17
REMARK                            x       y       z     vdW  Elec       q    Type
REMARK                         _______ _______ _______ _____ _____    ______ ____
ROOT
ATOM      1  C   UNL     1      43.726   6.575  11.385  0.00  0.00    +0.000 C 
ENDROOT
BRANCH   1   7
ATOM      2  C   UNL     1      47.374   8.775  13.279  0.00  0.00    +0.000 A 
ATOM      3  C   UNL     1      47.163   9.918  12.529  0.00  0.00    +0.000 A 
ATOM      4  C   UNL     1      46.014   9.938  11.780  0.00  0.00    +0.000 A 
ATOM      5  N   UNL     1      45.126   8.929  11.757  0.00  0.00    +0.000 NA
ATOM      6  C   UNL     1      45.389   7.860  12.517  0.00  0.00    +0.000 A 
ATOM      7  N   UNL     1      44.497   6.804  12.585  0.00  0.00    +0.000 N 
ATOM      8  N   UNL     1      46.490   7.740  13.266  0.00  0.00    +0.000 NA
ATOM      9  H   UNL     1      44.999   6.003  12.948  0.00  0.00    +0.000 HD
BRANCH   2  11
ATOM     10  F   UNL     1      49.647   9.447  13.715  0.00  0.00    +0.000 F 
ATOM     11  C   UNL     1      48.616   8.661  14.147  0.00  0.00    +0.000 C 
ATOM     12  F   UNL     1      49.120   7.396  14.190  0.00  0.00    +0.000 F 
ATOM     13  F   UNL     1      48.400   9.028  15.442  0.00  0.00    +0.000 F 
ENDBRANCH   2  11
ENDBRANCH   1   7
BRANCH   1  14
ATOM     14  C   UNL     1      43.793   5.112  11.016  0.00  0.00    +0.000 A 
ATOM     15  C   UNL     1      43.102   4.142  11.741  0.00  0.00    +0.000 A 
ATOM     16  C   UNL     1      43.237   2.818  11.359  0.00  0.00    +0.000 A 
ATOM     17  N   UNL     1      43.998   2.401  10.324  0.00  0.00    +0.000 NA
ATOM     18  C   UNL     1      44.651   3.343   9.597  0.00  0.00    +0.000 A 
ATOM     19  C   UNL     1      44.561   4.698   9.918  0.00  0.00    +0.000 A 
BRANCH  18  20
ATOM     20  C   UNL     1      45.493   2.845   8.486  0.00  0.00    +0.000 A 
ATOM     21  C   UNL     1      45.877   3.671   7.414  0.00  0.00    +0.000 A 
ATOM     22  C   UNL     1      46.712   3.204   6.393  0.00  0.00    +0.000 A 
ATOM     23  C   UNL     1      47.174   1.892   6.416  0.00  0.00    +0.000 A 
ATOM     24  C   UNL     1      46.792   1.045   7.452  0.00  0.00    +0.000 A 
ATOM     25  C   UNL     1      45.959   1.517   8.473  0.00  0.00    +0.000 A 
ENDBRANCH  18  20
ENDBRANCH   1  14
TORSDOF 4
ENDMDL
MODEL 4
REMARK VINA RESULT:    -7.565      3.575      6.941
REMARK INTER + INTRA:         -10.095
REMARK INTER:                  -9.781
REMARK INTRA:                  -0.314
REMARK UNBOUND:                -0.761
REMARK  Name = 
REMARK  4 active torsions:
REMARK  status: ('A' for Active; 'I' for Inactive)
REMARK    1  A    between atoms: C_2  and  C_5
REMARK    2  A    between atoms: N_10  and  C_11
REMARK    3  A    between atoms: C_11  and  C_12
REMARK    4  A    between atoms: C_16  and  C_17
REMARK                            x       y       z     vdW  Elec       q    Type
REMARK                         _______ _______ _______ _____ _____    ______ ____
ROOT
ATOM      1  C   UNL     1      43.697   6.371  11.403  0.00  0.00    +0.000 C 
ENDROOT
BRANCH   1   7
ATOM      2  C   UNL     1      47.769   8.140  12.828  0.00  0.00    +0.000 A 
ATOM      3  C   UNL     1      48.005   7.086  13.690  0.00  0.00    +0.000 A 
ATOM      4  C   UNL     1      47.116   6.044  13.618  0.00  0.00    +0.000 A 
ATOM      5  N   UNL     1      46.074   6.015  12.770  0.00  0.00    +0.000 NA
ATOM      6  C   UNL     1      45.914   7.065  11.955  0.00  0.00    +0.000 A 
ATOM      7  N   UNL     1      44.893   7.086  11.021  0.00  0.00    +0.000 N 
ATOM      8  N   UNL     1      46.716   8.135  11.965  0.00  0.00    +0.000 NA
ATOM      9  H   UNL     1      44.761   8.047  10.734  0.00  0.00    +0.000 HD
BRANCH   2  11
ATOM     10  F   UNL     1      48.797   9.946  11.607  0.00  0.00    +0.000 F 
ATOM     11  C   UNL     1      48.702   9.339  12.828  0.00  0.00    +0.000 C 
ATOM     12  F   UNL     1      49.981   9.018  13.173  0.00  0.00    +0.000 F 
ATOM     13  F   UNL     1      48.313  10.322  13.689  0.00  0.00    +0.000 F 
ENDBRANCH   2  11
ENDBRANCH   1   7
BRANCH   1  14
ATOM     14  C   UNL     1      43.831   4.920  11.009  0.00  0.00    +0.000 A 
ATOM     15  C   UNL     1      43.217   3.903  11.739  0.00  0.00    +0.000 A 
ATOM     16  C   UNL     1      43.411   2.594  11.331  0.00  0.00    +0.000 A 
ATOM     17  N   UNL     1      44.160   2.235  10.266  0.00  0.00    +0.000 NA
ATOM     18  C   UNL     1      44.738   3.222   9.534  0.00  0.00    +0.000 A 
ATOM     19  C   UNL     1      44.584   4.565   9.880  0.00  0.00    +0.000 A 
BRANCH  18  20
ATOM     20  C   UNL     1      45.569   2.787   8.390  0.00  0.00    +0.000 A 
ATOM     21  C   UNL     1      45.940   3.671   7.360  0.00  0.00    +0.000 A 
ATOM     22  C   UNL     1      46.766   3.262   6.306  0.00  0.00    +0.000 A 
ATOM     23  C   UNL     1      47.230   1.952   6.254  0.00  0.00    +0.000 A 
ATOM     24  C   UNL     1      46.861   1.050   7.246  0.00  0.00    +0.000 A 
ATOM     25  C   UNL     1      46.037   1.463   8.299  0.00  0.00    +0.000 A 
ENDBRANCH  18  20
ENDBRANCH   1  14
TORSDOF 4
ENDMDL
MODEL 5
REMARK VINA RESULT:    -7.192      4.038      7.518
REMARK INTER + INTRA:          -9.634
REMARK INTER:                  -8.952
REMARK INTRA:                  -0.682
REMARK UNBOUND:                -0.761
REMARK  Name = 
REMARK  4 active torsions:
REMARK  status: ('A' for Active; 'I' for Inactive)
REMARK    1  A    between atoms: C_2  and  C_5
REMARK    2  A    between atoms: N_10  and  C_11
REMARK    3  A    between atoms: C_11  and  C_12
REMARK    4  A    between atoms: C_16  and  C_17
REMARK                            x       y       z     vdW  Elec       q    Type
REMARK                         _______ _______ _______ _____ _____    ______ ____
ROOT
ATOM      1  C   UNL     1      45.539   7.576  11.662  0.00  0.00    +0.000 C 
ENDROOT
BRANCH   1   7
ATOM      2  C   UNL     1      48.729   6.748  14.959  0.00  0.00    +0.000 A 
ATOM      3  C   UNL     1      49.729   7.390  14.251  0.00  0.00    +0.000 A 
ATOM      4  C   UNL     1      49.331   8.042  13.112  0.00  0.00    +0.000 A 
ATOM      5  N   UNL     1      48.057   8.079  12.685  0.00  0.00    +0.000 NA
ATOM      6  C   UNL     1      47.140   7.446  13.427  0.00  0.00    +0.000 A 
ATOM      7  N   UNL     1      45.801   7.482  13.079  0.00  0.00    +0.000 N 
ATOM      8  N   UNL     1      47.434   6.768  14.542  0.00  0.00    +0.000 NA
ATOM      9  H   UNL     1      45.339   6.725  13.566  0.00  0.00    +0.000 HD
BRANCH   2  11
ATOM     10  F   UNL     1      48.591   6.619  17.362  0.00  0.00    +0.000 F 
ATOM     11  C   UNL     1      49.070   6.003  16.238  0.00  0.00    +0.000 C 
ATOM     12  F   UNL     1      50.412   5.877  16.440  0.00  0.00    +0.000 F 
ATOM     13  F   UNL     1      48.560   4.740  16.275  0.00  0.00    +0.000 F 
ENDBRANCH   2  11
ENDBRANCH   1   7
BRANCH   1  14
ATOM     14  C   UNL     1      44.898   6.294  11.184  0.00  0.00    +0.000 A 
ATOM     15  C   UNL     1      43.676   5.854  11.691  0.00  0.00    +0.000 A 
ATOM     16  C   UNL     1      43.167   4.653  11.224  0.00  0.00    +0.000 A 
ATOM     17  N   UNL     1      43.780   3.877  10.304  0.00  0.00    +0.000 NA
ATOM     18  C   UNL     1      44.957   4.313   9.786  0.00  0.00    +0.000 A 
ATOM     19  C   UNL     1      45.530   5.515  10.204  0.00  0.00    +0.000 A 
BRANCH  18  20
ATOM     20  C   UNL     1      45.608   3.424   8.800  0.00  0.00    +0.000 A 
ATOM     21  C   UNL     1      46.299   3.929   7.683  0.00  0.00    +0.000 A 
ATOM     22  C   UNL     1      46.952   3.081   6.781  0.00  0.00    +0.000 A 
ATOM     23  C   UNL     1      46.919   1.704   6.971  0.00  0.00    +0.000 A 
ATOM     24  C   UNL     1      46.224   1.174   8.054  0.00  0.00    +0.000 A 
ATOM     25  C   UNL     1      45.575   2.026   8.955  0.00  0.00    +0.000 A 
ENDBRANCH  18  20
ENDBRANCH   1  14
TORSDOF 4
ENDMDL
MODEL 6
REMARK VINA RESULT:    -7.156      1.397      2.087
REMARK INTER + INTRA:          -9.591
REMARK INTER:                  -8.983
REMARK INTRA:                  -0.608
REMARK UNBOUND:                -0.761
REMARK  Name = 
REMARK  4 active torsions:
REMARK  status: ('A' for Active; 'I' for Inactive)
REMARK    1  A    between atoms: C_2  and  C_5
REMARK    2  A    between atoms: N_10  and  C_11
REMARK    3  A    between atoms: C_11  and  C_12
REMARK    4  A    between atoms: C_16  and  C_17
REMARK                            x       y       z     vdW  Elec       q    Type
REMARK                         _______ _______ _______ _____ _____    ______ ____
ROOT
ATOM      1  C   UNL     1      44.917   5.870  11.171  0.00  0.00    +0.000 C 
ENDROOT
BRANCH   1   7
ATOM      2  C   UNL     1      46.078   2.766   7.892  0.00  0.00    +0.000 A 
ATOM      3  C   UNL     1      45.334   1.762   8.480  0.00  0.00    +0.000 A 
ATOM      4  C   UNL     1      44.555   2.139   9.544  0.00  0.00    +0.000 A 
ATOM      5  N   UNL     1      44.492   3.399  10.007  0.00  0.00    +0.000 NA
ATOM      6  C   UNL     1      45.230   4.323   9.380  0.00  0.00    +0.000 A 
ATOM      7  N   UNL     1      45.179   5.651   9.767  0.00  0.00    +0.000 N 
ATOM      8  N   UNL     1      46.034   4.048   8.348  0.00  0.00    +0.000 NA
ATOM      9  H   UNL     1      46.000   6.109   9.393  0.00  0.00    +0.000 HD
BRANCH   2  11
ATOM     10  F   UNL     1      46.553   3.049   5.546  0.00  0.00    +0.000 F 
ATOM     11  C   UNL     1      46.968   2.449   6.702  0.00  0.00    +0.000 C 
ATOM     12  F   UNL     1      47.022   1.117   6.418  0.00  0.00    +0.000 F 
ATOM     13  F   UNL     1      48.259   2.852   6.874  0.00  0.00    +0.000 F 
ENDBRANCH   2  11
ENDBRANCH   1   7
BRANCH   1  14
ATOM     14  C   UNL     1      45.631   7.121  11.625  0.00  0.00    +0.000 A 
ATOM     15  C   UNL     1      44.933   8.278  11.970  0.00  0.00    +0.000 A 
ATOM     16  C   UNL     1      45.660   9.394  12.350  0.00  0.00    +0.000 A 
ATOM     17  N   UNL     1      47.009   9.435  12.409  0.00  0.00    +0.000 NA
ATOM     18  C   UNL     1      47.693   8.304  12.101  0.00  0.00    +0.000 A 
ATOM     19  C   UNL     1      47.030   7.139  11.714  0.00  0.00    +0.000 A 
BRANCH  18  20
ATOM     20  C   UNL     1      49.169   8.397  12.155  0.00  0.00    +0.000 A 
ATOM     21  C   UNL     1      49.836   9.083  13.187  0.00  0.00    +0.000 A 
ATOM     22  C   UNL     1      51.233   9.124  13.255  0.00  0.00    +0.000 A 
ATOM     23  C   UNL     1      51.996   8.488  12.282  0.00  0.00    +0.000 A 
ATOM     24  C   UNL     1      51.365   7.821  11.237  0.00  0.00    +0.000 A 
ATOM     25  C   UNL     1      49.968   7.780  11.174  0.00  0.00    +0.000 A 
ENDBRANCH  18  20
ENDBRANCH   1  14
TORSDOF 4
ENDMDL
MODEL 7
REMARK VINA RESULT:    -6.817      1.868      2.613
REMARK INTER + INTRA:          -9.171
REMARK INTER:                  -8.440
REMARK INTRA:                  -0.732
REMARK UNBOUND:                -0.761
REMARK  Name = 
REMARK  4 active torsions:
REMARK  status: ('A' for Active; 'I' for Inactive)
REMARK    1  A    between atoms: C_2  and  C_5
REMARK    2  A    between atoms: N_10  and  C_11
REMARK    3  A    between atoms: C_11  and  C_12
REMARK    4  A    between atoms: C_16  and  C_17
REMARK                            x       y       z     vdW  Elec       q    Type
REMARK                         _______ _______ _______ _____ _____    ______ ____
ROOT
ATOM      1  C   UNL     1      45.328   7.466  12.193  0.00  0.00    +0.000 C 
ENDROOT
BRANCH   1   7
ATOM      2  C   UNL     1      44.480   3.406  10.064  0.00  0.00    +0.000 A 
ATOM      3  C   UNL     1      43.659   2.963  11.084  0.00  0.00    +0.000 A 
ATOM      4  C   UNL     1      43.373   3.880  12.063  0.00  0.00    +0.000 A 
ATOM      5  N   UNL     1      43.841   5.140  12.058  0.00  0.00    +0.000 NA
ATOM      6  C   UNL     1      44.620   5.504  11.033  0.00  0.00    +0.000 A 
ATOM      7  N   UNL     1      45.098   6.799  10.933  0.00  0.00    +0.000 N 
ATOM      8  N   UNL     1      44.970   4.676  10.042  0.00  0.00    +0.000 NA
ATOM      9  H   UNL     1      45.879   6.787  10.289  0.00  0.00    +0.000 HD
BRANCH   2  11
ATOM     10  F   UNL     1      44.163   1.284   8.967  0.00  0.00    +0.000 F 
ATOM     11  C   UNL     1      44.849   2.466   8.929  0.00  0.00    +0.000 C 
ATOM     12  F   UNL     1      46.167   2.118   8.933  0.00  0.00    +0.000 F 
ATOM     13  F   UNL     1      44.598   2.989   7.696  0.00  0.00    +0.000 F 
ENDBRANCH   2  11
ENDBRANCH   1   7
BRANCH   1  14
ATOM     14  C   UNL     1      46.764   7.262  12.614  0.00  0.00    +0.000 A 
ATOM     15  C   UNL     1      47.094   6.564  13.775  0.00  0.00    +0.000 A 
ATOM     16  C   UNL     1      48.432   6.444  14.110  0.00  0.00    +0.000 A 
ATOM     17  N   UNL     1      49.446   6.962  13.382  0.00  0.00    +0.000 NA
ATOM     18  C   UNL     1      49.133   7.620  12.237  0.00  0.00    +0.000 A 
ATOM     19  C   UNL     1      47.807   7.777  11.831  0.00  0.00    +0.000 A 
BRANCH  18  20
ATOM     20  C   UNL     1      50.267   8.193  11.480  0.00  0.00    +0.000 A 
ATOM     21  C   UNL     1      51.202   7.382  10.809  0.00  0.00    +0.000 A 
ATOM     22  C   UNL     1      52.245   7.935  10.057  0.00  0.00    +0.000 A 
ATOM     23  C   UNL     1      52.382   9.317   9.968  0.00  0.00    +0.000 A 
ATOM     24  C   UNL     1      51.486  10.144  10.639  0.00  0.00    +0.000 A 
ATOM     25  C   UNL     1      50.444   9.587  11.388  0.00  0.00    +0.000 A 
ENDBRANCH  18  20
ENDBRANCH   1  14
TORSDOF 4
ENDMDL
MODEL 8
REMARK VINA RESULT:    -6.804      4.709      8.041
REMARK INTER + INTRA:          -9.156
REMARK INTER:                  -8.607
REMARK INTRA:                  -0.549
REMARK UNBOUND:                -0.761
REMARK  Name = 
REMARK  4 active torsions:
REMARK  status: ('A' for Active; 'I' for Inactive)
REMARK    1  A    between atoms: C_2  and  C_5
REMARK    2  A    between atoms: N_10  and  C_11
REMARK    3  A    between atoms: C_11  and  C_12
REMARK    4  A    between atoms: C_16  and  C_17
REMARK                            x       y       z     vdW  Elec       q    Type
REMARK                         _______ _______ _______ _____ _____    ______ ____
ROOT
ATOM      1  C   UNL     1      47.971   7.418  14.000  0.00  0.00    +0.000 C 
ENDROOT
BRANCH   1   7
ATOM      2  C   UNL     1      49.722   4.315  17.007  0.00  0.00    +0.000 A 
ATOM      3  C   UNL     1      50.829   5.097  17.276  0.00  0.00    +0.000 A 
ATOM      4  C   UNL     1      50.824   6.353  16.725  0.00  0.00    +0.000 A 
ATOM      5  N   UNL     1      49.819   6.826  15.969  0.00  0.00    +0.000 NA
ATOM      6  C   UNL     1      48.772   6.019  15.760  0.00  0.00    +0.000 A 
ATOM      7  N   UNL     1      47.677   6.454  15.034  0.00  0.00    +0.000 N 
ATOM      8  N   UNL     1      48.694   4.773  16.239  0.00  0.00    +0.000 NA
ATOM      9  H   UNL     1      47.160   5.635  14.742  0.00  0.00    +0.000 HD
BRANCH   2  11
ATOM     10  F   UNL     1      50.837   2.425  18.003  0.00  0.00    +0.000 F 
ATOM     11  C   UNL     1      49.632   2.911  17.579  0.00  0.00    +0.000 C 
ATOM     12  F   UNL     1      49.172   1.997  16.678  0.00  0.00    +0.000 F 
ATOM     13  F   UNL     1      48.807   2.824  18.661  0.00  0.00    +0.000 F 
ENDBRANCH   2  11
ENDBRANCH   1   7
BRANCH   1  14
ATOM     14  C   UNL     1      46.860   7.413  12.978  0.00  0.00    +0.000 A 
ATOM     15  C   UNL     1      46.029   8.518  12.795  0.00  0.00    +0.000 A 
ATOM     16  C   UNL     1      45.013   8.427  11.858  0.00  0.00    +0.000 A 
ATOM     17  N   UNL     1      44.773   7.331  11.105  0.00  0.00    +0.000 NA
ATOM     18  C   UNL     1      45.595   6.262  11.258  0.00  0.00    +0.000 A 
ATOM     19  C   UNL     1      46.643   6.281  12.179  0.00  0.00    +0.000 A 
BRANCH  18  20
ATOM     20  C   UNL     1      45.285   5.074  10.433  0.00  0.00    +0.000 A 
ATOM     21  C   UNL     1      44.598   3.962  10.955  0.00  0.00    +0.000 A 
ATOM     22  C   UNL     1      44.268   2.864  10.154  0.00  0.00    +0.000 A 
ATOM     23  C   UNL     1      44.629   2.848   8.811  0.00  0.00    +0.000 A 
ATOM     24  C   UNL     1      45.328   3.923   8.272  0.00  0.00    +0.000 A 
ATOM     25  C   UNL     1      45.654   5.021   9.076  0.00  0.00    +0.000 A 
ENDBRANCH  18  20
ENDBRANCH   1  14
TORSDOF 4
ENDMDL
MODEL 9
REMARK VINA RESULT:    -6.597      5.020      6.863
REMARK INTER + INTRA:          -8.900
REMARK INTER:                  -8.303
REMARK INTRA:                  -0.597
REMARK UNBOUND:                -0.761
REMARK  Name = 
REMARK  4 active torsions:
REMARK  status: ('A' for Active; 'I' for Inactive)
REMARK    1  A    between atoms: C_2  and  C_5
REMARK    2  A    between atoms: N_10  and  C_11
REMARK    3  A    between atoms: C_11  and  C_12
REMARK    4  A    between atoms: C_16  and  C_17
REMARK                            x       y       z     vdW  Elec       q    Type
REMARK                         _______ _______ _______ _____ _____    ______ ____
ROOT
ATOM      1  C   UNL     1      47.001   4.329  16.251  0.00  0.00    +0.000 C 
ENDROOT
BRANCH   1   7
ATOM      2  C   UNL     1      45.145   4.164  11.977  0.00  0.00    +0.000 A 
ATOM      3  C   UNL     1      45.155   5.540  11.844  0.00  0.00    +0.000 A 
ATOM      4  C   UNL     1      45.785   6.234  12.846  0.00  0.00    +0.000 A 
ATOM      5  N   UNL     1      46.369   5.643  13.902  0.00  0.00    +0.000 NA
ATOM      6  C   UNL     1      46.332   4.306  13.959  0.00  0.00    +0.000 A 
ATOM      7  N   UNL     1      46.955   3.625  14.990  0.00  0.00    +0.000 N 
ATOM      8  N   UNL     1      45.726   3.546  13.041  0.00  0.00    +0.000 NA
ATOM      9  H   UNL     1      46.566   2.692  15.018  0.00  0.00    +0.000 HD
BRANCH   2  11
ATOM     10  F   UNL     1      45.346   2.462  10.283  0.00  0.00    +0.000 F 
ATOM     11  C   UNL     1      44.477   3.308  10.914  0.00  0.00    +0.000 C 
ATOM     12  F   UNL     1      43.903   4.044   9.921  0.00  0.00    +0.000 F 
ATOM     13  F   UNL     1      43.492   2.508  11.411  0.00  0.00    +0.000 F 
ENDBRANCH   2  11
ENDBRANCH   1   7
BRANCH   1  14
ATOM     14  C   UNL     1      48.432   4.684  16.577  0.00  0.00    +0.000 A 
ATOM     15  C   UNL     1      48.907   5.989  16.457  0.00  0.00    +0.000 A 
ATOM     16  C   UNL     1      50.240   6.231  16.746  0.00  0.00    +0.000 A 
ATOM     17  N   UNL     1      51.114   5.279  17.140  0.00  0.00    +0.000 NA
ATOM     18  C   UNL     1      50.651   4.012  17.285  0.00  0.00    +0.000 A 
ATOM     19  C   UNL     1      49.320   3.692  17.016  0.00  0.00    +0.000 A 
BRANCH  18  20
ATOM     20  C   UNL     1      51.645   2.995  17.694  0.00  0.00    +0.000 A 
ATOM     21  C   UNL     1      51.496   1.634  17.369  0.00  0.00    +0.000 A 
ATOM     22  C   UNL     1      52.465   0.687  17.720  0.00  0.00    +0.000 A 
ATOM     23  C   UNL     1      53.603   1.080  18.416  0.00  0.00    +0.000 A 
ATOM     24  C   UNL     1      53.766   2.416  18.771  0.00  0.00    +0.000 A 
ATOM     25  C   UNL     1      52.796   3.359  18.416  0.00  0.00    +0.000 A 
ENDBRANCH  18  20
ENDBRANCH   1  14
TORSDOF 4
ENDMDL
