MODEL 1
REMARK VINA RESULT:    -9.156      0.000      0.000
REMARK INTER + INTRA:         -13.868
REMARK INTER:                 -12.903
REMARK INTRA:                  -0.966
REMARK UNBOUND:                -0.966
REMARK  Name = 
REMARK  7 active torsions:
REMARK  status: ('A' for Active; 'I' for Inactive)
REMARK    1  A    between atoms: C_2  and  C_20
REMARK    2  A    between atoms: N_3  and  C_4
REMARK    3  A    between atoms: C_4  and  C_5
REMARK    4  A    between atoms: C_9  and  C_10
REMARK    5  A    between atoms: C_10  and  N_11
REMARK    6  A    between atoms: N_11  and  C_12
REMARK    7  A    between atoms: C_12  and  C_13
REMARK                            x       y       z     vdW  Elec       q    Type
REMARK                         _______ _______ _______ _____ _____    ______ ____
ROOT
ATOM      1  C   UNL     1      46.110   4.000  14.630  0.00  0.00    +0.000 C 
ENDROOT
BRANCH   1   2
ATOM      2  C   UNL     1      45.951   4.831  13.385  0.00  0.00    +0.000 A 
ATOM      3  C   UNL     1      46.979   5.693  12.979  0.00  0.00    +0.000 A 
ATOM      4  C   UNL     1      46.872   6.407  11.788  0.00  0.00    +0.000 A 
ATOM      5  C   UNL     1      45.740   6.262  10.987  0.00  0.00    +0.000 A 
ATOM      6  C   UNL     1      44.694   5.410  11.374  0.00  0.00    +0.000 A 
ATOM      7  C   UNL     1      44.795   4.726  12.595  0.00  0.00    +0.000 A 
BRANCH   6   8
ATOM      8  C   UNL     1      43.524   5.166  10.446  0.00  0.00    +0.000 C 
BRANCH   8   9
ATOM      9  N   UNL     1      43.993   4.525   9.220  0.00  0.00    +0.000 NA
ATOM     10  H   UNL     1      44.769   5.062   8.837  0.00  0.00    +0.000 HD
BRANCH   9  11
ATOM     11  C   UNL     1      44.422   3.148   9.432  0.00  0.00    +0.000 C 
BRANCH  11  12
ATOM     12  C   UNL     1      45.464   2.746   8.410  0.00  0.00    +0.000 A 
ATOM     13  C   UNL     1      45.970   3.672   7.487  0.00  0.00    +0.000 A 
ATOM     14  C   UNL     1      46.964   3.297   6.577  0.00  0.00    +0.000 A 
ATOM     15  C   UNL     1      47.458   1.993   6.577  0.00  0.00    +0.000 A 
ATOM     16  C   UNL     1      46.950   1.059   7.477  0.00  0.00    +0.000 A 
ATOM     17  C   UNL     1      45.960   1.433   8.387  0.00  0.00    +0.000 A 
ENDBRANCH  11  12
ENDBRANCH   9  11
ENDBRANCH   8   9
ENDBRANCH   6   8
ENDBRANCH   1   2
BRANCH   1  20
ATOM     18  O   UNL     1      46.697   3.258  17.274  0.00  0.00    +0.000 OA
ATOM     19  C   UNL     1      47.526   3.904  16.639  0.00  0.00    +0.000 C 
ATOM     20  N   UNL     1      47.305   4.333  15.356  0.00  0.00    +0.000 N 
ATOM     21  H   UNL     1      48.076   4.707  14.814  0.00  0.00    +0.000 HD
BRANCH  19  22
ATOM     22  C   UNL     1      48.799   4.312  17.244  0.00  0.00    +0.000 A 
ATOM     23  C   UNL     1      48.929   5.588  17.778  0.00  0.00    +0.000 A 
ATOM     24  S   UNL     1      50.462   5.886  18.462  0.00  0.00    +0.000 S 
ATOM     25  C   UNL     1      50.991   4.309  18.097  0.00  0.00    +0.000 A 
ATOM     26  N   UNL     1      52.232   3.887  18.462  0.00  0.00    +0.000 NA
ATOM     27  C   UNL     1      52.486   2.657  18.150  0.00  0.00    +0.000 A 
ATOM     28  N   UNL     1      51.622   1.822  17.495  0.00  0.00    +0.000 N 
ATOM     29  C   UNL     1      50.393   2.231  17.035  0.00  0.00    +0.000 A 
ATOM     30  O   UNL     1      49.713   1.511  16.313  0.00  0.00    +0.000 OA
ATOM     31  C   UNL     1      50.029   3.583  17.421  0.00  0.00    +0.000 A 
ATOM     32  H   UNL     1      51.901   0.887  17.242  0.00  0.00    +0.000 HD
ENDBRANCH  19  22
ENDBRANCH   1  20
TORSDOF 7
ENDMDL
MODEL 2
REMARK VINA RESULT:    -9.002      1.382      1.884
REMARK INTER + INTRA:         -13.652
REMARK INTER:                 -12.471
REMARK INTRA:                  -1.180
REMARK UNBOUND:                -0.966
REMARK  Name = 
REMARK  7 active torsions:
REMARK  status: ('A' for Active; 'I' for Inactive)
REMARK    1  A    between atoms: C_2  and  C_20
REMARK    2  A    between atoms: N_3  and  C_4
REMARK    3  A    between atoms: C_4  and  C_5
REMARK    4  A    between atoms: C_9  and  C_10
REMARK    5  A    between atoms: C_10  and  N_11
REMARK    6  A    between atoms: N_11  and  C_12
REMARK    7  A    between atoms: C_12  and  C_13
REMARK                            x       y       z     vdW  Elec       q    Type
REMARK                         _______ _______ _______ _____ _____    ______ ____
ROOT
ATOM      1  C   UNL     1      47.031   3.959  14.501  0.00  0.00    +0.000 C 
ENDROOT
BRANCH   1   2
ATOM      2  C   UNL     1      46.589   4.998  13.506  0.00  0.00    +0.000 A 
ATOM      3  C   UNL     1      47.522   5.887  12.956  0.00  0.00    +0.000 A 
ATOM      4  C   UNL     1      47.136   6.800  11.977  0.00  0.00    +0.000 A 
ATOM      5  C   UNL     1      45.815   6.829  11.533  0.00  0.00    +0.000 A 
ATOM      6  C   UNL     1      44.859   5.953  12.071  0.00  0.00    +0.000 A 
ATOM      7  C   UNL     1      45.251   5.065  13.086  0.00  0.00    +0.000 A 
BRANCH   6   8
ATOM      8  C   UNL     1      43.458   5.908  11.504  0.00  0.00    +0.000 C 
BRANCH   8   9
ATOM      9  N   UNL     1      43.467   5.196  10.228  0.00  0.00    +0.000 NA
ATOM     10  H   UNL     1      44.133   5.642   9.600  0.00  0.00    +0.000 HD
BRANCH   9  11
ATOM     11  C   UNL     1      43.810   3.787  10.370  0.00  0.00    +0.000 C 
BRANCH  11  12
ATOM     12  C   UNL     1      44.847   3.380   9.345  0.00  0.00    +0.000 A 
ATOM     13  C   UNL     1      45.187   2.033   9.153  0.00  0.00    +0.000 A 
ATOM     14  C   UNL     1      46.115   1.668   8.172  0.00  0.00    +0.000 A 
ATOM     15  C   UNL     1      46.716   2.644   7.378  0.00  0.00    +0.000 A 
ATOM     16  C   UNL     1      46.400   3.987   7.571  0.00  0.00    +0.000 A 
ATOM     17  C   UNL     1      45.473   4.352   8.548  0.00  0.00    +0.000 A 
ENDBRANCH  11  12
ENDBRANCH   9  11
ENDBRANCH   8   9
ENDBRANCH   6   8
ENDBRANCH   1   2
BRANCH   1  20
ATOM     18  O   UNL     1      46.391   3.204  17.129  0.00  0.00    +0.000 OA
ATOM     19  C   UNL     1      47.213   4.098  16.951  0.00  0.00    +0.000 C 
ATOM     20  N   UNL     1      47.558   4.548  15.703  0.00  0.00    +0.000 N 
ATOM     21  H   UNL     1      48.360   5.158  15.594  0.00  0.00    +0.000 HD
BRANCH  19  22
ATOM     22  C   UNL     1      47.844   4.789  18.081  0.00  0.00    +0.000 A 
ATOM     23  C   UNL     1      47.094   5.662  18.858  0.00  0.00    +0.000 A 
ATOM     24  S   UNL     1      47.976   6.358  20.142  0.00  0.00    +0.000 S 
ATOM     25  C   UNL     1      49.378   5.489  19.721  0.00  0.00    +0.000 A 
ATOM     26  N   UNL     1      50.515   5.595  20.462  0.00  0.00    +0.000 NA
ATOM     27  C   UNL     1      51.490   4.854  20.046  0.00  0.00    +0.000 A 
ATOM     28  N   UNL     1      51.437   4.033  18.951  0.00  0.00    +0.000 N 
ATOM     29  C   UNL     1      50.340   3.959  18.127  0.00  0.00    +0.000 A 
ATOM     30  O   UNL     1      50.380   3.342  17.069  0.00  0.00    +0.000 OA
ATOM     31  C   UNL     1      49.190   4.718  18.590  0.00  0.00    +0.000 A 
ATOM     32  H   UNL     1      52.249   3.516  18.655  0.00  0.00    +0.000 HD
ENDBRANCH  19  22
ENDBRANCH   1  20
TORSDOF 7
ENDMDL
MODEL 3
REMARK VINA RESULT:    -8.989      1.983      2.959
REMARK INTER + INTRA:         -13.633
REMARK INTER:                 -12.248
REMARK INTRA:                  -1.385
REMARK UNBOUND:                -0.966
REMARK  Name = 
REMARK  7 active torsions:
REMARK  status: ('A' for Active; 'I' for Inactive)
REMARK    1  A    between atoms: C_2  and  C_20
REMARK    2  A    between atoms: N_3  and  C_4
REMARK    3  A    between atoms: C_4  and  C_5
REMARK    4  A    between atoms: C_9  and  C_10
REMARK    5  A    between atoms: C_10  and  N_11
REMARK    6  A    between atoms: N_11  and  C_12
REMARK    7  A    between atoms: C_12  and  C_13
REMARK                            x       y       z     vdW  Elec       q    Type
REMARK                         _______ _______ _______ _____ _____    ______ ____
ROOT
ATOM      1  C   UNL     1      47.121   6.649  11.746  0.00  0.00    +0.000 C 
ENDROOT
BRANCH   1   2
ATOM      2  C   UNL     1      45.685   6.208  11.659  0.00  0.00    +0.000 A 
ATOM      3  C   UNL     1      44.670   7.155  11.465  0.00  0.00    +0.000 A 
ATOM      4  C   UNL     1      43.347   6.749  11.307  0.00  0.00    +0.000 A 
ATOM      5  C   UNL     1      43.025   5.393  11.335  0.00  0.00    +0.000 A 
ATOM      6  C   UNL     1      44.023   4.425  11.533  0.00  0.00    +0.000 A 
ATOM      7  C   UNL     1      45.346   4.848  11.732  0.00  0.00    +0.000 A 
BRANCH   6   8
ATOM      8  C   UNL     1      43.687   2.953  11.445  0.00  0.00    +0.000 C 
BRANCH   8   9
ATOM      9  N   UNL     1      44.611   2.292  10.525  0.00  0.00    +0.000 NA
ATOM     10  H   UNL     1      44.596   1.289  10.699  0.00  0.00    +0.000 HD
BRANCH   9  11
ATOM     11  C   UNL     1      44.289   2.541   9.127  0.00  0.00    +0.000 C 
BRANCH  11  12
ATOM     12  C   UNL     1      45.532   2.460   8.265  0.00  0.00    +0.000 A 
ATOM     13  C   UNL     1      46.062   3.602   7.648  0.00  0.00    +0.000 A 
ATOM     14  C   UNL     1      47.235   3.520   6.891  0.00  0.00    +0.000 A 
ATOM     15  C   UNL     1      47.886   2.296   6.739  0.00  0.00    +0.000 A 
ATOM     16  C   UNL     1      47.360   1.151   7.331  0.00  0.00    +0.000 A 
ATOM     17  C   UNL     1      46.191   1.233   8.089  0.00  0.00    +0.000 A 
ENDBRANCH  11  12
ENDBRANCH   9  11
ENDBRANCH   8   9
ENDBRANCH   6   8
ENDBRANCH   1   2
BRANCH   1  20
ATOM     18  O   UNL     1      47.572   8.208  14.038  0.00  0.00    +0.000 OA
ATOM     19  C   UNL     1      47.908   7.027  14.046  0.00  0.00    +0.000 C 
ATOM     20  N   UNL     1      47.753   6.207  12.959  0.00  0.00    +0.000 N 
ATOM     21  H   UNL     1      47.881   5.206  13.065  0.00  0.00    +0.000 HD
BRANCH  19  22
ATOM     22  C   UNL     1      48.559   6.429  15.217  0.00  0.00    +0.000 A 
ATOM     23  C   UNL     1      49.681   7.037  15.765  0.00  0.00    +0.000 A 
ATOM     24  S   UNL     1      50.294   6.225  17.134  0.00  0.00    +0.000 S 
ATOM     25  C   UNL     1      49.060   5.053  17.058  0.00  0.00    +0.000 A 
ATOM     26  N   UNL     1      48.975   4.066  17.991  0.00  0.00    +0.000 NA
ATOM     27  C   UNL     1      47.971   3.268  17.828  0.00  0.00    +0.000 A 
ATOM     28  N   UNL     1      47.057   3.358  16.812  0.00  0.00    +0.000 N 
ATOM     29  C   UNL     1      47.152   4.285  15.803  0.00  0.00    +0.000 A 
ATOM     30  O   UNL     1      46.416   4.238  14.824  0.00  0.00    +0.000 OA
ATOM     31  C   UNL     1      48.223   5.252  15.977  0.00  0.00    +0.000 A 
ATOM     32  H   UNL     1      46.323   2.674  16.718  0.00  0.00    +0.000 HD
ENDBRANCH  19  22
ENDBRANCH   1  20
TORSDOF 7
ENDMDL
MODEL 4
REMARK VINA RESULT:    -8.242      2.491      3.486
REMARK INTER + INTRA:         -12.581
REMARK INTER:                 -11.518
REMARK INTRA:                  -1.063
REMARK UNBOUND:                -0.966
REMARK  Name = 
REMARK  7 active torsions:
REMARK  status: ('A' for Active; 'I' for Inactive)
REMARK    1  A    between atoms: C_2  and  C_20
REMARK    2  A    between atoms: N_3  and  C_4
REMARK    3  A    between atoms: C_4  and  C_5
REMARK    4  A    between atoms: C_9  and  C_10
REMARK    5  A    between atoms: C_10  and  N_11
REMARK    6  A    between atoms: N_11  and  C_12
REMARK    7  A    between atoms: C_12  and  C_13
REMARK                            x       y       z     vdW  Elec       q    Type
REMARK                         _______ _______ _______ _____ _____    ______ ____
ROOT
ATOM      1  C   UNL     1      47.162   4.123  14.871  0.00  0.00    +0.000 C 
ENDROOT
BRANCH   1   2
ATOM      2  C   UNL     1      46.613   4.795  13.641  0.00  0.00    +0.000 A 
ATOM      3  C   UNL     1      47.092   6.053  13.254  0.00  0.00    +0.000 A 
ATOM      4  C   UNL     1      46.646   6.648  12.076  0.00  0.00    +0.000 A 
ATOM      5  C   UNL     1      45.722   5.987  11.268  0.00  0.00    +0.000 A 
ATOM      6  C   UNL     1      45.222   4.727  11.636  0.00  0.00    +0.000 A 
ATOM      7  C   UNL     1      45.648   4.158  12.846  0.00  0.00    +0.000 A 
BRANCH   6   8
ATOM      8  C   UNL     1      44.311   3.964  10.701  0.00  0.00    +0.000 C 
BRANCH   8   9
ATOM      9  N   UNL     1      44.839   2.618  10.489  0.00  0.00    +0.000 NA
ATOM     10  H   UNL     1      44.479   2.000  11.214  0.00  0.00    +0.000 HD
BRANCH   9  11
ATOM     11  C   UNL     1      44.496   2.076   9.181  0.00  0.00    +0.000 C 
BRANCH  11  12
ATOM     12  C   UNL     1      45.646   2.242   8.211  0.00  0.00    +0.000 A 
ATOM     13  C   UNL     1      46.545   1.195   7.965  0.00  0.00    +0.000 A 
ATOM     14  C   UNL     1      47.577   1.349   7.034  0.00  0.00    +0.000 A 
ATOM     15  C   UNL     1      47.724   2.551   6.343  0.00  0.00    +0.000 A 
ATOM     16  C   UNL     1      46.849   3.605   6.591  0.00  0.00    +0.000 A 
ATOM     17  C   UNL     1      45.817   3.452   7.519  0.00  0.00    +0.000 A 
ENDBRANCH  11  12
ENDBRANCH   9  11
ENDBRANCH   8   9
ENDBRANCH   6   8
ENDBRANCH   1   2
BRANCH   1  20
ATOM     18  O   UNL     1      49.154   4.043  16.849  0.00  0.00    +0.000 OA
ATOM     19  C   UNL     1      48.319   4.943  16.881  0.00  0.00    +0.000 C 
ATOM     20  N   UNL     1      47.296   5.036  15.974  0.00  0.00    +0.000 N 
ATOM     21  H   UNL     1      46.739   5.883  15.932  0.00  0.00    +0.000 HD
BRANCH  19  22
ATOM     22  C   UNL     1      48.332   5.955  17.943  0.00  0.00    +0.000 A 
ATOM     23  C   UNL     1      48.081   5.578  19.256  0.00  0.00    +0.000 A 
ATOM     24  S   UNL     1      48.160   6.872  20.363  0.00  0.00    +0.000 S 
ATOM     25  C   UNL     1      48.565   7.974  19.129  0.00  0.00    +0.000 A 
ATOM     26  N   UNL     1      48.818   9.280  19.413  0.00  0.00    +0.000 NA
ATOM     27  C   UNL     1      49.146   9.993  18.385  0.00  0.00    +0.000 A 
ATOM     28  N   UNL     1      49.226   9.523  17.101  0.00  0.00    +0.000 N 
ATOM     29  C   UNL     1      48.898   8.234  16.757  0.00  0.00    +0.000 A 
ATOM     30  O   UNL     1      48.823   7.888  15.583  0.00  0.00    +0.000 OA
ATOM     31  C   UNL     1      48.592   7.371  17.886  0.00  0.00    +0.000 A 
ATOM     32  H   UNL     1      49.443  10.144  16.338  0.00  0.00    +0.000 HD
ENDBRANCH  19  22
ENDBRANCH   1  20
TORSDOF 7
ENDMDL
MODEL 5
REMARK VINA RESULT:    -8.225      2.535      3.156
REMARK INTER + INTRA:         -12.557
REMARK INTER:                 -11.478
REMARK INTRA:                  -1.079
REMARK UNBOUND:                -0.966
REMARK  Name = 
REMARK  7 active torsions:
REMARK  status: ('A' for Active; 'I' for Inactive)
REMARK    1  A    between atoms: C_2  and  C_20
REMARK    2  A    between atoms: N_3  and  C_4
REMARK    3  A    between atoms: C_4  and  C_5
REMARK    4  A    between atoms: C_9  and  C_10
REMARK    5  A    between atoms: C_10  and  N_11
REMARK    6  A    between atoms: N_11  and  C_12
REMARK    7  A    between atoms: C_12  and  C_13
REMARK                            x       y       z     vdW  Elec       q    Type
REMARK                         _______ _______ _______ _____ _____    ______ ____
ROOT
ATOM      1  C   UNL     1      47.455   5.115  13.832  0.00  0.00    +0.000 C 
ENDROOT
BRANCH   1   2
ATOM      2  C   UNL     1      46.279   5.568  13.009  0.00  0.00    +0.000 A 
ATOM      3  C   UNL     1      46.118   6.925  12.701  0.00  0.00    +0.000 A 
ATOM      4  C   UNL     1      45.076   7.343  11.876  0.00  0.00    +0.000 A 
ATOM      5  C   UNL     1      44.188   6.408  11.346  0.00  0.00    +0.000 A 
ATOM      6  C   UNL     1      44.325   5.043  11.644  0.00  0.00    +0.000 A 
ATOM      7  C   UNL     1      45.353   4.639  12.508  0.00  0.00    +0.000 A 
BRANCH   6   8
ATOM      8  C   UNL     1      43.432   4.022  10.973  0.00  0.00    +0.000 C 
BRANCH   8   9
ATOM      9  N   UNL     1      43.953   3.712   9.644  0.00  0.00    +0.000 NA
ATOM     10  H   UNL     1      44.579   4.459   9.347  0.00  0.00    +0.000 HD
BRANCH   9  11
ATOM     11  C   UNL     1      44.666   2.443   9.599  0.00  0.00    +0.000 C 
BRANCH  11  12
ATOM     12  C   UNL     1      45.626   2.405   8.428  0.00  0.00    +0.000 A 
ATOM     13  C   UNL     1      46.310   1.229   8.089  0.00  0.00    +0.000 A 
ATOM     14  C   UNL     1      47.161   1.198   6.979  0.00  0.00    +0.000 A 
ATOM     15  C   UNL     1      47.339   2.341   6.201  0.00  0.00    +0.000 A 
ATOM     16  C   UNL     1      46.679   3.520   6.538  0.00  0.00    +0.000 A 
ATOM     17  C   UNL     1      45.828   3.552   7.644  0.00  0.00    +0.000 A 
ENDBRANCH  11  12
ENDBRANCH   9  11
ENDBRANCH   8   9
ENDBRANCH   6   8
ENDBRANCH   1   2
BRANCH   1  20
ATOM     18  O   UNL     1      49.654   6.562  14.810  0.00  0.00    +0.000 OA
ATOM     19  C   UNL     1      48.631   6.504  15.486  0.00  0.00    +0.000 C 
ATOM     20  N   UNL     1      47.526   5.793  15.098  0.00  0.00    +0.000 N 
ATOM     21  H   UNL     1      46.652   5.914  15.597  0.00  0.00    +0.000 HD
BRANCH  19  22
ATOM     22  C   UNL     1      48.550   7.154  16.799  0.00  0.00    +0.000 A 
ATOM     23  C   UNL     1      48.852   8.504  16.918  0.00  0.00    +0.000 A 
ATOM     24  S   UNL     1      48.681   9.102  18.506  0.00  0.00    +0.000 S 
ATOM     25  C   UNL     1      48.165   7.585  19.080  0.00  0.00    +0.000 A 
ATOM     26  N   UNL     1      47.807   7.414  20.381  0.00  0.00    +0.000 NA
ATOM     27  C   UNL     1      47.405   6.219  20.669  0.00  0.00    +0.000 A 
ATOM     28  N   UNL     1      47.344   5.179  19.780  0.00  0.00    +0.000 N 
ATOM     29  C   UNL     1      47.774   5.284  18.479  0.00  0.00    +0.000 A 
ATOM     30  O   UNL     1      47.860   4.298  17.756  0.00  0.00    +0.000 OA
ATOM     31  C   UNL     1      48.170   6.626  18.085  0.00  0.00    +0.000 A 
ATOM     32  H   UNL     1      47.064   4.259  20.081  0.00  0.00    +0.000 HD
ENDBRANCH  19  22
ENDBRANCH   1  20
TORSDOF 7
ENDMDL
MODEL 6
REMARK VINA RESULT:    -7.775      2.084      2.769
REMARK INTER + INTRA:         -11.923
REMARK INTER:                 -10.699
REMARK INTRA:                  -1.223
REMARK UNBOUND:                -0.966
REMARK  Name = 
REMARK  7 active torsions:
REMARK  status: ('A' for Active; 'I' for Inactive)
REMARK    1  A    between atoms: C_2  and  C_20
REMARK    2  A    between atoms: N_3  and  C_4
REMARK    3  A    between atoms: C_4  and  C_5
REMARK    4  A    between atoms: C_9  and  C_10
REMARK    5  A    between atoms: C_10  and  N_11
REMARK    6  A    between atoms: N_11  and  C_12
REMARK    7  A    between atoms: C_12  and  C_13
REMARK                            x       y       z     vdW  Elec       q    Type
REMARK                         _______ _______ _______ _____ _____    ______ ____
ROOT
ATOM      1  C   UNL     1      47.511   7.112  12.969  0.00  0.00    +0.000 C 
ENDROOT
BRANCH   1   2
ATOM      2  C   UNL     1      46.752   5.840  12.703  0.00  0.00    +0.000 A 
ATOM      3  C   UNL     1      47.067   4.673  13.410  0.00  0.00    +0.000 A 
ATOM      4  C   UNL     1      46.320   3.511  13.225  0.00  0.00    +0.000 A 
ATOM      5  C   UNL     1      45.245   3.508  12.336  0.00  0.00    +0.000 A 
ATOM      6  C   UNL     1      44.913   4.663  11.611  0.00  0.00    +0.000 A 
ATOM      7  C   UNL     1      45.698   5.814  11.776  0.00  0.00    +0.000 A 
BRANCH   6   8
ATOM      8  C   UNL     1      43.677   4.688  10.739  0.00  0.00    +0.000 C 
BRANCH   8   9
ATOM      9  N   UNL     1      43.842   3.754   9.627  0.00  0.00    +0.000 NA
ATOM     10  H   UNL     1      42.927   3.534   9.237  0.00  0.00    +0.000 HD
BRANCH   9  11
ATOM     11  C   UNL     1      44.701   4.276   8.573  0.00  0.00    +0.000 C 
BRANCH  11  12
ATOM     12  C   UNL     1      45.628   3.199   8.050  0.00  0.00    +0.000 A 
ATOM     13  C   UNL     1      45.605   1.902   8.583  0.00  0.00    +0.000 A 
ATOM     14  C   UNL     1      46.438   0.906   8.061  0.00  0.00    +0.000 A 
ATOM     15  C   UNL     1      47.302   1.197   7.006  0.00  0.00    +0.000 A 
ATOM     16  C   UNL     1      47.346   2.486   6.480  0.00  0.00    +0.000 A 
ATOM     17  C   UNL     1      46.515   3.480   6.999  0.00  0.00    +0.000 A 
ENDBRANCH  11  12
ENDBRANCH   9  11
ENDBRANCH   8   9
ENDBRANCH   6   8
ENDBRANCH   1   2
BRANCH   1  20
ATOM     18  O   UNL     1      47.994   8.741  15.205  0.00  0.00    +0.000 OA
ATOM     19  C   UNL     1      48.703   7.756  15.022  0.00  0.00    +0.000 C 
ATOM     20  N   UNL     1      48.555   6.929  13.940  0.00  0.00    +0.000 N 
ATOM     21  H   UNL     1      49.041   6.039  13.919  0.00  0.00    +0.000 HD
BRANCH  19  22
ATOM     22  C   UNL     1      49.807   7.433  15.933  0.00  0.00    +0.000 A 
ATOM     23  C   UNL     1      50.863   8.324  16.077  0.00  0.00    +0.000 A 
ATOM     24  S   UNL     1      52.044   7.804  17.192  0.00  0.00    +0.000 S 
ATOM     25  C   UNL     1      51.166   6.389  17.544  0.00  0.00    +0.000 A 
ATOM     26  N   UNL     1      51.612   5.503  18.476  0.00  0.00    +0.000 NA
ATOM     27  C   UNL     1      50.829   4.491  18.664  0.00  0.00    +0.000 A 
ATOM     28  N   UNL     1      49.653   4.278  17.996  0.00  0.00    +0.000 N 
ATOM     29  C   UNL     1      49.207   5.100  16.990  0.00  0.00    +0.000 A 
ATOM     30  O   UNL     1      48.239   4.797  16.302  0.00  0.00    +0.000 OA
ATOM     31  C   UNL     1      50.014   6.291  16.787  0.00  0.00    +0.000 A 
ATOM     32  H   UNL     1      49.112   3.443  18.159  0.00  0.00    +0.000 HD
ENDBRANCH  19  22
ENDBRANCH   1  20
TORSDOF 7
ENDMDL
MODEL 7
REMARK VINA RESULT:    -7.774      4.158      5.206
REMARK INTER + INTRA:         -11.921
REMARK INTER:                 -10.678
REMARK INTRA:                  -1.244
REMARK UNBOUND:                -0.966
REMARK  Name = 
REMARK  7 active torsions:
REMARK  status: ('A' for Active; 'I' for Inactive)
REMARK    1  A    between atoms: C_2  and  C_20
REMARK    2  A    between atoms: N_3  and  C_4
REMARK    3  A    between atoms: C_4  and  C_5
REMARK    4  A    between atoms: C_9  and  C_10
REMARK    5  A    between atoms: C_10  and  N_11
REMARK    6  A    between atoms: N_11  and  C_12
REMARK    7  A    between atoms: C_12  and  C_13
REMARK                            x       y       z     vdW  Elec       q    Type
REMARK                         _______ _______ _______ _____ _____    ______ ____
ROOT
ATOM      1  C   UNL     1      46.088   7.859  12.025  0.00  0.00    +0.000 C 
ENDROOT
BRANCH   1   2
ATOM      2  C   UNL     1      45.909   6.376  12.211  0.00  0.00    +0.000 A 
ATOM      3  C   UNL     1      46.684   5.688  13.154  0.00  0.00    +0.000 A 
ATOM      4  C   UNL     1      46.472   4.331  13.388  0.00  0.00    +0.000 A 
ATOM      5  C   UNL     1      45.478   3.650  12.686  0.00  0.00    +0.000 A 
ATOM      6  C   UNL     1      44.692   4.315  11.732  0.00  0.00    +0.000 A 
ATOM      7  C   UNL     1      44.943   5.672  11.477  0.00  0.00    +0.000 A 
BRANCH   6   8
ATOM      8  C   UNL     1      43.540   3.601  11.060  0.00  0.00    +0.000 C 
BRANCH   8   9
ATOM      9  N   UNL     1      43.858   3.372   9.653  0.00  0.00    +0.000 NA
ATOM     10  H   UNL     1      44.429   4.142   9.309  0.00  0.00    +0.000 HD
BRANCH   9  11
ATOM     11  C   UNL     1      44.561   2.116   9.430  0.00  0.00    +0.000 C 
BRANCH  11  12
ATOM     12  C   UNL     1      45.599   2.267   8.338  0.00  0.00    +0.000 A 
ATOM     13  C   UNL     1      45.756   3.477   7.648  0.00  0.00    +0.000 A 
ATOM     14  C   UNL     1      46.748   3.615   6.672  0.00  0.00    +0.000 A 
ATOM     15  C   UNL     1      47.589   2.543   6.372  0.00  0.00    +0.000 A 
ATOM     16  C   UNL     1      47.432   1.330   7.037  0.00  0.00    +0.000 A 
ATOM     17  C   UNL     1      46.444   1.193   8.013  0.00  0.00    +0.000 A 
ENDBRANCH  11  12
ENDBRANCH   9  11
ENDBRANCH   8   9
ENDBRANCH   6   8
ENDBRANCH   1   2
BRANCH   1  20
ATOM     18  O   UNL     1      47.170  10.416  12.443  0.00  0.00    +0.000 OA
ATOM     19  C   UNL     1      47.922   9.495  12.136  0.00  0.00    +0.000 C 
ATOM     20  N   UNL     1      47.471   8.226  11.883  0.00  0.00    +0.000 N 
ATOM     21  H   UNL     1      48.136   7.464  11.806  0.00  0.00    +0.000 HD
BRANCH  19  22
ATOM     22  C   UNL     1      49.362   9.713  11.962  0.00  0.00    +0.000 A 
ATOM     23  C   UNL     1      49.809  10.638  11.027  0.00  0.00    +0.000 A 
ATOM     24  S   UNL     1      51.508  10.784  10.973  0.00  0.00    +0.000 S 
ATOM     25  C   UNL     1      51.699   9.641  12.220  0.00  0.00    +0.000 A 
ATOM     26  N   UNL     1      52.934   9.327  12.697  0.00  0.00    +0.000 NA
ATOM     27  C   UNL     1      52.927   8.469  13.665  0.00  0.00    +0.000 A 
ATOM     28  N   UNL     1      51.802   7.887  14.186  0.00  0.00    +0.000 N 
ATOM     29  C   UNL     1      50.544   8.110  13.680  0.00  0.00    +0.000 A 
ATOM     30  O   UNL     1      49.581   7.453  14.058  0.00  0.00    +0.000 OA
ATOM     31  C   UNL     1      50.489   9.121  12.637  0.00  0.00    +0.000 A 
ATOM     32  H   UNL     1      51.871   7.190  14.911  0.00  0.00    +0.000 HD
ENDBRANCH  19  22
ENDBRANCH   1  20
TORSDOF 7
ENDMDL
MODEL 8
REMARK VINA RESULT:    -7.521      3.973      8.803
REMARK INTER + INTRA:         -11.565
REMARK INTER:                  -9.325
REMARK INTRA:                  -2.240
REMARK UNBOUND:                -0.966
REMARK  Name = 
REMARK  7 active torsions:
REMARK  status: ('A' for Active; 'I' for Inactive)
REMARK    1  A    between atoms: C_2  and  C_20
REMARK    2  A    between atoms: N_3  and  C_4
REMARK    3  A    between atoms: C_4  and  C_5
REMARK    4  A    between atoms: C_9  and  C_10
REMARK    5  A    between atoms: C_10  and  N_11
REMARK    6  A    between atoms: N_11  and  C_12
REMARK    7  A    between atoms: C_12  and  C_13
REMARK                            x       y       z     vdW  Elec       q    Type
REMARK                         _______ _______ _______ _____ _____    ______ ____
ROOT
ATOM      1  C   UNL     1      47.450   3.575  16.590  0.00  0.00    +0.000 C 
ENDROOT
BRANCH   1   2
ATOM      2  C   UNL     1      48.063   4.265  17.779  0.00  0.00    +0.000 A 
ATOM      3  C   UNL     1      49.273   3.802  18.314  0.00  0.00    +0.000 A 
ATOM      4  C   UNL     1      49.886   4.480  19.365  0.00  0.00    +0.000 A 
ATOM      5  C   UNL     1      49.300   5.633  19.887  0.00  0.00    +0.000 A 
ATOM      6  C   UNL     1      48.087   6.115  19.372  0.00  0.00    +0.000 A 
ATOM      7  C   UNL     1      47.458   5.400  18.341  0.00  0.00    +0.000 A 
BRANCH   6   8
ATOM      8  C   UNL     1      47.517   7.428  19.861  0.00  0.00    +0.000 C 
BRANCH   8   9
ATOM      9  N   UNL     1      47.175   8.271  18.718  0.00  0.00    +0.000 NA
ATOM     10  H   UNL     1      46.350   8.824  18.945  0.00  0.00    +0.000 HD
BRANCH   9  11
ATOM     11  C   UNL     1      48.259   9.164  18.330  0.00  0.00    +0.000 C 
BRANCH  11  12
ATOM     12  C   UNL     1      49.261   8.444  17.452  0.00  0.00    +0.000 A 
ATOM     13  C   UNL     1      50.606   8.330  17.832  0.00  0.00    +0.000 A 
ATOM     14  C   UNL     1      51.511   7.625  17.031  0.00  0.00    +0.000 A 
ATOM     15  C   UNL     1      51.083   7.033  15.844  0.00  0.00    +0.000 A 
ATOM     16  C   UNL     1      49.754   7.154  15.448  0.00  0.00    +0.000 A 
ATOM     17  C   UNL     1      48.849   7.855  16.246  0.00  0.00    +0.000 A 
ENDBRANCH  11  12
ENDBRANCH   9  11
ENDBRANCH   8   9
ENDBRANCH   6   8
ENDBRANCH   1   2
BRANCH   1  20
ATOM     18  O   UNL     1      47.207   3.180  13.821  0.00  0.00    +0.000 OA
ATOM     19  C   UNL     1      46.783   4.222  14.313  0.00  0.00    +0.000 C 
ATOM     20  N   UNL     1      46.892   4.507  15.649  0.00  0.00    +0.000 N 
ATOM     21  H   UNL     1      46.378   5.290  16.038  0.00  0.00    +0.000 HD
BRANCH  19  22
ATOM     22  C   UNL     1      46.178   5.267  13.479  0.00  0.00    +0.000 A 
ATOM     23  C   UNL     1      46.901   6.416  13.185  0.00  0.00    +0.000 A 
ATOM     24  S   UNL     1      46.058   7.512  12.186  0.00  0.00    +0.000 S 
ATOM     25  C   UNL     1      44.714   6.471  12.086  0.00  0.00    +0.000 A 
ATOM     26  N   UNL     1      43.633   6.798  11.328  0.00  0.00    +0.000 NA
ATOM     27  C   UNL     1      42.702   5.900  11.318  0.00  0.00    +0.000 A 
ATOM     28  N   UNL     1      42.748   4.718  12.008  0.00  0.00    +0.000 N 
ATOM     29  C   UNL     1      43.781   4.385  12.850  0.00  0.00    +0.000 A 
ATOM     30  O   UNL     1      43.718   3.399  13.575  0.00  0.00    +0.000 OA
ATOM     31  C   UNL     1      44.887   5.328  12.842  0.00  0.00    +0.000 A 
ATOM     32  H   UNL     1      41.966   4.081  11.993  0.00  0.00    +0.000 HD
ENDBRANCH  19  22
ENDBRANCH   1  20
TORSDOF 7
ENDMDL
MODEL 9
REMARK VINA RESULT:    -7.180      3.750      8.567
REMARK INTER + INTRA:         -11.084
REMARK INTER:                  -9.472
REMARK INTRA:                  -1.612
REMARK UNBOUND:                -0.966
REMARK  Name = 
REMARK  7 active torsions:
REMARK  status: ('A' for Active; 'I' for Inactive)
REMARK    1  A    between atoms: C_2  and  C_20
REMARK    2  A    between atoms: N_3  and  C_4
REMARK    3  A    between atoms: C_4  and  C_5
REMARK    4  A    between atoms: C_9  and  C_10
REMARK    5  A    between atoms: C_10  and  N_11
REMARK    6  A    between atoms: N_11  and  C_12
REMARK    7  A    between atoms: C_12  and  C_13
REMARK                            x       y       z     vdW  Elec       q    Type
REMARK                         _______ _______ _______ _____ _____    ______ ____
ROOT
ATOM      1  C   UNL     1      48.761   6.635  14.600  0.00  0.00    +0.000 C 
ENDROOT
BRANCH   1   2
ATOM      2  C   UNL     1      48.667   7.575  15.772  0.00  0.00    +0.000 A 
ATOM      3  C   UNL     1      48.300   8.913  15.571  0.00  0.00    +0.000 A 
ATOM      4  C   UNL     1      48.137   9.770  16.657  0.00  0.00    +0.000 A 
ATOM      5  C   UNL     1      48.331   9.298  17.954  0.00  0.00    +0.000 A 
ATOM      6  C   UNL     1      48.705   7.964  18.181  0.00  0.00    +0.000 A 
ATOM      7  C   UNL     1      48.906   7.121  17.078  0.00  0.00    +0.000 A 
BRANCH   6   8
ATOM      8  C   UNL     1      48.800   7.427  19.592  0.00  0.00    +0.000 C 
BRANCH   8   9
ATOM      9  N   UNL     1      49.678   6.260  19.616  0.00  0.00    +0.000 NA
ATOM     10  H   UNL     1      50.427   6.418  20.287  0.00  0.00    +0.000 HD
BRANCH   9  11
ATOM     11  C   UNL     1      48.976   5.031  19.962  0.00  0.00    +0.000 C 
BRANCH  11  12
ATOM     12  C   UNL     1      48.782   4.159  18.740  0.00  0.00    +0.000 A 
ATOM     13  C   UNL     1      49.831   3.382  18.230  0.00  0.00    +0.000 A 
ATOM     14  C   UNL     1      49.626   2.547  17.126  0.00  0.00    +0.000 A 
ATOM     15  C   UNL     1      48.372   2.486  16.518  0.00  0.00    +0.000 A 
ATOM     16  C   UNL     1      47.326   3.267  17.004  0.00  0.00    +0.000 A 
ATOM     17  C   UNL     1      47.530   4.097  18.107  0.00  0.00    +0.000 A 
ENDBRANCH  11  12
ENDBRANCH   9  11
ENDBRANCH   8   9
ENDBRANCH   6   8
ENDBRANCH   1   2
BRANCH   1  20
ATOM     18  O   UNL     1      47.980   7.070  11.938  0.00  0.00    +0.000 OA
ATOM     19  C   UNL     1      47.182   6.555  12.716  0.00  0.00    +0.000 C 
ATOM     20  N   UNL     1      47.472   6.337  14.037  0.00  0.00    +0.000 N 
ATOM     21  H   UNL     1      46.856   5.757  14.596  0.00  0.00    +0.000 HD
BRANCH  19  22
ATOM     22  C   UNL     1      45.829   6.188  12.285  0.00  0.00    +0.000 A 
ATOM     23  C   UNL     1      44.994   7.156  11.740  0.00  0.00    +0.000 A 
ATOM     24  S   UNL     1      43.469   6.554  11.271  0.00  0.00    +0.000 S 
ATOM     25  C   UNL     1      43.886   4.974  11.749  0.00  0.00    +0.000 A 
ATOM     26  N   UNL     1      43.020   3.939  11.574  0.00  0.00    +0.000 NA
ATOM     27  C   UNL     1      43.481   2.791  11.951  0.00  0.00    +0.000 A 
ATOM     28  N   UNL     1      44.719   2.588  12.500  0.00  0.00    +0.000 N 
ATOM     29  C   UNL     1      45.592   3.614  12.772  0.00  0.00    +0.000 A 
ATOM     30  O   UNL     1      46.621   3.421  13.410  0.00  0.00    +0.000 OA
ATOM     31  C   UNL     1      45.151   4.916  12.302  0.00  0.00    +0.000 A 
ATOM     32  H   UNL     1      45.000   1.673  12.815  0.00  0.00    +0.000 HD
ENDBRANCH  19  22
ENDBRANCH   1  20
TORSDOF 7
ENDMDL
