MODEL 1
REMARK VINA RESULT:    -7.465      0.000      0.000
REMARK INTER + INTRA:         -10.466
REMARK INTER:                  -9.647
REMARK INTRA:                  -0.819
REMARK UNBOUND:                -0.819
REMARK  Name = 
REMARK  6 active torsions:
REMARK  status: ('A' for Active; 'I' for Inactive)
REMARK    1  A    between atoms: C_1  and  C_2
REMARK    2  A    between atoms: C_2  and  C_3
REMARK    3  A    between atoms: C_2  and  C_14
REMARK    4  A    between atoms: C_3  and  N_4
REMARK    5  A    between atoms: N_4  and  C_5
REMARK    6  A    between atoms: C_8  and  C_9
REMARK                            x       y       z     vdW  Elec       q    Type
REMARK                         _______ _______ _______ _____ _____    ______ ____
ROOT
ATOM      1  N   UNL     1      43.674   3.289  10.533  0.00  0.00    +0.000 N 
ATOM      2  H   UNL     1      43.164   4.154  10.365  0.00  0.00    +0.000 HD
ENDROOT
BRANCH   1   3
ATOM      3  C   UNL     1      44.637   3.070   9.540  0.00  0.00    +0.000 A 
ATOM      4  C   UNL     1      45.049   4.139   8.738  0.00  0.00    +0.000 A 
ATOM      5  C   UNL     1      45.980   3.942   7.718  0.00  0.00    +0.000 A 
ATOM      6  C   UNL     1      46.449   2.656   7.502  0.00  0.00    +0.000 A 
ATOM      7  N   UNL     1      46.040   1.570   8.214  0.00  0.00    +0.000 NA
ATOM      8  C   UNL     1      45.136   1.811   9.192  0.00  0.00    +0.000 A 
BRANCH   6   9
ATOM      9  C   UNL     1      47.468   2.399   6.436  0.00  0.00    +0.000 C 
ATOM     10  N   UNL     1      47.362   3.193   5.327  0.00  0.00    +0.000 N 
ATOM     11  O   UNL     1      48.334   1.539   6.538  0.00  0.00    +0.000 OA
ATOM     12  H   UNL     1      46.629   3.892   5.288  0.00  0.00    +0.000 HD
ATOM     13  H   UNL     1      48.008   3.078   4.561  0.00  0.00    +0.000 HD
ENDBRANCH   6   9
ENDBRANCH   1   3
BRANCH   1  14
ATOM     14  C   UNL     1      44.114   3.207  11.923  0.00  0.00    +0.000 C 
BRANCH  14  16
ATOM     15  C   UNL     1      42.905   5.423  12.391  0.00  0.00    +0.000 C 
ATOM     16  C   UNL     1      44.160   4.609  12.452  0.00  0.00    +0.000 C 
BRANCH  16  17
ATOM     17  C   UNL     1      45.463   5.285  12.553  0.00  0.00    +0.000 A 
ATOM     18  C   UNL     1      45.874   6.216  11.591  0.00  0.00    +0.000 A 
ATOM     19  C   UNL     1      47.099   6.875  11.725  0.00  0.00    +0.000 A 
ATOM     20  C   UNL     1      47.916   6.618  12.824  0.00  0.00    +0.000 A 
ATOM     21  C   UNL     1      47.519   5.691  13.782  0.00  0.00    +0.000 A 
ATOM     22  C   UNL     1      46.301   5.025  13.644  0.00  0.00    +0.000 A 
ENDBRANCH  16  17
ENDBRANCH  14  16
ENDBRANCH   1  14
TORSDOF 5
ENDMDL
MODEL 2
REMARK VINA RESULT:    -7.449      1.529      2.003
REMARK INTER + INTRA:         -10.445
REMARK INTER:                  -9.784
REMARK INTRA:                  -0.662
REMARK UNBOUND:                -0.819
REMARK  Name = 
REMARK  6 active torsions:
REMARK  status: ('A' for Active; 'I' for Inactive)
REMARK    1  A    between atoms: C_1  and  C_2
REMARK    2  A    between atoms: C_2  and  C_3
REMARK    3  A    between atoms: C_2  and  C_14
REMARK    4  A    between atoms: C_3  and  N_4
REMARK    5  A    between atoms: N_4  and  C_5
REMARK    6  A    between atoms: C_8  and  C_9
REMARK                            x       y       z     vdW  Elec       q    Type
REMARK                         _______ _______ _______ _____ _____    ______ ____
ROOT
ATOM      1  N   UNL     1      43.876   4.940   9.830  0.00  0.00    +0.000 N 
ATOM      2  H   UNL     1      44.124   5.874   9.506  0.00  0.00    +0.000 HD
ENDROOT
BRANCH   1   3
ATOM      3  C   UNL     1      44.690   3.967   9.235  0.00  0.00    +0.000 A 
ATOM      4  C   UNL     1      45.631   4.355   8.276  0.00  0.00    +0.000 A 
ATOM      5  C   UNL     1      46.430   3.404   7.642  0.00  0.00    +0.000 A 
ATOM      6  C   UNL     1      46.235   2.069   7.963  0.00  0.00    +0.000 A 
ATOM      7  N   UNL     1      45.295   1.631   8.846  0.00  0.00    +0.000 NA
ATOM      8  C   UNL     1      44.544   2.591   9.435  0.00  0.00    +0.000 A 
BRANCH   6   9
ATOM      9  C   UNL     1      47.085   1.013   7.329  0.00  0.00    +0.000 C 
ATOM     10  N   UNL     1      46.771  -0.272   7.677  0.00  0.00    +0.000 N 
ATOM     11  O   UNL     1      48.001   1.271   6.559  0.00  0.00    +0.000 OA
ATOM     12  H   UNL     1      46.004  -0.438   8.319  0.00  0.00    +0.000 HD
ATOM     13  H   UNL     1      47.302  -1.042   7.297  0.00  0.00    +0.000 HD
ENDBRANCH   6   9
ENDBRANCH   1   3
BRANCH   1  14
ATOM     14  C   UNL     1      43.748   4.911  11.284  0.00  0.00    +0.000 C 
BRANCH  14  16
ATOM     15  C   UNL     1      45.655   4.004  12.744  0.00  0.00    +0.000 C 
ATOM     16  C   UNL     1      45.127   5.080  11.848  0.00  0.00    +0.000 C 
BRANCH  16  17
ATOM     17  C   UNL     1      45.704   6.432  11.915  0.00  0.00    +0.000 A 
ATOM     18  C   UNL     1      44.889   7.564  12.034  0.00  0.00    +0.000 A 
ATOM     19  C   UNL     1      45.459   8.837  12.133  0.00  0.00    +0.000 A 
ATOM     20  C   UNL     1      46.844   8.986  12.125  0.00  0.00    +0.000 A 
ATOM     21  C   UNL     1      47.662   7.868  12.002  0.00  0.00    +0.000 A 
ATOM     22  C   UNL     1      47.094   6.599  11.892  0.00  0.00    +0.000 A 
ENDBRANCH  16  17
ENDBRANCH  14  16
ENDBRANCH   1  14
TORSDOF 5
ENDMDL
MODEL 3
REMARK VINA RESULT:    -7.328      1.110      1.700
REMARK INTER + INTRA:         -10.289
REMARK INTER:                  -9.521
REMARK INTRA:                  -0.768
REMARK UNBOUND:                -0.819
REMARK  Name = 
REMARK  6 active torsions:
REMARK  status: ('A' for Active; 'I' for Inactive)
REMARK    1  A    between atoms: C_1  and  C_2
REMARK    2  A    between atoms: C_2  and  C_3
REMARK    3  A    between atoms: C_2  and  C_14
REMARK    4  A    between atoms: C_3  and  N_4
REMARK    5  A    between atoms: N_4  and  C_5
REMARK    6  A    between atoms: C_8  and  C_9
REMARK                            x       y       z     vdW  Elec       q    Type
REMARK                         _______ _______ _______ _____ _____    ______ ____
ROOT
ATOM      1  N   UNL     1      43.733   4.582  10.123  0.00  0.00    +0.000 N 
ATOM      2  H   UNL     1      42.931   4.837   9.549  0.00  0.00    +0.000 HD
ENDROOT
BRANCH   1   3
ATOM      3  C   UNL     1      44.636   3.788   9.404  0.00  0.00    +0.000 A 
ATOM      4  C   UNL     1      45.431   4.379   8.417  0.00  0.00    +0.000 A 
ATOM      5  C   UNL     1      46.313   3.606   7.661  0.00  0.00    +0.000 A 
ATOM      6  C   UNL     1      46.346   2.240   7.893  0.00  0.00    +0.000 A 
ATOM      7  N   UNL     1      45.555   1.605   8.800  0.00  0.00    +0.000 NA
ATOM      8  C   UNL     1      44.715   2.396   9.508  0.00  0.00    +0.000 A 
BRANCH   6   9
ATOM      9  C   UNL     1      47.295   1.373   7.125  0.00  0.00    +0.000 C 
ATOM     10  N   UNL     1      48.371   2.024   6.586  0.00  0.00    +0.000 N 
ATOM     11  O   UNL     1      47.126   0.169   6.980  0.00  0.00    +0.000 OA
ATOM     12  H   UNL     1      48.469   3.023   6.733  0.00  0.00    +0.000 HD
ATOM     13  H   UNL     1      49.054   1.511   6.049  0.00  0.00    +0.000 HD
ENDBRANCH   6   9
ENDBRANCH   1   3
BRANCH   1  14
ATOM     14  C   UNL     1      44.270   5.751  10.814  0.00  0.00    +0.000 C 
BRANCH  14  16
ATOM     15  C   UNL     1      44.266   4.470  13.038  0.00  0.00    +0.000 C 
ATOM     16  C   UNL     1      45.023   5.247  12.007  0.00  0.00    +0.000 C 
BRANCH  16  17
ATOM     17  C   UNL     1      46.290   5.901  12.373  0.00  0.00    +0.000 A 
ATOM     18  C   UNL     1      46.923   5.625  13.590  0.00  0.00    +0.000 A 
ATOM     19  C   UNL     1      48.145   6.228  13.904  0.00  0.00    +0.000 A 
ATOM     20  C   UNL     1      48.746   7.102  13.000  0.00  0.00    +0.000 A 
ATOM     21  C   UNL     1      48.122   7.386  11.790  0.00  0.00    +0.000 A 
ATOM     22  C   UNL     1      46.897   6.793  11.482  0.00  0.00    +0.000 A 
ENDBRANCH  16  17
ENDBRANCH  14  16
ENDBRANCH   1  14
TORSDOF 5
ENDMDL
MODEL 4
REMARK VINA RESULT:    -7.026      3.121      6.605
REMARK INTER + INTRA:          -9.898
REMARK INTER:                  -9.480
REMARK INTRA:                  -0.419
REMARK UNBOUND:                -0.819
REMARK  Name = 
REMARK  6 active torsions:
REMARK  status: ('A' for Active; 'I' for Inactive)
REMARK    1  A    between atoms: C_1  and  C_2
REMARK    2  A    between atoms: C_2  and  C_3
REMARK    3  A    between atoms: C_2  and  C_14
REMARK    4  A    between atoms: C_3  and  N_4
REMARK    5  A    between atoms: N_4  and  C_5
REMARK    6  A    between atoms: C_8  and  C_9
REMARK                            x       y       z     vdW  Elec       q    Type
REMARK                         _______ _______ _______ _____ _____    ______ ____
ROOT
ATOM      1  N   UNL     1      44.610   5.188  10.655  0.00  0.00    +0.000 N 
ATOM      2  H   UNL     1      43.849   4.528  10.801  0.00  0.00    +0.000 HD
ENDROOT
BRANCH   1   3
ATOM      3  C   UNL     1      45.418   5.286  11.795  0.00  0.00    +0.000 A 
ATOM      4  C   UNL     1      46.519   6.150  11.782  0.00  0.00    +0.000 A 
ATOM      5  C   UNL     1      47.361   6.241  12.890  0.00  0.00    +0.000 A 
ATOM      6  C   UNL     1      47.096   5.425  13.980  0.00  0.00    +0.000 A 
ATOM      7  N   UNL     1      46.075   4.527  14.024  0.00  0.00    +0.000 NA
ATOM      8  C   UNL     1      45.285   4.474  12.926  0.00  0.00    +0.000 A 
BRANCH   6   9
ATOM      9  C   UNL     1      47.957   5.505  15.202  0.00  0.00    +0.000 C 
ATOM     10  N   UNL     1      47.408   4.968  16.335  0.00  0.00    +0.000 N 
ATOM     11  O   UNL     1      49.069   6.017  15.200  0.00  0.00    +0.000 OA
ATOM     12  H   UNL     1      46.483   4.555  16.288  0.00  0.00    +0.000 HD
ATOM     13  H   UNL     1      47.922   4.988  17.203  0.00  0.00    +0.000 HD
ENDBRANCH   6   9
ENDBRANCH   1   3
BRANCH   1  14
ATOM     14  C   UNL     1      45.276   4.940   9.380  0.00  0.00    +0.000 C 
BRANCH  14  16
ATOM     15  C   UNL     1      44.138   2.706   9.932  0.00  0.00    +0.000 C 
ATOM     16  C   UNL     1      44.973   3.523   8.996  0.00  0.00    +0.000 C 
BRANCH  16  17
ATOM     17  C   UNL     1      45.850   2.848   8.026  0.00  0.00    +0.000 A 
ATOM     18  C   UNL     1      46.232   1.513   8.199  0.00  0.00    +0.000 A 
ATOM     19  C   UNL     1      47.036   0.878   7.247  0.00  0.00    +0.000 A 
ATOM     20  C   UNL     1      47.454   1.571   6.112  0.00  0.00    +0.000 A 
ATOM     21  C   UNL     1      47.085   2.900   5.934  0.00  0.00    +0.000 A 
ATOM     22  C   UNL     1      46.291   3.536   6.889  0.00  0.00    +0.000 A 
ENDBRANCH  16  17
ENDBRANCH  14  16
ENDBRANCH   1  14
TORSDOF 5
ENDMDL
MODEL 5
REMARK VINA RESULT:    -6.959      3.373      5.699
REMARK INTER + INTRA:          -9.812
REMARK INTER:                  -8.958
REMARK INTRA:                  -0.854
REMARK UNBOUND:                -0.819
REMARK  Name = 
REMARK  6 active torsions:
REMARK  status: ('A' for Active; 'I' for Inactive)
REMARK    1  A    between atoms: C_1  and  C_2
REMARK    2  A    between atoms: C_2  and  C_3
REMARK    3  A    between atoms: C_2  and  C_14
REMARK    4  A    between atoms: C_3  and  N_4
REMARK    5  A    between atoms: N_4  and  C_5
REMARK    6  A    between atoms: C_8  and  C_9
REMARK                            x       y       z     vdW  Elec       q    Type
REMARK                         _______ _______ _______ _____ _____    ______ ____
ROOT
ATOM      1  N   UNL     1      43.814   5.380  12.425  0.00  0.00    +0.000 N 
ATOM      2  H   UNL     1      43.552   4.580  12.998  0.00  0.00    +0.000 HD
ENDROOT
BRANCH   1   3
ATOM      3  C   UNL     1      45.139   5.763  12.668  0.00  0.00    +0.000 A 
ATOM      4  C   UNL     1      45.699   6.805  11.920  0.00  0.00    +0.000 A 
ATOM      5  C   UNL     1      47.027   7.183  12.115  0.00  0.00    +0.000 A 
ATOM      6  C   UNL     1      47.778   6.474  13.039  0.00  0.00    +0.000 A 
ATOM      7  N   UNL     1      47.302   5.417  13.753  0.00  0.00    +0.000 NA
ATOM      8  C   UNL     1      46.008   5.086  13.528  0.00  0.00    +0.000 A 
BRANCH   6   9
ATOM      9  C   UNL     1      49.201   6.859  13.303  0.00  0.00    +0.000 C 
ATOM     10  N   UNL     1      49.927   7.196  12.193  0.00  0.00    +0.000 N 
ATOM     11  O   UNL     1      49.689   6.870  14.425  0.00  0.00    +0.000 OA
ATOM     12  H   UNL     1      49.479   7.171  11.283  0.00  0.00    +0.000 HD
ATOM     13  H   UNL     1      50.896   7.461  12.286  0.00  0.00    +0.000 HD
ENDBRANCH   6   9
ENDBRANCH   1   3
BRANCH   1  14
ATOM     14  C   UNL     1      43.419   5.174  11.034  0.00  0.00    +0.000 C 
BRANCH  14  16
ATOM     15  C   UNL     1      43.403   2.717  11.780  0.00  0.00    +0.000 C 
ATOM     16  C   UNL     1      43.679   3.732  10.715  0.00  0.00    +0.000 C 
BRANCH  16  17
ATOM     17  C   UNL     1      44.605   3.405   9.619  0.00  0.00    +0.000 A 
ATOM     18  C   UNL     1      45.208   4.410   8.854  0.00  0.00    +0.000 A 
ATOM     19  C   UNL     1      46.114   4.081   7.842  0.00  0.00    +0.000 A 
ATOM     20  C   UNL     1      46.431   2.746   7.594  0.00  0.00    +0.000 A 
ATOM     21  C   UNL     1      45.833   1.740   8.346  0.00  0.00    +0.000 A 
ATOM     22  C   UNL     1      44.921   2.069   9.349  0.00  0.00    +0.000 A 
ENDBRANCH  16  17
ENDBRANCH  14  16
ENDBRANCH   1  14
TORSDOF 5
ENDMDL
MODEL 6
REMARK VINA RESULT:    -6.523      3.131      6.336
REMARK INTER + INTRA:          -9.249
REMARK INTER:                  -8.768
REMARK INTRA:                  -0.481
REMARK UNBOUND:                -0.819
REMARK  Name = 
REMARK  6 active torsions:
REMARK  status: ('A' for Active; 'I' for Inactive)
REMARK    1  A    between atoms: C_1  and  C_2
REMARK    2  A    between atoms: C_2  and  C_3
REMARK    3  A    between atoms: C_2  and  C_14
REMARK    4  A    between atoms: C_3  and  N_4
REMARK    5  A    between atoms: N_4  and  C_5
REMARK    6  A    between atoms: C_8  and  C_9
REMARK                            x       y       z     vdW  Elec       q    Type
REMARK                         _______ _______ _______ _____ _____    ______ ____
ROOT
ATOM      1  N   UNL     1      43.845   4.730  10.362  0.00  0.00    +0.000 N 
ATOM      2  H   UNL     1      43.656   3.866  10.865  0.00  0.00    +0.000 HD
ENDROOT
BRANCH   1   3
ATOM      3  C   UNL     1      44.727   5.549  11.079  0.00  0.00    +0.000 A 
ATOM      4  C   UNL     1      44.260   6.240  12.203  0.00  0.00    +0.000 A 
ATOM      5  C   UNL     1      45.107   7.089  12.915  0.00  0.00    +0.000 A 
ATOM      6  C   UNL     1      46.404   7.255  12.453  0.00  0.00    +0.000 A 
ATOM      7  N   UNL     1      46.894   6.653  11.335  0.00  0.00    +0.000 NA
ATOM      8  C   UNL     1      46.035   5.839  10.677  0.00  0.00    +0.000 A 
BRANCH   6   9
ATOM      9  C   UNL     1      47.358   8.136  13.198  0.00  0.00    +0.000 C 
ATOM     10  N   UNL     1      46.814   8.824  14.249  0.00  0.00    +0.000 N 
ATOM     11  O   UNL     1      48.538   8.244  12.894  0.00  0.00    +0.000 OA
ATOM     12  H   UNL     1      45.830   8.703  14.463  0.00  0.00    +0.000 HD
ATOM     13  H   UNL     1      47.390   9.444  14.798  0.00  0.00    +0.000 HD
ENDBRANCH   6   9
ENDBRANCH   1   3
BRANCH   1  14
ATOM     14  C   UNL     1      44.170   4.457   8.965  0.00  0.00    +0.000 C 
BRANCH  14  16
ATOM     15  C   UNL     1      44.330   2.143  10.065  0.00  0.00    +0.000 C 
ATOM     16  C   UNL     1      44.610   3.026   8.889  0.00  0.00    +0.000 C 
BRANCH  16  17
ATOM     17  C   UNL     1      45.676   2.662   7.942  0.00  0.00    +0.000 A 
ATOM     18  C   UNL     1      46.072   3.536   6.923  0.00  0.00    +0.000 A 
ATOM     19  C   UNL     1      47.112   3.186   6.057  0.00  0.00    +0.000 A 
ATOM     20  C   UNL     1      47.770   1.968   6.209  0.00  0.00    +0.000 A 
ATOM     21  C   UNL     1      47.381   1.090   7.216  0.00  0.00    +0.000 A 
ATOM     22  C   UNL     1      46.336   1.434   8.074  0.00  0.00    +0.000 A 
ENDBRANCH  16  17
ENDBRANCH  14  16
ENDBRANCH   1  14
TORSDOF 5
ENDMDL
MODEL 7
REMARK VINA RESULT:    -6.187      3.668      6.636
REMARK INTER + INTRA:          -8.814
REMARK INTER:                  -8.680
REMARK INTRA:                  -0.134
REMARK UNBOUND:                -0.819
REMARK  Name = 
REMARK  6 active torsions:
REMARK  status: ('A' for Active; 'I' for Inactive)
REMARK    1  A    between atoms: C_1  and  C_2
REMARK    2  A    between atoms: C_2  and  C_3
REMARK    3  A    between atoms: C_2  and  C_14
REMARK    4  A    between atoms: C_3  and  N_4
REMARK    5  A    between atoms: N_4  and  C_5
REMARK    6  A    between atoms: C_8  and  C_9
REMARK                            x       y       z     vdW  Elec       q    Type
REMARK                         _______ _______ _______ _____ _____    ______ ____
ROOT
ATOM      1  N   UNL     1      46.175   5.840  11.243  0.00  0.00    +0.000 N 
ATOM      2  H   UNL     1      46.709   6.581  10.793  0.00  0.00    +0.000 HD
ENDROOT
BRANCH   1   3
ATOM      3  C   UNL     1      46.670   5.567  12.525  0.00  0.00    +0.000 A 
ATOM      4  C   UNL     1      46.041   4.596  13.310  0.00  0.00    +0.000 A 
ATOM      5  C   UNL     1      46.491   4.329  14.604  0.00  0.00    +0.000 A 
ATOM      6  C   UNL     1      47.548   5.080  15.094  0.00  0.00    +0.000 A 
ATOM      7  N   UNL     1      48.160   6.076  14.396  0.00  0.00    +0.000 NA
ATOM      8  C   UNL     1      47.688   6.298  13.146  0.00  0.00    +0.000 A 
BRANCH   6   9
ATOM      9  C   UNL     1      48.083   4.814  16.467  0.00  0.00    +0.000 C 
ATOM     10  N   UNL     1      47.240   5.144  17.493  0.00  0.00    +0.000 N 
ATOM     11  O   UNL     1      49.194   4.341  16.666  0.00  0.00    +0.000 OA
ATOM     12  H   UNL     1      46.329   5.535  17.279  0.00  0.00    +0.000 HD
ATOM     13  H   UNL     1      47.530   5.002  18.449  0.00  0.00    +0.000 HD
ENDBRANCH   6   9
ENDBRANCH   1   3
BRANCH   1  14
ATOM     14  C   UNL     1      44.741   6.083  11.116  0.00  0.00    +0.000 C 
BRANCH  14  16
ATOM     15  C   UNL     1      43.039   4.181  11.390  0.00  0.00    +0.000 C 
ATOM     16  C   UNL     1      44.127   4.822  10.587  0.00  0.00    +0.000 C 
BRANCH  16  17
ATOM     17  C   UNL     1      44.886   4.018   9.616  0.00  0.00    +0.000 A 
ATOM     18  C   UNL     1      44.902   2.621   9.686  0.00  0.00    +0.000 A 
ATOM     19  C   UNL     1      45.599   1.873   8.732  0.00  0.00    +0.000 A 
ATOM     20  C   UNL     1      46.275   2.516   7.697  0.00  0.00    +0.000 A 
ATOM     21  C   UNL     1      46.269   3.905   7.621  0.00  0.00    +0.000 A 
ATOM     22  C   UNL     1      45.582   4.652   8.580  0.00  0.00    +0.000 A 
ENDBRANCH  16  17
ENDBRANCH  14  16
ENDBRANCH   1  14
TORSDOF 5
ENDMDL
MODEL 8
REMARK VINA RESULT:    -6.036      3.901      6.387
REMARK INTER + INTRA:          -8.619
REMARK INTER:                  -8.167
REMARK INTRA:                  -0.452
REMARK UNBOUND:                -0.819
REMARK  Name = 
REMARK  6 active torsions:
REMARK  status: ('A' for Active; 'I' for Inactive)
REMARK    1  A    between atoms: C_1  and  C_2
REMARK    2  A    between atoms: C_2  and  C_3
REMARK    3  A    between atoms: C_2  and  C_14
REMARK    4  A    between atoms: C_3  and  N_4
REMARK    5  A    between atoms: N_4  and  C_5
REMARK    6  A    between atoms: C_8  and  C_9
REMARK                            x       y       z     vdW  Elec       q    Type
REMARK                         _______ _______ _______ _____ _____    ______ ____
ROOT
ATOM      1  N   UNL     1      45.429   3.739  13.064  0.00  0.00    +0.000 N 
ATOM      2  H   UNL     1      45.722   3.401  12.149  0.00  0.00    +0.000 HD
ENDROOT
BRANCH   1   3
ATOM      3  C   UNL     1      46.383   4.609  13.609  0.00  0.00    +0.000 A 
ATOM      4  C   UNL     1      46.866   5.668  12.833  0.00  0.00    +0.000 A 
ATOM      5  C   UNL     1      47.842   6.528  13.337  0.00  0.00    +0.000 A 
ATOM      6  C   UNL     1      48.340   6.277  14.606  0.00  0.00    +0.000 A 
ATOM      7  N   UNL     1      47.948   5.229  15.381  0.00  0.00    +0.000 NA
ATOM      8  C   UNL     1      47.000   4.422  14.849  0.00  0.00    +0.000 A 
BRANCH   6   9
ATOM      9  C   UNL     1      49.369   7.187  15.201  0.00  0.00    +0.000 C 
ATOM     10  N   UNL     1      50.394   7.531  14.363  0.00  0.00    +0.000 N 
ATOM     11  O   UNL     1      49.310   7.593  16.354  0.00  0.00    +0.000 OA
ATOM     12  H   UNL     1      50.401   7.169  13.415  0.00  0.00    +0.000 HD
ATOM     13  H   UNL     1      51.132   8.137  14.690  0.00  0.00    +0.000 HD
ENDBRANCH   6   9
ENDBRANCH   1   3
BRANCH   1  14
ATOM     14  C   UNL     1      44.044   4.201  13.027  0.00  0.00    +0.000 C 
BRANCH  14  16
ATOM     15  C   UNL     1      42.623   5.667  11.472  0.00  0.00    +0.000 C 
ATOM     16  C   UNL     1      43.808   4.773  11.662  0.00  0.00    +0.000 C 
BRANCH  16  17
ATOM     17  C   UNL     1      44.408   4.101  10.499  0.00  0.00    +0.000 A 
ATOM     18  C   UNL     1      44.178   2.744  10.247  0.00  0.00    +0.000 A 
ATOM     19  C   UNL     1      44.726   2.132   9.115  0.00  0.00    +0.000 A 
ATOM     20  C   UNL     1      45.499   2.875   8.224  0.00  0.00    +0.000 A 
ATOM     21  C   UNL     1      45.738   4.223   8.469  0.00  0.00    +0.000 A 
ATOM     22  C   UNL     1      45.199   4.831   9.603  0.00  0.00    +0.000 A 
ENDBRANCH  16  17
ENDBRANCH  14  16
ENDBRANCH   1  14
TORSDOF 5
ENDMDL
MODEL 9
REMARK VINA RESULT:    -5.654      3.332      5.463
REMARK INTER + INTRA:          -8.125
REMARK INTER:                  -7.526
REMARK INTRA:                  -0.599
REMARK UNBOUND:                -0.819
REMARK  Name = 
REMARK  6 active torsions:
REMARK  status: ('A' for Active; 'I' for Inactive)
REMARK    1  A    between atoms: C_1  and  C_2
REMARK    2  A    between atoms: C_2  and  C_3
REMARK    3  A    between atoms: C_2  and  C_14
REMARK    4  A    between atoms: C_3  and  N_4
REMARK    5  A    between atoms: N_4  and  C_5
REMARK    6  A    between atoms: C_8  and  C_9
REMARK                            x       y       z     vdW  Elec       q    Type
REMARK                         _______ _______ _______ _____ _____    ______ ____
ROOT
ATOM      1  N   UNL     1      46.956   6.930  13.842  0.00  0.00    +0.000 N 
ATOM      2  H   UNL     1      46.891   7.926  13.638  0.00  0.00    +0.000 HD
ENDROOT
BRANCH   1   3
ATOM      3  C   UNL     1      46.252   6.175  12.895  0.00  0.00    +0.000 A 
ATOM      4  C   UNL     1      45.489   5.082  13.320  0.00  0.00    +0.000 A 
ATOM      5  C   UNL     1      44.806   4.291  12.396  0.00  0.00    +0.000 A 
ATOM      6  C   UNL     1      44.940   4.598  11.051  0.00  0.00    +0.000 A 
ATOM      7  N   UNL     1      45.713   5.613  10.577  0.00  0.00    +0.000 NA
ATOM      8  C   UNL     1      46.356   6.352  11.512  0.00  0.00    +0.000 A 
BRANCH   6   9
ATOM      9  C   UNL     1      44.206   3.794  10.023  0.00  0.00    +0.000 C 
ATOM     10  N   UNL     1      44.062   4.402   8.805  0.00  0.00    +0.000 N 
ATOM     11  O   UNL     1      43.760   2.677  10.247  0.00  0.00    +0.000 OA
ATOM     12  H   UNL     1      44.448   5.330   8.666  0.00  0.00    +0.000 HD
ATOM     13  H   UNL     1      43.573   3.929   8.060  0.00  0.00    +0.000 HD
ENDBRANCH   6   9
ENDBRANCH   1   3
BRANCH   1  14
ATOM     14  C   UNL     1      48.337   6.544  14.114  0.00  0.00    +0.000 C 
BRANCH  14  16
ATOM     15  C   UNL     1      49.210   7.902  16.110  0.00  0.00    +0.000 C 
ATOM     16  C   UNL     1      48.543   6.666  15.594  0.00  0.00    +0.000 C 
BRANCH  16  17
ATOM     17  C   UNL     1      48.542   5.443  16.413  0.00  0.00    +0.000 A 
ATOM     18  C   UNL     1      47.555   4.464  16.252  0.00  0.00    +0.000 A 
ATOM     19  C   UNL     1      47.593   3.291  17.014  0.00  0.00    +0.000 A 
ATOM     20  C   UNL     1      48.621   3.086  17.932  0.00  0.00    +0.000 A 
ATOM     21  C   UNL     1      49.603   4.057  18.102  0.00  0.00    +0.000 A 
ATOM     22  C   UNL     1      49.560   5.231  17.350  0.00  0.00    +0.000 A 
ENDBRANCH  16  17
ENDBRANCH  14  16
ENDBRANCH   1  14
TORSDOF 5
ENDMDL
