MODEL 1
REMARK VINA RESULT:    -9.089      0.000      0.000
REMARK INTER + INTRA:         -13.276
REMARK INTER:                 -12.277
REMARK INTRA:                  -0.999
REMARK UNBOUND:                -0.999
REMARK  Name = 
REMARK  6 active torsions:
REMARK  status: ('A' for Active; 'I' for Inactive)
REMARK    1  A    between atoms: C_2  and  C_4
REMARK    2  A    between atoms: N_8  and  C_9
REMARK    3  A    between atoms: C_9  and  C_10
REMARK    4  A    between atoms: C_10  and  C_13
REMARK    5  A    between atoms: C_17  and  O_18
REMARK    6  A    between atoms: O_18  and  C_19
REMARK                            x       y       z     vdW  Elec       q    Type
REMARK                         _______ _______ _______ _____ _____    ______ ____
ROOT
ATOM      1  C   UNL     1      43.349   4.468  11.082  0.00  0.00    +0.000 C 
ENDROOT
BRANCH   1   6
ATOM      2  C   UNL     1      46.494   2.633   7.470  0.00  0.00    +0.000 A 
ATOM      3  C   UNL     1      46.085   3.930   7.758  0.00  0.00    +0.000 A 
ATOM      4  C   UNL     1      45.178   4.138   8.795  0.00  0.00    +0.000 A 
ATOM      5  C   UNL     1      44.688   3.055   9.522  0.00  0.00    +0.000 A 
ATOM      6  N   UNL     1      43.804   3.187  10.556  0.00  0.00    +0.000 N 
ATOM      7  N   UNL     1      45.064   1.794   9.235  0.00  0.00    +0.000 NA
ATOM      8  C   UNL     1      45.945   1.604   8.216  0.00  0.00    +0.000 A 
ATOM      9  H   UNL     1      43.533   2.320  11.007  0.00  0.00    +0.000 HD
BRANCH   2  11
ATOM     10  N   UNL     1      47.422   3.101   5.279  0.00  0.00    +0.000 N 
ATOM     11  C   UNL     1      47.466   2.322   6.404  0.00  0.00    +0.000 C 
ATOM     12  O   UNL     1      48.297   1.434   6.531  0.00  0.00    +0.000 OA
ATOM     13  H   UNL     1      48.162   2.951   4.601  0.00  0.00    +0.000 HD
ATOM     14  H   UNL     1      46.932   3.982   5.242  0.00  0.00    +0.000 HD
ENDBRANCH   2  11
ENDBRANCH   1   6
BRANCH   1  15
ATOM     15  C   UNL     1      43.688   4.711  12.574  0.00  0.00    +0.000 C 
ATOM     16  F   UNL     1      42.776   5.578  13.100  0.00  0.00    +0.000 F 
ATOM     17  F   UNL     1      43.521   3.543  13.261  0.00  0.00    +0.000 F 
BRANCH  15  18
ATOM     18  C   UNL     1      45.107   5.238  12.668  0.00  0.00    +0.000 A 
ATOM     19  C   UNL     1      45.580   6.199  11.764  0.00  0.00    +0.000 A 
ATOM     20  C   UNL     1      46.849   6.758  11.932  0.00  0.00    +0.000 A 
ATOM     21  C   UNL     1      47.663   6.361  12.998  0.00  0.00    +0.000 A 
ATOM     22  C   UNL     1      47.208   5.390  13.888  0.00  0.00    +0.000 A 
ATOM     23  C   UNL     1      45.938   4.836  13.725  0.00  0.00    +0.000 A 
BRANCH  22  24
ATOM     24  O   UNL     1      47.892   4.945  14.989  0.00  0.00    +0.000 OA
BRANCH  24  25
ATOM     25  C   UNL     1      47.245   4.028  15.898  0.00  0.00    +0.000 C 
ATOM     26  C   UNL     1      47.161   4.412  17.381  0.00  0.00    +0.000 C 
ATOM     27  O   UNL     1      47.880   3.224  17.787  0.00  0.00    +0.000 OA
ATOM     28  C   UNL     1      48.138   2.885  16.405  0.00  0.00    +0.000 C 
ENDBRANCH  24  25
ENDBRANCH  22  24
ENDBRANCH  15  18
ENDBRANCH   1  15
TORSDOF 6
ENDMDL
MODEL 2
REMARK VINA RESULT:    -8.032      2.474      4.078
REMARK INTER + INTRA:         -11.849
REMARK INTER:                 -11.516
REMARK INTRA:                  -0.333
REMARK UNBOUND:                -0.999
REMARK  Name = 
REMARK  6 active torsions:
REMARK  status: ('A' for Active; 'I' for Inactive)
REMARK    1  A    between atoms: C_2  and  C_4
REMARK    2  A    between atoms: N_8  and  C_9
REMARK    3  A    between atoms: C_9  and  C_10
REMARK    4  A    between atoms: C_10  and  C_13
REMARK    5  A    between atoms: C_17  and  O_18
REMARK    6  A    between atoms: O_18  and  C_19
REMARK                            x       y       z     vdW  Elec       q    Type
REMARK                         _______ _______ _______ _____ _____    ______ ____
ROOT
ATOM      1  C   UNL     1      43.346   4.006  11.137  0.00  0.00    +0.000 C 
ENDROOT
BRANCH   1   6
ATOM      2  C   UNL     1      46.651   2.770   7.414  0.00  0.00    +0.000 A 
ATOM      3  C   UNL     1      46.043   1.996   8.395  0.00  0.00    +0.000 A 
ATOM      4  C   UNL     1      45.199   2.614   9.317  0.00  0.00    +0.000 A 
ATOM      5  C   UNL     1      44.980   3.988   9.252  0.00  0.00    +0.000 A 
ATOM      6  N   UNL     1      44.159   4.656  10.117  0.00  0.00    +0.000 N 
ATOM      7  N   UNL     1      45.582   4.748   8.317  0.00  0.00    +0.000 NA
ATOM      8  C   UNL     1      46.408   4.133   7.428  0.00  0.00    +0.000 A 
ATOM      9  H   UNL     1      44.081   5.655   9.955  0.00  0.00    +0.000 HD
BRANCH   2  11
ATOM     10  N   UNL     1      47.823   2.986   5.302  0.00  0.00    +0.000 N 
ATOM     11  C   UNL     1      47.542   2.199   6.387  0.00  0.00    +0.000 C 
ATOM     12  O   UNL     1      48.038   1.088   6.511  0.00  0.00    +0.000 OA
ATOM     13  H   UNL     1      48.519   2.628   4.657  0.00  0.00    +0.000 HD
ATOM     14  H   UNL     1      47.641   3.978   5.284  0.00  0.00    +0.000 HD
ENDBRANCH   2  11
ENDBRANCH   1   6
BRANCH   1  15
ATOM     15  C   UNL     1      43.248   4.780  12.475  0.00  0.00    +0.000 C 
ATOM     16  F   UNL     1      42.254   5.710  12.377  0.00  0.00    +0.000 F 
ATOM     17  F   UNL     1      42.847   3.919  13.457  0.00  0.00    +0.000 F 
BRANCH  15  18
ATOM     18  C   UNL     1      44.597   5.406  12.772  0.00  0.00    +0.000 A 
ATOM     19  C   UNL     1      45.623   4.659  13.365  0.00  0.00    +0.000 A 
ATOM     20  C   UNL     1      46.894   5.215  13.528  0.00  0.00    +0.000 A 
ATOM     21  C   UNL     1      47.155   6.524  13.108  0.00  0.00    +0.000 A 
ATOM     22  C   UNL     1      46.134   7.280  12.537  0.00  0.00    +0.000 A 
ATOM     23  C   UNL     1      44.866   6.723  12.368  0.00  0.00    +0.000 A 
BRANCH  22  24
ATOM     24  O   UNL     1      46.271   8.555  12.053  0.00  0.00    +0.000 OA
BRANCH  24  25
ATOM     25  C   UNL     1      45.157   9.469  12.151  0.00  0.00    +0.000 C 
ATOM     26  C   UNL     1      44.212   9.596  10.948  0.00  0.00    +0.000 C 
ATOM     27  O   UNL     1      44.473  11.013  10.821  0.00  0.00    +0.000 OA
ATOM     28  C   UNL     1      45.497  10.935  11.839  0.00  0.00    +0.000 C 
ENDBRANCH  24  25
ENDBRANCH  22  24
ENDBRANCH  15  18
ENDBRANCH   1  15
TORSDOF 6
ENDMDL
MODEL 3
REMARK VINA RESULT:    -7.857      1.877      2.052
REMARK INTER + INTRA:         -11.612
REMARK INTER:                 -10.735
REMARK INTRA:                  -0.877
REMARK UNBOUND:                -0.999
REMARK  Name = 
REMARK  6 active torsions:
REMARK  status: ('A' for Active; 'I' for Inactive)
REMARK    1  A    between atoms: C_2  and  C_4
REMARK    2  A    between atoms: N_8  and  C_9
REMARK    3  A    between atoms: C_9  and  C_10
REMARK    4  A    between atoms: C_10  and  C_13
REMARK    5  A    between atoms: C_17  and  O_18
REMARK    6  A    between atoms: O_18  and  C_19
REMARK                            x       y       z     vdW  Elec       q    Type
REMARK                         _______ _______ _______ _____ _____    ______ ____
ROOT
ATOM      1  C   UNL     1      43.333   4.364  11.262  0.00  0.00    +0.000 C 
ENDROOT
BRANCH   1   6
ATOM      2  C   UNL     1      46.467   2.712   7.554  0.00  0.00    +0.000 A 
ATOM      3  C   UNL     1      46.083   3.995   7.927  0.00  0.00    +0.000 A 
ATOM      4  C   UNL     1      45.172   4.151   8.970  0.00  0.00    +0.000 A 
ATOM      5  C   UNL     1      44.654   3.032   9.619  0.00  0.00    +0.000 A 
ATOM      6  N   UNL     1      43.765   3.112  10.654  0.00  0.00    +0.000 N 
ATOM      7  N   UNL     1      45.006   1.785   9.249  0.00  0.00    +0.000 NA
ATOM      8  C   UNL     1      45.891   1.647   8.225  0.00  0.00    +0.000 A 
ATOM      9  H   UNL     1      43.472   2.223  11.042  0.00  0.00    +0.000 HD
BRANCH   2  11
ATOM     10  N   UNL     1      47.356   3.244   5.361  0.00  0.00    +0.000 N 
ATOM     11  C   UNL     1      47.441   2.453   6.476  0.00  0.00    +0.000 C 
ATOM     12  O   UNL     1      48.307   1.597   6.583  0.00  0.00    +0.000 OA
ATOM     13  H   UNL     1      48.094   3.132   4.675  0.00  0.00    +0.000 HD
ATOM     14  H   UNL     1      46.831   4.106   5.341  0.00  0.00    +0.000 HD
ENDBRANCH   2  11
ENDBRANCH   1   6
BRANCH   1  15
ATOM     15  C   UNL     1      43.994   4.680  12.627  0.00  0.00    +0.000 C 
ATOM     16  F   UNL     1      43.040   5.144  13.485  0.00  0.00    +0.000 F 
ATOM     17  F   UNL     1      44.447   3.516  13.180  0.00  0.00    +0.000 F 
BRANCH  15  18
ATOM     18  C   UNL     1      45.108   5.685  12.404  0.00  0.00    +0.000 A 
ATOM     19  C   UNL     1      44.886   6.855  11.664  0.00  0.00    +0.000 A 
ATOM     20  C   UNL     1      45.888   7.823  11.564  0.00  0.00    +0.000 A 
ATOM     21  C   UNL     1      47.123   7.634  12.192  0.00  0.00    +0.000 A 
ATOM     22  C   UNL     1      47.359   6.464  12.911  0.00  0.00    +0.000 A 
ATOM     23  C   UNL     1      46.357   5.499  13.018  0.00  0.00    +0.000 A 
BRANCH  22  24
ATOM     24  O   UNL     1      48.508   6.178  13.600  0.00  0.00    +0.000 OA
BRANCH  24  25
ATOM     25  C   UNL     1      49.246   7.255  14.218  0.00  0.00    +0.000 C 
ATOM     26  C   UNL     1      50.168   6.922  15.398  0.00  0.00    +0.000 C 
ATOM     27  O   UNL     1      49.459   7.824  16.279  0.00  0.00    +0.000 OA
ATOM     28  C   UNL     1      48.459   8.060  15.262  0.00  0.00    +0.000 C 
ENDBRANCH  24  25
ENDBRANCH  22  24
ENDBRANCH  15  18
ENDBRANCH   1  15
TORSDOF 6
ENDMDL
MODEL 4
REMARK VINA RESULT:    -7.316      3.182      8.091
REMARK INTER + INTRA:         -10.881
REMARK INTER:                 -10.359
REMARK INTRA:                  -0.522
REMARK UNBOUND:                -0.999
REMARK  Name = 
REMARK  6 active torsions:
REMARK  status: ('A' for Active; 'I' for Inactive)
REMARK    1  A    between atoms: C_2  and  C_4
REMARK    2  A    between atoms: N_8  and  C_9
REMARK    3  A    between atoms: C_9  and  C_10
REMARK    4  A    between atoms: C_10  and  C_13
REMARK    5  A    between atoms: C_17  and  O_18
REMARK    6  A    between atoms: O_18  and  C_19
REMARK                            x       y       z     vdW  Elec       q    Type
REMARK                         _______ _______ _______ _____ _____    ______ ____
ROOT
ATOM      1  C   UNL     1      45.634   5.561  12.926  0.00  0.00    +0.000 C 
ENDROOT
BRANCH   1   6
ATOM      2  C   UNL     1      48.518   4.271  16.967  0.00  0.00    +0.000 A 
ATOM      3  C   UNL     1      47.377   3.686  16.429  0.00  0.00    +0.000 A 
ATOM      4  C   UNL     1      46.768   4.282  15.326  0.00  0.00    +0.000 A 
ATOM      5  C   UNL     1      47.297   5.449  14.781  0.00  0.00    +0.000 A 
ATOM      6  N   UNL     1      46.757   6.081  13.696  0.00  0.00    +0.000 N 
ATOM      7  N   UNL     1      48.390   6.033  15.310  0.00  0.00    +0.000 NA
ATOM      8  C   UNL     1      48.971   5.445  16.390  0.00  0.00    +0.000 A 
ATOM      9  H   UNL     1      47.244   6.918  13.395  0.00  0.00    +0.000 HD
BRANCH   2  11
ATOM     10  N   UNL     1      48.515   3.495  19.264  0.00  0.00    +0.000 N 
ATOM     11  C   UNL     1      49.239   3.699  18.120  0.00  0.00    +0.000 C 
ATOM     12  O   UNL     1      50.419   3.388  18.050  0.00  0.00    +0.000 OA
ATOM     13  H   UNL     1      48.990   3.003  20.012  0.00  0.00    +0.000 HD
ATOM     14  H   UNL     1      47.506   3.502  19.282  0.00  0.00    +0.000 HD
ENDBRANCH   2  11
ENDBRANCH   1   6
BRANCH   1  15
ATOM     15  C   UNL     1      45.626   5.979  11.434  0.00  0.00    +0.000 C 
ATOM     16  F   UNL     1      44.723   6.987  11.261  0.00  0.00    +0.000 F 
ATOM     17  F   UNL     1      46.840   6.518  11.119  0.00  0.00    +0.000 F 
BRANCH  15  18
ATOM     18  C   UNL     1      45.300   4.761  10.592  0.00  0.00    +0.000 A 
ATOM     19  C   UNL     1      44.525   3.713  11.109  0.00  0.00    +0.000 A 
ATOM     20  C   UNL     1      44.138   2.653  10.286  0.00  0.00    +0.000 A 
ATOM     21  C   UNL     1      44.525   2.620   8.942  0.00  0.00    +0.000 A 
ATOM     22  C   UNL     1      45.313   3.646   8.427  0.00  0.00    +0.000 A 
ATOM     23  C   UNL     1      45.694   4.710   9.246  0.00  0.00    +0.000 A 
BRANCH  22  24
ATOM     24  O   UNL     1      45.724   3.748   7.124  0.00  0.00    +0.000 OA
BRANCH  24  25
ATOM     25  C   UNL     1      47.082   3.394   6.784  0.00  0.00    +0.000 C 
ATOM     26  C   UNL     1      47.361   2.848   5.376  0.00  0.00    +0.000 C 
ATOM     27  O   UNL     1      47.902   1.614   5.902  0.00  0.00    +0.000 OA
ATOM     28  C   UNL     1      47.518   1.995   7.243  0.00  0.00    +0.000 C 
ENDBRANCH  24  25
ENDBRANCH  22  24
ENDBRANCH  15  18
ENDBRANCH   1  15
TORSDOF 6
ENDMDL
MODEL 5
REMARK VINA RESULT:    -6.786      3.122      7.562
REMARK INTER + INTRA:         -10.165
REMARK INTER:                  -9.259
REMARK INTRA:                  -0.906
REMARK UNBOUND:                -0.999
REMARK  Name = 
REMARK  6 active torsions:
REMARK  status: ('A' for Active; 'I' for Inactive)
REMARK    1  A    between atoms: C_2  and  C_4
REMARK    2  A    between atoms: N_8  and  C_9
REMARK    3  A    between atoms: C_9  and  C_10
REMARK    4  A    between atoms: C_10  and  C_13
REMARK    5  A    between atoms: C_17  and  O_18
REMARK    6  A    between atoms: O_18  and  C_19
REMARK                            x       y       z     vdW  Elec       q    Type
REMARK                         _______ _______ _______ _____ _____    ______ ____
ROOT
ATOM      1  C   UNL     1      47.120   6.455  12.026  0.00  0.00    +0.000 C 
ENDROOT
BRANCH   1   6
ATOM      2  C   UNL     1      48.024   4.422  16.647  0.00  0.00    +0.000 A 
ATOM      3  C   UNL     1      47.226   3.989  15.595  0.00  0.00    +0.000 A 
ATOM      4  C   UNL     1      47.138   4.774  14.446  0.00  0.00    +0.000 A 
ATOM      5  C   UNL     1      47.837   5.977  14.367  0.00  0.00    +0.000 A 
ATOM      6  N   UNL     1      47.803   6.791  13.269  0.00  0.00    +0.000 N 
ATOM      7  N   UNL     1      48.595   6.413  15.391  0.00  0.00    +0.000 NA
ATOM      8  C   UNL     1      48.667   5.640  16.509  0.00  0.00    +0.000 A 
ATOM      9  H   UNL     1      48.363   7.633  13.338  0.00  0.00    +0.000 HD
BRANCH   2  11
ATOM     10  N   UNL     1      47.241   2.699  18.164  0.00  0.00    +0.000 N 
ATOM     11  C   UNL     1      48.191   3.647  17.891  0.00  0.00    +0.000 C 
ATOM     12  O   UNL     1      49.152   3.814  18.629  0.00  0.00    +0.000 OA
ATOM     13  H   UNL     1      47.423   2.099  18.961  0.00  0.00    +0.000 HD
ATOM     14  H   UNL     1      46.588   2.364  17.471  0.00  0.00    +0.000 HD
ENDBRANCH   2  11
ENDBRANCH   1   6
BRANCH   1  15
ATOM     15  C   UNL     1      45.601   6.761  12.022  0.00  0.00    +0.000 C 
ATOM     16  F   UNL     1      45.298   7.516  13.117  0.00  0.00    +0.000 F 
ATOM     17  F   UNL     1      45.311   7.548  10.944  0.00  0.00    +0.000 F 
BRANCH  15  18
ATOM     18  C   UNL     1      44.842   5.448  11.998  0.00  0.00    +0.000 A 
ATOM     19  C   UNL     1      43.890   5.148  12.982  0.00  0.00    +0.000 A 
ATOM     20  C   UNL     1      43.119   3.988  12.883  0.00  0.00    +0.000 A 
ATOM     21  C   UNL     1      43.293   3.110  11.808  0.00  0.00    +0.000 A 
ATOM     22  C   UNL     1      44.253   3.391  10.837  0.00  0.00    +0.000 A 
ATOM     23  C   UNL     1      45.018   4.553  10.931  0.00  0.00    +0.000 A 
BRANCH  22  24
ATOM     24  O   UNL     1      44.492   2.633   9.721  0.00  0.00    +0.000 OA
BRANCH  24  25
ATOM     25  C   UNL     1      45.671   2.896   8.930  0.00  0.00    +0.000 C 
ATOM     26  C   UNL     1      45.489   3.497   7.530  0.00  0.00    +0.000 C 
ATOM     27  O   UNL     1      46.159   2.380   6.902  0.00  0.00    +0.000 OA
ATOM     28  C   UNL     1      46.221   1.682   8.167  0.00  0.00    +0.000 C 
ENDBRANCH  24  25
ENDBRANCH  22  24
ENDBRANCH  15  18
ENDBRANCH   1  15
TORSDOF 6
ENDMDL
MODEL 6
REMARK VINA RESULT:    -6.647      3.307      4.787
REMARK INTER + INTRA:          -9.977
REMARK INTER:                  -9.026
REMARK INTRA:                  -0.952
REMARK UNBOUND:                -0.999
REMARK  Name = 
REMARK  6 active torsions:
REMARK  status: ('A' for Active; 'I' for Inactive)
REMARK    1  A    between atoms: C_2  and  C_4
REMARK    2  A    between atoms: N_8  and  C_9
REMARK    3  A    between atoms: C_9  and  C_10
REMARK    4  A    between atoms: C_10  and  C_13
REMARK    5  A    between atoms: C_17  and  O_18
REMARK    6  A    between atoms: O_18  and  C_19
REMARK                            x       y       z     vdW  Elec       q    Type
REMARK                         _______ _______ _______ _____ _____    ______ ____
ROOT
ATOM      1  C   UNL     1      46.701   8.672  12.465  0.00  0.00    +0.000 C 
ENDROOT
BRANCH   1   6
ATOM      2  C   UNL     1      44.430   4.178  11.485  0.00  0.00    +0.000 A 
ATOM      3  C   UNL     1      45.145   5.043  10.665  0.00  0.00    +0.000 A 
ATOM      4  C   UNL     1      45.629   6.236  11.199  0.00  0.00    +0.000 A 
ATOM      5  C   UNL     1      45.387   6.553  12.534  0.00  0.00    +0.000 A 
ATOM      6  N   UNL     1      45.838   7.700  13.125  0.00  0.00    +0.000 N 
ATOM      7  N   UNL     1      44.676   5.730  13.329  0.00  0.00    +0.000 NA
ATOM      8  C   UNL     1      44.205   4.571  12.794  0.00  0.00    +0.000 A 
ATOM      9  H   UNL     1      45.599   7.805  14.105  0.00  0.00    +0.000 HD
BRANCH   2  11
ATOM     10  N   UNL     1      44.586   2.267  10.001  0.00  0.00    +0.000 N 
ATOM     11  C   UNL     1      43.899   2.886  11.011  0.00  0.00    +0.000 C 
ATOM     12  O   UNL     1      42.912   2.372  11.517  0.00  0.00    +0.000 OA
ATOM     13  H   UNL     1      44.277   1.332   9.757  0.00  0.00    +0.000 HD
ATOM     14  H   UNL     1      45.524   2.529   9.736  0.00  0.00    +0.000 HD
ENDBRANCH   2  11
ENDBRANCH   1   6
BRANCH   1  15
ATOM     15  C   UNL     1      48.217   8.440  12.680  0.00  0.00    +0.000 C 
ATOM     16  F   UNL     1      48.623   7.402  11.893  0.00  0.00    +0.000 F 
ATOM     17  F   UNL     1      48.901   9.531  12.226  0.00  0.00    +0.000 F 
BRANCH  15  18
ATOM     18  C   UNL     1      48.462   8.177  14.153  0.00  0.00    +0.000 A 
ATOM     19  C   UNL     1      48.342   9.206  15.098  0.00  0.00    +0.000 A 
ATOM     20  C   UNL     1      48.459   8.925  16.462  0.00  0.00    +0.000 A 
ATOM     21  C   UNL     1      48.703   7.618  16.898  0.00  0.00    +0.000 A 
ATOM     22  C   UNL     1      48.844   6.595  15.964  0.00  0.00    +0.000 A 
ATOM     23  C   UNL     1      48.722   6.873  14.602  0.00  0.00    +0.000 A 
BRANCH  22  24
ATOM     24  O   UNL     1      49.047   5.273  16.265  0.00  0.00    +0.000 OA
BRANCH  24  25
ATOM     25  C   UNL     1      47.919   4.371  16.272  0.00  0.00    +0.000 C 
ATOM     26  C   UNL     1      47.088   4.257  17.557  0.00  0.00    +0.000 C 
ATOM     27  O   UNL     1      47.344   2.838  17.664  0.00  0.00    +0.000 OA
ATOM     28  C   UNL     1      48.270   2.903  16.555  0.00  0.00    +0.000 C 
ENDBRANCH  24  25
ENDBRANCH  22  24
ENDBRANCH  15  18
ENDBRANCH   1  15
TORSDOF 6
ENDMDL
MODEL 7
REMARK VINA RESULT:    -6.534      3.464      7.687
REMARK INTER + INTRA:          -9.826
REMARK INTER:                  -9.393
REMARK INTRA:                  -0.432
REMARK UNBOUND:                -0.999
REMARK  Name = 
REMARK  6 active torsions:
REMARK  status: ('A' for Active; 'I' for Inactive)
REMARK    1  A    between atoms: C_2  and  C_4
REMARK    2  A    between atoms: N_8  and  C_9
REMARK    3  A    between atoms: C_9  and  C_10
REMARK    4  A    between atoms: C_10  and  C_13
REMARK    5  A    between atoms: C_17  and  O_18
REMARK    6  A    between atoms: O_18  and  C_19
REMARK                            x       y       z     vdW  Elec       q    Type
REMARK                         _______ _______ _______ _____ _____    ______ ____
ROOT
ATOM      1  C   UNL     1      45.133   5.451  12.642  0.00  0.00    +0.000 C 
ENDROOT
BRANCH   1   6
ATOM      2  C   UNL     1      48.990   8.612  13.842  0.00  0.00    +0.000 A 
ATOM      3  C   UNL     1      47.627   8.841  13.696  0.00  0.00    +0.000 A 
ATOM      4  C   UNL     1      46.800   7.784  13.322  0.00  0.00    +0.000 A 
ATOM      5  C   UNL     1      47.341   6.521  13.093  0.00  0.00    +0.000 A 
ATOM      6  N   UNL     1      46.588   5.438  12.733  0.00  0.00    +0.000 N 
ATOM      7  N   UNL     1      48.664   6.296  13.212  0.00  0.00    +0.000 NA
ATOM      8  C   UNL     1      49.461   7.338  13.572  0.00  0.00    +0.000 A 
ATOM      9  H   UNL     1      47.105   4.575  12.604  0.00  0.00    +0.000 HD
BRANCH   2  11
ATOM     10  N   UNL     1      49.407  10.767  14.872  0.00  0.00    +0.000 N 
ATOM     11  C   UNL     1      49.936   9.666  14.254  0.00  0.00    +0.000 C 
ATOM     12  O   UNL     1      51.142   9.550  14.085  0.00  0.00    +0.000 OA
ATOM     13  H   UNL     1      50.073  11.434  15.248  0.00  0.00    +0.000 HD
ATOM     14  H   UNL     1      48.470  10.786  15.248  0.00  0.00    +0.000 HD
ENDBRANCH   2  11
ENDBRANCH   1   6
BRANCH   1  15
ATOM     15  C   UNL     1      44.577   5.754  11.229  0.00  0.00    +0.000 C 
ATOM     16  F   UNL     1      43.287   6.182  11.342  0.00  0.00    +0.000 F 
ATOM     17  F   UNL     1      45.266   6.808  10.699  0.00  0.00    +0.000 F 
BRANCH  15  18
ATOM     18  C   UNL     1      44.698   4.502  10.382  0.00  0.00    +0.000 A 
ATOM     19  C   UNL     1      44.161   3.283  10.818  0.00  0.00    +0.000 A 
ATOM     20  C   UNL     1      44.179   2.166   9.979  0.00  0.00    +0.000 A 
ATOM     21  C   UNL     1      44.738   2.250   8.699  0.00  0.00    +0.000 A 
ATOM     22  C   UNL     1      45.293   3.452   8.267  0.00  0.00    +0.000 A 
ATOM     23  C   UNL     1      45.269   4.570   9.102  0.00  0.00    +0.000 A 
BRANCH  22  24
ATOM     24  O   UNL     1      45.835   3.672   7.028  0.00  0.00    +0.000 OA
BRANCH  24  25
ATOM     25  C   UNL     1      47.203   3.280   6.778  0.00  0.00    +0.000 C 
ATOM     26  C   UNL     1      47.562   2.736   5.389  0.00  0.00    +0.000 C 
ATOM     27  O   UNL     1      48.030   1.483   5.939  0.00  0.00    +0.000 OA
ATOM     28  C   UNL     1      47.567   1.866   7.254  0.00  0.00    +0.000 C 
ENDBRANCH  24  25
ENDBRANCH  22  24
ENDBRANCH  15  18
ENDBRANCH   1  15
TORSDOF 6
ENDMDL
MODEL 8
REMARK VINA RESULT:    -6.121      4.138      6.295
REMARK INTER + INTRA:          -9.267
REMARK INTER:                  -8.659
REMARK INTRA:                  -0.609
REMARK UNBOUND:                -0.999
REMARK  Name = 
REMARK  6 active torsions:
REMARK  status: ('A' for Active; 'I' for Inactive)
REMARK    1  A    between atoms: C_2  and  C_4
REMARK    2  A    between atoms: N_8  and  C_9
REMARK    3  A    between atoms: C_9  and  C_10
REMARK    4  A    between atoms: C_10  and  C_13
REMARK    5  A    between atoms: C_17  and  O_18
REMARK    6  A    between atoms: O_18  and  C_19
REMARK                            x       y       z     vdW  Elec       q    Type
REMARK                         _______ _______ _______ _____ _____    ______ ____
ROOT
ATOM      1  C   UNL     1      47.723   4.513  15.755  0.00  0.00    +0.000 C 
ENDROOT
BRANCH   1   6
ATOM      2  C   UNL     1      44.553   4.706  11.727  0.00  0.00    +0.000 A 
ATOM      3  C   UNL     1      44.949   5.684  12.631  0.00  0.00    +0.000 A 
ATOM      4  C   UNL     1      45.810   5.336  13.670  0.00  0.00    +0.000 A 
ATOM      5  C   UNL     1      46.257   4.023  13.797  0.00  0.00    +0.000 A 
ATOM      6  N   UNL     1      47.108   3.614  14.785  0.00  0.00    +0.000 N 
ATOM      7  N   UNL     1      45.861   3.065  12.937  0.00  0.00    +0.000 NA
ATOM      8  C   UNL     1      45.015   3.417  11.931  0.00  0.00    +0.000 A 
ATOM      9  H   UNL     1      47.362   2.633  14.760  0.00  0.00    +0.000 HD
BRANCH   2  11
ATOM     10  N   UNL     1      44.012   4.451   9.377  0.00  0.00    +0.000 N 
ATOM     11  C   UNL     1      43.661   4.988  10.586  0.00  0.00    +0.000 C 
ATOM     12  O   UNL     1      42.636   5.641  10.718  0.00  0.00    +0.000 OA
ATOM     13  H   UNL     1      43.338   4.559   8.626  0.00  0.00    +0.000 HD
ATOM     14  H   UNL     1      44.696   3.715   9.283  0.00  0.00    +0.000 HD
ENDBRANCH   2  11
ENDBRANCH   1   6
BRANCH   1  15
ATOM     15  C   UNL     1      47.803   3.949  17.196  0.00  0.00    +0.000 C 
ATOM     16  F   UNL     1      47.449   4.930  18.075  0.00  0.00    +0.000 F 
ATOM     17  F   UNL     1      46.860   2.971  17.342  0.00  0.00    +0.000 F 
BRANCH  15  18
ATOM     18  C   UNL     1      49.209   3.436  17.438  0.00  0.00    +0.000 A 
ATOM     19  C   UNL     1      49.594   2.159  17.007  0.00  0.00    +0.000 A 
ATOM     20  C   UNL     1      50.922   1.745  17.135  0.00  0.00    +0.000 A 
ATOM     21  C   UNL     1      51.879   2.595  17.700  0.00  0.00    +0.000 A 
ATOM     22  C   UNL     1      51.499   3.858  18.151  0.00  0.00    +0.000 A 
ATOM     23  C   UNL     1      50.174   4.275  18.017  0.00  0.00    +0.000 A 
BRANCH  22  24
ATOM     24  O   UNL     1      52.345   4.793  18.686  0.00  0.00    +0.000 OA
BRANCH  24  25
ATOM     25  C   UNL     1      52.853   5.849  17.842  0.00  0.00    +0.000 C 
ATOM     26  C   UNL     1      54.066   5.549  16.951  0.00  0.00    +0.000 C 
ATOM     27  O   UNL     1      54.846   6.602  17.562  0.00  0.00    +0.000 OA
ATOM     28  C   UNL     1      53.806   6.831  18.539  0.00  0.00    +0.000 C 
ENDBRANCH  24  25
ENDBRANCH  22  24
ENDBRANCH  15  18
ENDBRANCH   1  15
TORSDOF 6
ENDMDL
