MODEL 1
REMARK VINA RESULT:    -7.889      0.000      0.000
REMARK INTER + INTRA:         -10.104
REMARK INTER:                  -9.964
REMARK INTRA:                  -0.140
REMARK UNBOUND:                -0.140
REMARK  Name = 
REMARK  5 active torsions:
REMARK  status: ('A' for Active; 'I' for Inactive)
REMARK    1  A    between atoms: N_1  and  C_2
REMARK    2  A    between atoms: C_2  and  C_3
REMARK    3  A    between atoms: C_5  and  C_6
REMARK    4  A    between atoms: C_6  and  N_7
REMARK    5  A    between atoms: C_12  and  C_13
REMARK                            x       y       z     vdW  Elec       q    Type
REMARK                         _______ _______ _______ _____ _____    ______ ____
ROOT
ATOM      1  N   UNL     1      44.180   4.369  10.354  0.00  0.00    +0.000 N 
ATOM      2  C   UNL     1      43.615   3.267  10.952  0.00  0.00    +0.000 A 
ATOM      3  C   UNL     1      44.152   2.143  10.363  0.00  0.00    +0.000 A 
ATOM      4  C   UNL     1      45.038   2.577   9.343  0.00  0.00    +0.000 A 
ATOM      5  C   UNL     1      45.851   1.928   8.398  0.00  0.00    +0.000 A 
ATOM      6  C   UNL     1      46.566   2.721   7.498  0.00  0.00    +0.000 A 
ATOM      7  C   UNL     1      46.470   4.107   7.616  0.00  0.00    +0.000 A 
ATOM      8  N   UNL     1      45.724   4.783   8.533  0.00  0.00    +0.000 NA
ATOM      9  C   UNL     1      45.030   3.969   9.352  0.00  0.00    +0.000 A 
ENDROOT
BRANCH   6  10
ATOM     10  C   UNL     1      47.408   2.162   6.411  0.00  0.00    +0.000 C 
ATOM     11  N   UNL     1      47.753   2.975   5.365  0.00  0.00    +0.000 N 
ATOM     12  O   UNL     1      47.806   1.005   6.442  0.00  0.00    +0.000 OA
ATOM     13  H   UNL     1      47.508   3.950   5.272  0.00  0.00    +0.000 HD
ATOM     14  H   UNL     1      48.360   2.579   4.657  0.00  0.00    +0.000 HD
ENDBRANCH   6  10
BRANCH   1  15
ATOM     15  C   UNL     1      43.965   5.739  10.784  0.00  0.00    +0.000 C 
BRANCH  15  18
ATOM     16  C   UNL     1      46.261   5.594  13.731  0.00  0.00    +0.000 C 
ATOM     17  C   UNL     1      44.992   5.150  13.021  0.00  0.00    +0.000 C 
ATOM     18  C   UNL     1      44.883   6.182  11.915  0.00  0.00    +0.000 C 
ATOM     19  C   UNL     1      46.342   6.348  11.520  0.00  0.00    +0.000 C 
ATOM     20  O   UNL     1      47.123   6.146  12.713  0.00  0.00    +0.000 OA
BRANCH  16  21
ATOM     21  C   UNL     1      46.980   4.489  14.519  0.00  0.00    +0.000 C 
BRANCH  21  22
ATOM     22  N   UNL     1      47.079   3.226  13.780  0.00  0.00    +0.000 NA
ATOM     23  H   UNL     1      46.206   2.710  13.876  0.00  0.00    +0.000 HD
ATOM     24  H   UNL     1      47.798   2.660  14.235  0.00  0.00    +0.000 HD
ENDBRANCH  21  22
ENDBRANCH  16  21
ENDBRANCH  15  18
ENDBRANCH   1  15
TORSDOF 5
ENDMDL
MODEL 2
REMARK VINA RESULT:    -7.580      1.470      1.669
REMARK INTER + INTRA:          -9.714
REMARK INTER:                  -9.230
REMARK INTRA:                  -0.483
REMARK UNBOUND:                -0.140
REMARK  Name = 
REMARK  5 active torsions:
REMARK  status: ('A' for Active; 'I' for Inactive)
REMARK    1  A    between atoms: N_1  and  C_2
REMARK    2  A    between atoms: C_2  and  C_3
REMARK    3  A    between atoms: C_5  and  C_6
REMARK    4  A    between atoms: C_6  and  N_7
REMARK    5  A    between atoms: C_12  and  C_13
REMARK                            x       y       z     vdW  Elec       q    Type
REMARK                         _______ _______ _______ _____ _____    ______ ____
ROOT
ATOM      1  N   UNL     1      44.247   4.678  10.338  0.00  0.00    +0.000 N 
ATOM      2  C   UNL     1      43.605   3.692  11.048  0.00  0.00    +0.000 A 
ATOM      3  C   UNL     1      44.042   2.474  10.574  0.00  0.00    +0.000 A 
ATOM      4  C   UNL     1      44.945   2.729   9.510  0.00  0.00    +0.000 A 
ATOM      5  C   UNL     1      45.691   1.925   8.632  0.00  0.00    +0.000 A 
ATOM      6  C   UNL     1      46.454   2.562   7.651  0.00  0.00    +0.000 A 
ATOM      7  C   UNL     1      46.469   3.957   7.628  0.00  0.00    +0.000 A 
ATOM      8  N   UNL     1      45.793   4.780   8.475  0.00  0.00    +0.000 NA
ATOM      9  C   UNL     1      45.048   4.112   9.377  0.00  0.00    +0.000 A 
ENDROOT
BRANCH   6  10
ATOM     10  C   UNL     1      47.233   1.830   6.622  0.00  0.00    +0.000 C 
ATOM     11  N   UNL     1      48.061   2.543   5.797  0.00  0.00    +0.000 N 
ATOM     12  O   UNL     1      47.159   0.614   6.511  0.00  0.00    +0.000 OA
ATOM     13  H   UNL     1      48.219   3.539   5.840  0.00  0.00    +0.000 HD
ATOM     14  H   UNL     1      48.611   2.013   5.130  0.00  0.00    +0.000 HD
ENDBRANCH   6  10
BRANCH   1  15
ATOM     15  C   UNL     1      44.147   6.098  10.627  0.00  0.00    +0.000 C 
BRANCH  15  18
ATOM     16  C   UNL     1      47.002   7.192  12.779  0.00  0.00    +0.000 C 
ATOM     17  C   UNL     1      46.428   6.277  11.708  0.00  0.00    +0.000 C 
ATOM     18  C   UNL     1      44.941   6.535  11.851  0.00  0.00    +0.000 C 
ATOM     19  C   UNL     1      44.923   8.032  12.117  0.00  0.00    +0.000 C 
ATOM     20  O   UNL     1      46.130   8.340  12.840  0.00  0.00    +0.000 OA
BRANCH  16  21
ATOM     21  C   UNL     1      48.459   7.620  12.550  0.00  0.00    +0.000 C 
BRANCH  21  22
ATOM     22  N   UNL     1      49.426   6.569  12.885  0.00  0.00    +0.000 NA
ATOM     23  H   UNL     1      50.219   6.983  13.370  0.00  0.00    +0.000 HD
ATOM     24  H   UNL     1      49.792   6.197  12.005  0.00  0.00    +0.000 HD
ENDBRANCH  21  22
ENDBRANCH  16  21
ENDBRANCH  15  18
ENDBRANCH   1  15
TORSDOF 5
ENDMDL
MODEL 3
REMARK VINA RESULT:    -7.400      1.757      6.073
REMARK INTER + INTRA:          -9.487
REMARK INTER:                  -9.514
REMARK INTRA:                   0.026
REMARK UNBOUND:                -0.140
REMARK  Name = 
REMARK  5 active torsions:
REMARK  status: ('A' for Active; 'I' for Inactive)
REMARK    1  A    between atoms: N_1  and  C_2
REMARK    2  A    between atoms: C_2  and  C_3
REMARK    3  A    between atoms: C_5  and  C_6
REMARK    4  A    between atoms: C_6  and  N_7
REMARK    5  A    between atoms: C_12  and  C_13
REMARK                            x       y       z     vdW  Elec       q    Type
REMARK                         _______ _______ _______ _____ _____    ______ ____
ROOT
ATOM      1  N   UNL     1      44.437   4.211  10.504  0.00  0.00    +0.000 N 
ATOM      2  C   UNL     1      43.726   3.381  11.339  0.00  0.00    +0.000 A 
ATOM      3  C   UNL     1      44.111   3.652  12.634  0.00  0.00    +0.000 A 
ATOM      4  C   UNL     1      45.122   4.645  12.581  0.00  0.00    +0.000 A 
ATOM      5  C   UNL     1      45.909   5.308  13.538  0.00  0.00    +0.000 A 
ATOM      6  C   UNL     1      46.865   6.218  13.081  0.00  0.00    +0.000 A 
ATOM      7  C   UNL     1      46.952   6.452  11.709  0.00  0.00    +0.000 A 
ATOM      8  N   UNL     1      46.193   5.862  10.745  0.00  0.00    +0.000 NA
ATOM      9  C   UNL     1      45.313   4.970  11.240  0.00  0.00    +0.000 A 
ENDROOT
BRANCH   6  10
ATOM     10  C   UNL     1      47.803   6.934  13.981  0.00  0.00    +0.000 C 
ATOM     11  N   UNL     1      47.487   8.203  14.383  0.00  0.00    +0.000 N 
ATOM     12  O   UNL     1      48.834   6.407  14.377  0.00  0.00    +0.000 OA
ATOM     13  H   UNL     1      46.642   8.703  14.143  0.00  0.00    +0.000 HD
ATOM     14  H   UNL     1      48.125   8.653  15.028  0.00  0.00    +0.000 HD
ENDBRANCH   6  10
BRANCH   1  15
ATOM     15  C   UNL     1      44.222   4.316   9.071  0.00  0.00    +0.000 C 
BRANCH  15  18
ATOM     16  C   UNL     1      46.533   2.014   7.244  0.00  0.00    +0.000 C 
ATOM     17  C   UNL     1      46.011   3.415   7.524  0.00  0.00    +0.000 C 
ATOM     18  C   UNL     1      44.731   3.117   8.282  0.00  0.00    +0.000 C 
ATOM     19  C   UNL     1      45.159   1.932   9.134  0.00  0.00    +0.000 C 
ATOM     20  O   UNL     1      46.136   1.201   8.368  0.00  0.00    +0.000 OA
BRANCH  16  21
ATOM     21  C   UNL     1      48.048   1.925   7.009  0.00  0.00    +0.000 C 
BRANCH  21  22
ATOM     22  N   UNL     1      48.479   2.594   5.777  0.00  0.00    +0.000 NA
ATOM     23  H   UNL     1      47.730   2.547   5.088  0.00  0.00    +0.000 HD
ATOM     24  H   UNL     1      49.257   2.054   5.391  0.00  0.00    +0.000 HD
ENDBRANCH  21  22
ENDBRANCH  16  21
ENDBRANCH  15  18
ENDBRANCH   1  15
TORSDOF 5
ENDMDL
MODEL 4
REMARK VINA RESULT:    -6.489      3.488      5.584
REMARK INTER + INTRA:          -8.337
REMARK INTER:                  -7.922
REMARK INTRA:                  -0.415
REMARK UNBOUND:                -0.140
REMARK  Name = 
REMARK  5 active torsions:
REMARK  status: ('A' for Active; 'I' for Inactive)
REMARK    1  A    between atoms: N_1  and  C_2
REMARK    2  A    between atoms: C_2  and  C_3
REMARK    3  A    between atoms: C_5  and  C_6
REMARK    4  A    between atoms: C_6  and  N_7
REMARK    5  A    between atoms: C_12  and  C_13
REMARK                            x       y       z     vdW  Elec       q    Type
REMARK                         _______ _______ _______ _____ _____    ______ ____
ROOT
ATOM      1  N   UNL     1      47.215   5.067  14.484  0.00  0.00    +0.000 N 
ATOM      2  C   UNL     1      47.615   6.354  14.213  0.00  0.00    +0.000 A 
ATOM      3  C   UNL     1      47.052   6.729  13.013  0.00  0.00    +0.000 A 
ATOM      4  C   UNL     1      46.323   5.618  12.517  0.00  0.00    +0.000 A 
ATOM      5  C   UNL     1      45.564   5.370  11.360  0.00  0.00    +0.000 A 
ATOM      6  C   UNL     1      45.021   4.093  11.197  0.00  0.00    +0.000 A 
ATOM      7  C   UNL     1      45.222   3.154  12.209  0.00  0.00    +0.000 A 
ATOM      8  N   UNL     1      45.919   3.355  13.361  0.00  0.00    +0.000 NA
ATOM      9  C   UNL     1      46.448   4.591  13.449  0.00  0.00    +0.000 A 
ENDROOT
BRANCH   6  10
ATOM     10  C   UNL     1      44.258   3.681   9.993  0.00  0.00    +0.000 C 
ATOM     11  N   UNL     1      44.110   4.580   8.971  0.00  0.00    +0.000 N 
ATOM     12  O   UNL     1      43.779   2.559   9.894  0.00  0.00    +0.000 OA
ATOM     13  H   UNL     1      44.503   5.509   8.944  0.00  0.00    +0.000 HD
ATOM     14  H   UNL     1      43.619   4.258   8.145  0.00  0.00    +0.000 HD
ENDBRANCH   6  10
BRANCH   1  15
ATOM     15  C   UNL     1      47.499   4.360  15.721  0.00  0.00    +0.000 C 
BRANCH  15  18
ATOM     16  C   UNL     1      48.648   5.582  19.063  0.00  0.00    +0.000 C 
ATOM     17  C   UNL     1      47.561   5.010  18.167  0.00  0.00    +0.000 C 
ATOM     18  C   UNL     1      48.156   5.226  16.788  0.00  0.00    +0.000 C 
ATOM     19  C   UNL     1      49.622   4.913  17.045  0.00  0.00    +0.000 C 
ATOM     20  O   UNL     1      49.902   5.315  18.399  0.00  0.00    +0.000 OA
BRANCH  16  21
ATOM     21  C   UNL     1      48.658   5.034  20.497  0.00  0.00    +0.000 C 
BRANCH  21  22
ATOM     22  N   UNL     1      48.313   3.611  20.571  0.00  0.00    +0.000 NA
ATOM     23  H   UNL     1      48.905   3.087  19.929  0.00  0.00    +0.000 HD
ATOM     24  H   UNL     1      47.356   3.508  20.225  0.00  0.00    +0.000 HD
ENDBRANCH  21  22
ENDBRANCH  16  21
ENDBRANCH  15  18
ENDBRANCH   1  15
TORSDOF 5
ENDMDL
MODEL 5
REMARK VINA RESULT:    -6.289      1.868      6.413
REMARK INTER + INTRA:          -8.083
REMARK INTER:                  -7.968
REMARK INTRA:                  -0.116
REMARK UNBOUND:                -0.140
REMARK  Name = 
REMARK  5 active torsions:
REMARK  status: ('A' for Active; 'I' for Inactive)
REMARK    1  A    between atoms: N_1  and  C_2
REMARK    2  A    between atoms: C_2  and  C_3
REMARK    3  A    between atoms: C_5  and  C_6
REMARK    4  A    between atoms: C_6  and  N_7
REMARK    5  A    between atoms: C_12  and  C_13
REMARK                            x       y       z     vdW  Elec       q    Type
REMARK                         _______ _______ _______ _____ _____    ______ ____
ROOT
ATOM      1  N   UNL     1      44.363   5.054  11.612  0.00  0.00    +0.000 N 
ATOM      2  C   UNL     1      43.765   6.216  11.188  0.00  0.00    +0.000 A 
ATOM      3  C   UNL     1      44.514   7.274  11.655  0.00  0.00    +0.000 A 
ATOM      4  C   UNL     1      45.576   6.738  12.427  0.00  0.00    +0.000 A 
ATOM      5  C   UNL     1      46.639   7.288  13.164  0.00  0.00    +0.000 A 
ATOM      6  C   UNL     1      47.479   6.410  13.853  0.00  0.00    +0.000 A 
ATOM      7  C   UNL     1      47.245   5.040  13.733  0.00  0.00    +0.000 A 
ATOM      8  N   UNL     1      46.253   4.456  13.006  0.00  0.00    +0.000 NA
ATOM      9  C   UNL     1      45.454   5.350  12.392  0.00  0.00    +0.000 A 
ENDROOT
BRANCH   6  10
ATOM     10  C   UNL     1      48.594   6.862  14.721  0.00  0.00    +0.000 C 
ATOM     11  N   UNL     1      48.333   7.135  16.037  0.00  0.00    +0.000 N 
ATOM     12  O   UNL     1      49.733   6.979  14.288  0.00  0.00    +0.000 OA
ATOM     13  H   UNL     1      47.438   7.029  16.492  0.00  0.00    +0.000 HD
ATOM     14  H   UNL     1      49.120   7.404  16.615  0.00  0.00    +0.000 HD
ENDBRANCH   6  10
BRANCH   1  15
ATOM     15  C   UNL     1      43.943   3.721  11.218  0.00  0.00    +0.000 C 
BRANCH  15  18
ATOM     16  C   UNL     1      45.469   3.578   7.808  0.00  0.00    +0.000 C 
ATOM     17  C   UNL     1      45.137   4.349   9.076  0.00  0.00    +0.000 C 
ATOM     18  C   UNL     1      44.124   3.431   9.734  0.00  0.00    +0.000 C 
ATOM     19  C   UNL     1      44.713   2.065   9.422  0.00  0.00    +0.000 C 
ATOM     20  O   UNL     1      45.376   2.179   8.148  0.00  0.00    +0.000 OA
BRANCH  16  21
ATOM     21  C   UNL     1      46.839   3.904   7.195  0.00  0.00    +0.000 C 
BRANCH  21  22
ATOM     22  N   UNL     1      47.081   3.209   5.927  0.00  0.00    +0.000 NA
ATOM     23  H   UNL     1      47.835   2.536   6.050  0.00  0.00    +0.000 HD
ATOM     24  H   UNL     1      47.424   3.902   5.257  0.00  0.00    +0.000 HD
ENDBRANCH  21  22
ENDBRANCH  16  21
ENDBRANCH  15  18
ENDBRANCH   1  15
TORSDOF 5
ENDMDL
MODEL 6
REMARK VINA RESULT:    -5.996      3.841      5.836
REMARK INTER + INTRA:          -7.713
REMARK INTER:                  -7.277
REMARK INTRA:                  -0.436
REMARK UNBOUND:                -0.140
REMARK  Name = 
REMARK  5 active torsions:
REMARK  status: ('A' for Active; 'I' for Inactive)
REMARK    1  A    between atoms: N_1  and  C_2
REMARK    2  A    between atoms: C_2  and  C_3
REMARK    3  A    between atoms: C_5  and  C_6
REMARK    4  A    between atoms: C_6  and  N_7
REMARK    5  A    between atoms: C_12  and  C_13
REMARK                            x       y       z     vdW  Elec       q    Type
REMARK                         _______ _______ _______ _____ _____    ______ ____
ROOT
ATOM      1  N   UNL     1      47.812   7.329  13.785  0.00  0.00    +0.000 N 
ATOM      2  C   UNL     1      47.541   8.677  13.775  0.00  0.00    +0.000 A 
ATOM      3  C   UNL     1      46.334   8.862  13.138  0.00  0.00    +0.000 A 
ATOM      4  C   UNL     1      45.879   7.590  12.706  0.00  0.00    +0.000 A 
ATOM      5  C   UNL     1      44.754   7.130  12.000  0.00  0.00    +0.000 A 
ATOM      6  C   UNL     1      44.678   5.765  11.711  0.00  0.00    +0.000 A 
ATOM      7  C   UNL     1      45.695   4.932  12.180  0.00  0.00    +0.000 A 
ATOM      8  N   UNL     1      46.785   5.323  12.895  0.00  0.00    +0.000 NA
ATOM      9  C   UNL     1      46.824   6.652  13.114  0.00  0.00    +0.000 A 
ENDROOT
BRANCH   6  10
ATOM     10  C   UNL     1      43.580   5.161  10.917  0.00  0.00    +0.000 C 
ATOM     11  N   UNL     1      43.828   4.809   9.617  0.00  0.00    +0.000 N 
ATOM     12  O   UNL     1      42.476   4.959  11.404  0.00  0.00    +0.000 OA
ATOM     13  H   UNL     1      44.716   4.898   9.143  0.00  0.00    +0.000 HD
ATOM     14  H   UNL     1      43.073   4.363   9.110  0.00  0.00    +0.000 HD
ENDBRANCH   6  10
BRANCH   1  15
ATOM     15  C   UNL     1      48.935   6.721  14.476  0.00  0.00    +0.000 C 
BRANCH  15  18
ATOM     16  C   UNL     1      48.177   4.869  17.635  0.00  0.00    +0.000 C 
ATOM     17  C   UNL     1      47.893   5.153  16.168  0.00  0.00    +0.000 C 
ATOM     18  C   UNL     1      48.671   6.436  15.949  0.00  0.00    +0.000 C 
ATOM     19  C   UNL     1      49.918   6.173  16.778  0.00  0.00    +0.000 C 
ATOM     20  O   UNL     1      49.513   5.351  17.889  0.00  0.00    +0.000 OA
BRANCH  16  21
ATOM     21  C   UNL     1      48.036   3.396  18.046  0.00  0.00    +0.000 C 
BRANCH  21  22
ATOM     22  N   UNL     1      46.731   2.825  17.699  0.00  0.00    +0.000 NA
ATOM     23  H   UNL     1      46.813   1.812  17.634  0.00  0.00    +0.000 HD
ATOM     24  H   UNL     1      46.492   3.153  16.760  0.00  0.00    +0.000 HD
ENDBRANCH  21  22
ENDBRANCH  16  21
ENDBRANCH  15  18
ENDBRANCH   1  15
TORSDOF 5
ENDMDL
MODEL 7
REMARK VINA RESULT:    -5.948      4.329      8.348
REMARK INTER + INTRA:          -7.653
REMARK INTER:                  -7.322
REMARK INTRA:                  -0.331
REMARK UNBOUND:                -0.140
REMARK  Name = 
REMARK  5 active torsions:
REMARK  status: ('A' for Active; 'I' for Inactive)
REMARK    1  A    between atoms: N_1  and  C_2
REMARK    2  A    between atoms: C_2  and  C_3
REMARK    3  A    between atoms: C_5  and  C_6
REMARK    4  A    between atoms: C_6  and  N_7
REMARK    5  A    between atoms: C_12  and  C_13
REMARK                            x       y       z     vdW  Elec       q    Type
REMARK                         _______ _______ _______ _____ _____    ______ ____
ROOT
ATOM      1  N   UNL     1      47.854   6.202  14.286  0.00  0.00    +0.000 N 
ATOM      2  C   UNL     1      48.276   7.510  14.260  0.00  0.00    +0.000 A 
ATOM      3  C   UNL     1      48.945   7.763  15.438  0.00  0.00    +0.000 A 
ATOM      4  C   UNL     1      48.888   6.584  16.224  0.00  0.00    +0.000 A 
ATOM      5  C   UNL     1      49.353   6.222  17.500  0.00  0.00    +0.000 A 
ATOM      6  C   UNL     1      49.051   4.941  17.966  0.00  0.00    +0.000 A 
ATOM      7  C   UNL     1      48.348   4.079  17.124  0.00  0.00    +0.000 A 
ATOM      8  N   UNL     1      47.905   4.369  15.870  0.00  0.00    +0.000 NA
ATOM      9  C   UNL     1      48.194   5.627  15.486  0.00  0.00    +0.000 A 
ENDROOT
BRANCH   6  10
ATOM     10  C   UNL     1      49.424   4.458  19.319  0.00  0.00    +0.000 C 
ATOM     11  N   UNL     1      48.553   3.639  19.986  0.00  0.00    +0.000 N 
ATOM     12  O   UNL     1      50.491   4.763  19.834  0.00  0.00    +0.000 OA
ATOM     13  H   UNL     1      47.672   3.301  19.627  0.00  0.00    +0.000 HD
ATOM     14  H   UNL     1      48.850   3.292  20.890  0.00  0.00    +0.000 HD
ENDBRANCH   6  10
BRANCH   1  15
ATOM     15  C   UNL     1      47.221   5.520  13.171  0.00  0.00    +0.000 C 
BRANCH  15  18
ATOM     16  C   UNL     1      43.514   5.185  12.815  0.00  0.00    +0.000 C 
ATOM     17  C   UNL     1      44.770   6.043  12.816  0.00  0.00    +0.000 C 
ATOM     18  C   UNL     1      45.781   5.101  13.441  0.00  0.00    +0.000 C 
ATOM     19  C   UNL     1      45.379   3.775  12.818  0.00  0.00    +0.000 C 
ATOM     20  O   UNL     1      43.953   3.824  12.619  0.00  0.00    +0.000 OA
BRANCH  16  21
ATOM     21  C   UNL     1      42.463   5.580  11.767  0.00  0.00    +0.000 C 
BRANCH  21  22
ATOM     22  N   UNL     1      42.669   6.927  11.226  0.00  0.00    +0.000 NA
ATOM     23  H   UNL     1      41.880   7.518  11.483  0.00  0.00    +0.000 HD
ATOM     24  H   UNL     1      42.651   6.854  10.206  0.00  0.00    +0.000 HD
ENDBRANCH  21  22
ENDBRANCH  16  21
ENDBRANCH  15  18
ENDBRANCH   1  15
TORSDOF 5
ENDMDL
MODEL 8
REMARK VINA RESULT:    -5.904      3.736      5.401
REMARK INTER + INTRA:          -7.597
REMARK INTER:                  -7.149
REMARK INTRA:                  -0.449
REMARK UNBOUND:                -0.140
REMARK  Name = 
REMARK  5 active torsions:
REMARK  status: ('A' for Active; 'I' for Inactive)
REMARK    1  A    between atoms: N_1  and  C_2
REMARK    2  A    between atoms: C_2  and  C_3
REMARK    3  A    between atoms: C_5  and  C_6
REMARK    4  A    between atoms: C_6  and  N_7
REMARK    5  A    between atoms: C_12  and  C_13
REMARK                            x       y       z     vdW  Elec       q    Type
REMARK                         _______ _______ _______ _____ _____    ______ ____
ROOT
ATOM      1  N   UNL     1      47.269   7.003  12.694  0.00  0.00    +0.000 N 
ATOM      2  C   UNL     1      47.676   6.568  13.933  0.00  0.00    +0.000 A 
ATOM      3  C   UNL     1      47.169   5.301  14.124  0.00  0.00    +0.000 A 
ATOM      4  C   UNL     1      46.392   4.974  12.984  0.00  0.00    +0.000 A 
ATOM      5  C   UNL     1      45.622   3.864  12.596  0.00  0.00    +0.000 A 
ATOM      6  C   UNL     1      44.940   3.935  11.379  0.00  0.00    +0.000 A 
ATOM      7  C   UNL     1      45.098   5.081  10.598  0.00  0.00    +0.000 A 
ATOM      8  N   UNL     1      45.857   6.166  10.912  0.00  0.00    +0.000 NA
ATOM      9  C   UNL     1      46.463   6.057  12.110  0.00  0.00    +0.000 A 
ENDROOT
BRANCH   6  10
ATOM     10  C   UNL     1      44.042   2.863  10.885  0.00  0.00    +0.000 C 
ATOM     11  N   UNL     1      44.444   2.111   9.814  0.00  0.00    +0.000 N 
ATOM     12  O   UNL     1      42.967   2.632  11.423  0.00  0.00    +0.000 OA
ATOM     13  H   UNL     1      45.328   2.200   9.333  0.00  0.00    +0.000 HD
ATOM     14  H   UNL     1      43.830   1.361   9.523  0.00  0.00    +0.000 HD
ENDBRANCH   6  10
BRANCH   1  15
ATOM     15  C   UNL     1      47.704   8.243  12.075  0.00  0.00    +0.000 C 
BRANCH  15  18
ATOM     16  C   UNL     1      51.356   8.174  11.275  0.00  0.00    +0.000 C 
ATOM     17  C   UNL     1      50.019   7.462  11.414  0.00  0.00    +0.000 C 
ATOM     18  C   UNL     1      49.204   8.490  12.175  0.00  0.00    +0.000 C 
ATOM     19  C   UNL     1      49.678   9.783  11.532  0.00  0.00    +0.000 C 
ATOM     20  O   UNL     1      51.055   9.581  11.160  0.00  0.00    +0.000 OA
BRANCH  16  21
ATOM     21  C   UNL     1      52.222   7.699  10.100  0.00  0.00    +0.000 C 
BRANCH  21  22
ATOM     22  N   UNL     1      52.861   6.402  10.345  0.00  0.00    +0.000 NA
ATOM     23  H   UNL     1      52.235   5.816  10.896  0.00  0.00    +0.000 HD
ATOM     24  H   UNL     1      53.683   6.570  10.929  0.00  0.00    +0.000 HD
ENDBRANCH  21  22
ENDBRANCH  16  21
ENDBRANCH  15  18
ENDBRANCH   1  15
TORSDOF 5
ENDMDL
MODEL 9
REMARK VINA RESULT:    -5.828      3.513      6.375
REMARK INTER + INTRA:          -7.502
REMARK INTER:                  -6.924
REMARK INTRA:                  -0.577
REMARK UNBOUND:                -0.140
REMARK  Name = 
REMARK  5 active torsions:
REMARK  status: ('A' for Active; 'I' for Inactive)
REMARK    1  A    between atoms: N_1  and  C_2
REMARK    2  A    between atoms: C_2  and  C_3
REMARK    3  A    between atoms: C_5  and  C_6
REMARK    4  A    between atoms: C_6  and  N_7
REMARK    5  A    between atoms: C_12  and  C_13
REMARK                            x       y       z     vdW  Elec       q    Type
REMARK                         _______ _______ _______ _____ _____    ______ ____
ROOT
ATOM      1  N   UNL     1      45.840   7.198  12.707  0.00  0.00    +0.000 N 
ATOM      2  C   UNL     1      45.125   8.358  12.521  0.00  0.00    +0.000 A 
ATOM      3  C   UNL     1      46.010   9.345  12.144  0.00  0.00    +0.000 A 
ATOM      4  C   UNL     1      47.310   8.778  12.145  0.00  0.00    +0.000 A 
ATOM      5  C   UNL     1      48.601   9.264  11.878  0.00  0.00    +0.000 A 
ATOM      6  C   UNL     1      49.675   8.386  12.038  0.00  0.00    +0.000 A 
ATOM      7  C   UNL     1      49.403   7.068  12.407  0.00  0.00    +0.000 A 
ATOM      8  N   UNL     1      48.171   6.541  12.645  0.00  0.00    +0.000 NA
ATOM      9  C   UNL     1      47.177   7.440  12.509  0.00  0.00    +0.000 A 
ENDROOT
BRANCH   6  10
ATOM     10  C   UNL     1      51.091   8.790  11.853  0.00  0.00    +0.000 C 
ATOM     11  N   UNL     1      52.052   7.815  11.824  0.00  0.00    +0.000 N 
ATOM     12  O   UNL     1      51.407   9.963  11.713  0.00  0.00    +0.000 OA
ATOM     13  H   UNL     1      51.884   6.822  11.889  0.00  0.00    +0.000 HD
ATOM     14  H   UNL     1      53.005   8.116  11.657  0.00  0.00    +0.000 HD
ENDBRANCH   6  10
BRANCH   1  15
ATOM     15  C   UNL     1      45.247   5.903  12.988  0.00  0.00    +0.000 C 
BRANCH  15  18
ATOM     16  C   UNL     1      43.957   4.178   9.932  0.00  0.00    +0.000 C 
ATOM     17  C   UNL     1      45.004   5.039  10.622  0.00  0.00    +0.000 C 
ATOM     18  C   UNL     1      44.292   5.415  11.907  0.00  0.00    +0.000 C 
ATOM     19  C   UNL     1      43.570   4.118  12.237  0.00  0.00    +0.000 C 
ATOM     20  O   UNL     1      43.239   3.494  10.981  0.00  0.00    +0.000 OA
BRANCH  16  21
ATOM     21  C   UNL     1      44.514   3.180   8.907  0.00  0.00    +0.000 C 
BRANCH  21  22
ATOM     22  N   UNL     1      45.246   2.069   9.525  0.00  0.00    +0.000 NA
ATOM     23  H   UNL     1      46.107   2.422   9.939  0.00  0.00    +0.000 HD
ATOM     24  H   UNL     1      45.529   1.433   8.776  0.00  0.00    +0.000 HD
ENDBRANCH  21  22
ENDBRANCH  16  21
ENDBRANCH  15  18
ENDBRANCH   1  15
TORSDOF 5
ENDMDL
