MODEL 1
REMARK VINA RESULT:    -7.611      0.000      0.000
REMARK INTER + INTRA:         -12.464
REMARK INTER:                 -11.171
REMARK INTRA:                  -1.293
REMARK UNBOUND:                -1.293
REMARK  Name = 
REMARK  8 active torsions:
REMARK  status: ('A' for Active; 'I' for Inactive)
REMARK    1  A    between atoms: C_2  and  C_3
REMARK    2  A    between atoms: C_3  and  N_4
REMARK    3  A    between atoms: C_5  and  C_7
REMARK    4  A    between atoms: N_17  and  C_18
REMARK    5  A    between atoms: C_18  and  C_19
REMARK    6  A    between atoms: C_22  and  C_23
REMARK    7  A    between atoms: C_23  and  N_24
REMARK    8  A    between atoms: C_25  and  C_27
REMARK                            x       y       z     vdW  Elec       q    Type
REMARK                         _______ _______ _______ _____ _____    ______ ____
ROOT
ATOM      1  O   UNL     1      46.696   4.898  17.598  0.00  0.00    +0.000 OA
ATOM      2  C   UNL     1      47.283   4.047  16.935  0.00  0.00    +0.000 C 
ATOM      3  N   UNL     1      47.607   4.206  15.606  0.00  0.00    +0.000 N 
ATOM      4  H   UNL     1      47.942   3.398  15.090  0.00  0.00    +0.000 HD
ENDROOT
BRANCH   2   5
ATOM      5  C   UNL     1      47.640   2.675  17.507  0.00  0.00    +0.000 C 
BRANCH   5   6
ATOM      6  N   UNL     1      49.043   2.620  17.861  0.00  0.00    +0.000 N 
ATOM      7  C   UNL     1      49.982   2.104  17.007  0.00  0.00    +0.000 C 
ATOM      8  O   UNL     1      49.678   1.686  15.892  0.00  0.00    +0.000 OA
ATOM      9  H   UNL     1      49.266   2.714  18.850  0.00  0.00    +0.000 HD
BRANCH   7  10
ATOM     10  C   UNL     1      51.377   2.127  17.466  0.00  0.00    +0.000 A 
ATOM     11  C   UNL     1      52.092   0.941  17.563  0.00  0.00    +0.000 A 
ATOM     12  S   UNL     1      53.697   1.151  18.098  0.00  0.00    +0.000 S 
ATOM     13  C   UNL     1      53.484   2.831  18.257  0.00  0.00    +0.000 A 
ATOM     14  N   UNL     1      54.488   3.624  18.715  0.00  0.00    +0.000 NA
ATOM     15  C   UNL     1      54.176   4.875  18.818  0.00  0.00    +0.000 A 
ATOM     16  N   UNL     1      52.953   5.402  18.493  0.00  0.00    +0.000 N 
ATOM     17  C   UNL     1      51.928   4.646  17.976  0.00  0.00    +0.000 A 
ATOM     18  O   UNL     1      50.876   5.159  17.606  0.00  0.00    +0.000 OA
ATOM     19  C   UNL     1      52.213   3.229  17.877  0.00  0.00    +0.000 A 
ATOM     20  H   UNL     1      52.780   6.393  18.576  0.00  0.00    +0.000 HD
ENDBRANCH   7  10
ENDBRANCH   5   6
ENDBRANCH   2   5
BRANCH   3  21
ATOM     21  C   UNL     1      47.313   5.417  14.875  0.00  0.00    +0.000 C 
BRANCH  21  22
ATOM     22  C   UNL     1      46.530   5.116  13.621  0.00  0.00    +0.000 A 
ATOM     23  C   UNL     1      46.455   6.050  12.580  0.00  0.00    +0.000 A 
ATOM     24  C   UNL     1      45.690   5.786  11.438  0.00  0.00    +0.000 A 
ATOM     25  C   UNL     1      44.972   4.588  11.316  0.00  0.00    +0.000 A 
ATOM     26  C   UNL     1      45.069   3.642  12.346  0.00  0.00    +0.000 A 
ATOM     27  C   UNL     1      45.831   3.908  13.490  0.00  0.00    +0.000 A 
BRANCH  25  28
ATOM     28  C   UNL     1      44.099   4.332  10.114  0.00  0.00    +0.000 C 
BRANCH  28  29
ATOM     29  N   UNL     1      44.843   4.379   8.874  0.00  0.00    +0.000 N 
ATOM     30  C   UNL     1      45.464   3.243   8.389  0.00  0.00    +0.000 C 
ATOM     31  O   UNL     1      45.462   2.177   8.998  0.00  0.00    +0.000 OA
ATOM     32  H   UNL     1      44.691   5.169   8.262  0.00  0.00    +0.000 HD
BRANCH  30  33
ATOM     33  C   UNL     1      46.097   3.418   7.014  0.00  0.00    +0.000 C 
ATOM     34  C   UNL     1      46.113   2.152   6.182  0.00  0.00    +0.000 C 
ATOM     35  C   UNL     1      47.450   1.529   6.515  0.00  0.00    +0.000 C 
ATOM     36  O   UNL     1      48.342   2.606   6.814  0.00  0.00    +0.000 OA
ATOM     37  C   UNL     1      47.569   3.777   7.117  0.00  0.00    +0.000 C 
ENDBRANCH  30  33
ENDBRANCH  28  29
ENDBRANCH  25  28
ENDBRANCH  21  22
ENDBRANCH   3  21
TORSDOF 8
ENDMDL
MODEL 2
REMARK VINA RESULT:    -7.415      3.544      4.256
REMARK INTER + INTRA:         -12.177
REMARK INTER:                 -10.509
REMARK INTRA:                  -1.668
REMARK UNBOUND:                -1.293
REMARK  Name = 
REMARK  8 active torsions:
REMARK  status: ('A' for Active; 'I' for Inactive)
REMARK    1  A    between atoms: C_2  and  C_3
REMARK    2  A    between atoms: C_3  and  N_4
REMARK    3  A    between atoms: C_5  and  C_7
REMARK    4  A    between atoms: N_17  and  C_18
REMARK    5  A    between atoms: C_18  and  C_19
REMARK    6  A    between atoms: C_22  and  C_23
REMARK    7  A    between atoms: C_23  and  N_24
REMARK    8  A    between atoms: C_25  and  C_27
REMARK                            x       y       z     vdW  Elec       q    Type
REMARK                         _______ _______ _______ _____ _____    ______ ____
ROOT
ATOM      1  O   UNL     1      46.829   3.086  17.735  0.00  0.00    +0.000 OA
ATOM      2  C   UNL     1      47.108   4.247  17.451  0.00  0.00    +0.000 C 
ATOM      3  N   UNL     1      47.505   4.651  16.197  0.00  0.00    +0.000 N 
ATOM      4  H   UNL     1      47.873   5.591  16.085  0.00  0.00    +0.000 HD
ENDROOT
BRANCH   2   5
ATOM      5  C   UNL     1      47.124   5.358  18.501  0.00  0.00    +0.000 C 
BRANCH   5   6
ATOM      6  N   UNL     1      47.841   6.516  18.007  0.00  0.00    +0.000 N 
ATOM      7  C   UNL     1      49.015   6.933  18.576  0.00  0.00    +0.000 C 
ATOM      8  O   UNL     1      49.525   6.329  19.518  0.00  0.00    +0.000 OA
ATOM      9  H   UNL     1      47.314   7.160  17.421  0.00  0.00    +0.000 HD
BRANCH   7  10
ATOM     10  C   UNL     1      49.664   8.103  17.971  0.00  0.00    +0.000 A 
ATOM     11  C   UNL     1      49.864   9.250  18.728  0.00  0.00    +0.000 A 
ATOM     12  S   UNL     1      50.642  10.506  17.874  0.00  0.00    +0.000 S 
ATOM     13  C   UNL     1      50.703   9.576  16.451  0.00  0.00    +0.000 A 
ATOM     14  N   UNL     1      51.230  10.084  15.305  0.00  0.00    +0.000 NA
ATOM     15  C   UNL     1      51.180   9.281  14.293  0.00  0.00    +0.000 A 
ATOM     16  N   UNL     1      50.662   8.012  14.330  0.00  0.00    +0.000 N 
ATOM     17  C   UNL     1      50.169   7.440  15.478  0.00  0.00    +0.000 A 
ATOM     18  O   UNL     1      49.798   6.270  15.504  0.00  0.00    +0.000 OA
ATOM     19  C   UNL     1      50.165   8.313  16.634  0.00  0.00    +0.000 A 
ATOM     20  H   UNL     1      50.672   7.426  13.508  0.00  0.00    +0.000 HD
ENDBRANCH   7  10
ENDBRANCH   5   6
ENDBRANCH   2   5
BRANCH   3  21
ATOM     21  C   UNL     1      47.594   3.738  15.080  0.00  0.00    +0.000 C 
BRANCH  21  22
ATOM     22  C   UNL     1      46.757   4.217  13.920  0.00  0.00    +0.000 A 
ATOM     23  C   UNL     1      46.694   5.577  13.593  0.00  0.00    +0.000 A 
ATOM     24  C   UNL     1      45.879   6.022  12.545  0.00  0.00    +0.000 A 
ATOM     25  C   UNL     1      45.098   5.119  11.809  0.00  0.00    +0.000 A 
ATOM     26  C   UNL     1      45.182   3.755  12.120  0.00  0.00    +0.000 A 
ATOM     27  C   UNL     1      45.994   3.310  13.170  0.00  0.00    +0.000 A 
BRANCH  25  28
ATOM     28  C   UNL     1      44.174   5.608  10.722  0.00  0.00    +0.000 C 
BRANCH  28  29
ATOM     29  N   UNL     1      44.075   4.672   9.623  0.00  0.00    +0.000 N 
ATOM     30  C   UNL     1      45.107   4.554   8.711  0.00  0.00    +0.000 C 
ATOM     31  O   UNL     1      46.111   5.259   8.753  0.00  0.00    +0.000 OA
ATOM     32  H   UNL     1      43.369   3.950   9.681  0.00  0.00    +0.000 HD
BRANCH  30  33
ATOM     33  C   UNL     1      44.911   3.440   7.690  0.00  0.00    +0.000 C 
ATOM     34  C   UNL     1      44.712   2.072   8.309  0.00  0.00    +0.000 C 
ATOM     35  C   UNL     1      46.115   1.510   8.380  0.00  0.00    +0.000 C 
ATOM     36  O   UNL     1      46.840   2.078   7.286  0.00  0.00    +0.000 OA
ATOM     37  C   UNL     1      46.147   3.248   6.828  0.00  0.00    +0.000 C 
ENDBRANCH  30  33
ENDBRANCH  28  29
ENDBRANCH  25  28
ENDBRANCH  21  22
ENDBRANCH   3  21
TORSDOF 8
ENDMDL
MODEL 3
REMARK VINA RESULT:    -7.084      3.085      4.778
REMARK INTER + INTRA:         -11.691
REMARK INTER:                 -10.046
REMARK INTRA:                  -1.645
REMARK UNBOUND:                -1.293
REMARK  Name = 
REMARK  8 active torsions:
REMARK  status: ('A' for Active; 'I' for Inactive)
REMARK    1  A    between atoms: C_2  and  C_3
REMARK    2  A    between atoms: C_3  and  N_4
REMARK    3  A    between atoms: C_5  and  C_7
REMARK    4  A    between atoms: N_17  and  C_18
REMARK    5  A    between atoms: C_18  and  C_19
REMARK    6  A    between atoms: C_22  and  C_23
REMARK    7  A    between atoms: C_23  and  N_24
REMARK    8  A    between atoms: C_25  and  C_27
REMARK                            x       y       z     vdW  Elec       q    Type
REMARK                         _______ _______ _______ _____ _____    ______ ____
ROOT
ATOM      1  O   UNL     1      51.567   8.497  12.770  0.00  0.00    +0.000 OA
ATOM      2  C   UNL     1      50.978   9.083  13.674  0.00  0.00    +0.000 C 
ATOM      3  N   UNL     1      49.799   9.772  13.495  0.00  0.00    +0.000 N 
ATOM      4  H   UNL     1      49.464  10.362  14.250  0.00  0.00    +0.000 HD
ENDROOT
BRANCH   2   5
ATOM      5  C   UNL     1      51.549   9.176  15.089  0.00  0.00    +0.000 C 
BRANCH   5   6
ATOM      6  N   UNL     1      50.896   8.227  15.966  0.00  0.00    +0.000 N 
ATOM      7  C   UNL     1      51.474   7.027  16.289  0.00  0.00    +0.000 C 
ATOM      8  O   UNL     1      52.585   6.713  15.865  0.00  0.00    +0.000 OA
ATOM      9  H   UNL     1      49.895   8.352  16.106  0.00  0.00    +0.000 HD
BRANCH   7  10
ATOM     10  C   UNL     1      50.728   6.160  17.209  0.00  0.00    +0.000 A 
ATOM     11  C   UNL     1      51.288   5.801  18.427  0.00  0.00    +0.000 A 
ATOM     12  S   UNL     1      50.282   4.803  19.376  0.00  0.00    +0.000 S 
ATOM     13  C   UNL     1      49.077   4.782  18.176  0.00  0.00    +0.000 A 
ATOM     14  N   UNL     1      47.933   4.066  18.345  0.00  0.00    +0.000 NA
ATOM     15  C   UNL     1      47.121   4.112  17.340  0.00  0.00    +0.000 A 
ATOM     16  N   UNL     1      47.347   4.821  16.187  0.00  0.00    +0.000 N 
ATOM     17  C   UNL     1      48.463   5.601  15.997  0.00  0.00    +0.000 A 
ATOM     18  O   UNL     1      48.595   6.298  14.996  0.00  0.00    +0.000 OA
ATOM     19  C   UNL     1      49.425   5.553  17.080  0.00  0.00    +0.000 A 
ATOM     20  H   UNL     1      46.661   4.834  15.447  0.00  0.00    +0.000 HD
ENDBRANCH   7  10
ENDBRANCH   5   6
ENDBRANCH   2   5
BRANCH   3  21
ATOM     21  C   UNL     1      49.125   9.837  12.219  0.00  0.00    +0.000 C 
BRANCH  21  22
ATOM     22  C   UNL     1      47.971   8.866  12.165  0.00  0.00    +0.000 A 
ATOM     23  C   UNL     1      48.169   7.537  11.769  0.00  0.00    +0.000 A 
ATOM     24  C   UNL     1      47.089   6.652  11.676  0.00  0.00    +0.000 A 
ATOM     25  C   UNL     1      45.784   7.078  11.964  0.00  0.00    +0.000 A 
ATOM     26  C   UNL     1      45.591   8.400  12.386  0.00  0.00    +0.000 A 
ATOM     27  C   UNL     1      46.671   9.287  12.476  0.00  0.00    +0.000 A 
BRANCH  25  28
ATOM     28  C   UNL     1      44.615   6.140  11.802  0.00  0.00    +0.000 C 
BRANCH  28  29
ATOM     29  N   UNL     1      44.579   5.526  10.493  0.00  0.00    +0.000 N 
ATOM     30  C   UNL     1      44.648   4.152  10.363  0.00  0.00    +0.000 C 
ATOM     31  O   UNL     1      44.796   3.403  11.325  0.00  0.00    +0.000 OA
ATOM     32  H   UNL     1      44.257   6.089   9.717  0.00  0.00    +0.000 HD
BRANCH  30  33
ATOM     33  C   UNL     1      44.469   3.651   8.936  0.00  0.00    +0.000 C 
ATOM     34  C   UNL     1      44.492   2.142   8.810  0.00  0.00    +0.000 C 
ATOM     35  C   UNL     1      45.948   1.833   8.539  0.00  0.00    +0.000 C 
ATOM     36  O   UNL     1      46.482   2.959   7.837  0.00  0.00    +0.000 OA
ATOM     37  C   UNL     1      45.616   4.085   8.041  0.00  0.00    +0.000 C 
ENDBRANCH  30  33
ENDBRANCH  28  29
ENDBRANCH  25  28
ENDBRANCH  21  22
ENDBRANCH   3  21
TORSDOF 8
ENDMDL
MODEL 4
REMARK VINA RESULT:    -6.720      3.450      5.563
REMARK INTER + INTRA:         -11.156
REMARK INTER:                  -9.187
REMARK INTRA:                  -1.969
REMARK UNBOUND:                -1.293
REMARK  Name = 
REMARK  8 active torsions:
REMARK  status: ('A' for Active; 'I' for Inactive)
REMARK    1  A    between atoms: C_2  and  C_3
REMARK    2  A    between atoms: C_3  and  N_4
REMARK    3  A    between atoms: C_5  and  C_7
REMARK    4  A    between atoms: N_17  and  C_18
REMARK    5  A    between atoms: C_18  and  C_19
REMARK    6  A    between atoms: C_22  and  C_23
REMARK    7  A    between atoms: C_23  and  N_24
REMARK    8  A    between atoms: C_25  and  C_27
REMARK                            x       y       z     vdW  Elec       q    Type
REMARK                         _______ _______ _______ _____ _____    ______ ____
ROOT
ATOM      1  O   UNL     1      51.889  10.200  13.511  0.00  0.00    +0.000 OA
ATOM      2  C   UNL     1      52.341   9.062  13.423  0.00  0.00    +0.000 C 
ATOM      3  N   UNL     1      52.019   8.189  12.408  0.00  0.00    +0.000 N 
ATOM      4  H   UNL     1      52.303   7.219  12.495  0.00  0.00    +0.000 HD
ENDROOT
BRANCH   2   5
ATOM      5  C   UNL     1      53.253   8.466  14.495  0.00  0.00    +0.000 C 
BRANCH   5   6
ATOM      6  N   UNL     1      52.631   7.309  15.107  0.00  0.00    +0.000 N 
ATOM      7  C   UNL     1      51.874   7.415  16.244  0.00  0.00    +0.000 C 
ATOM      8  O   UNL     1      51.669   8.502  16.783  0.00  0.00    +0.000 OA
ATOM      9  H   UNL     1      52.998   6.399  14.835  0.00  0.00    +0.000 HD
BRANCH   7  10
ATOM     10  C   UNL     1      51.273   6.177  16.756  0.00  0.00    +0.000 A 
ATOM     11  C   UNL     1      52.063   5.249  17.420  0.00  0.00    +0.000 A 
ATOM     12  S   UNL     1      51.203   3.878  17.959  0.00  0.00    +0.000 S 
ATOM     13  C   UNL     1      49.750   4.458  17.289  0.00  0.00    +0.000 A 
ATOM     14  N   UNL     1      48.604   3.731  17.368  0.00  0.00    +0.000 NA
ATOM     15  C   UNL     1      47.585   4.275  16.786  0.00  0.00    +0.000 A 
ATOM     16  N   UNL     1      47.610   5.486  16.143  0.00  0.00    +0.000 N 
ATOM     17  C   UNL     1      48.733   6.278  16.086  0.00  0.00    +0.000 A 
ATOM     18  O   UNL     1      48.703   7.398  15.586  0.00  0.00    +0.000 OA
ATOM     19  C   UNL     1      49.914   5.695  16.690  0.00  0.00    +0.000 A 
ATOM     20  H   UNL     1      46.773   5.867  15.727  0.00  0.00    +0.000 HD
ENDBRANCH   7  10
ENDBRANCH   5   6
ENDBRANCH   2   5
BRANCH   3  21
ATOM     21  C   UNL     1      51.137   8.554  11.323  0.00  0.00    +0.000 C 
BRANCH  21  22
ATOM     22  C   UNL     1      49.695   8.294  11.686  0.00  0.00    +0.000 A 
ATOM     23  C   UNL     1      48.783   9.349  11.802  0.00  0.00    +0.000 A 
ATOM     24  C   UNL     1      47.457   9.109  12.184  0.00  0.00    +0.000 A 
ATOM     25  C   UNL     1      47.018   7.809  12.473  0.00  0.00    +0.000 A 
ATOM     26  C   UNL     1      47.925   6.750  12.331  0.00  0.00    +0.000 A 
ATOM     27  C   UNL     1      49.252   6.991  11.952  0.00  0.00    +0.000 A 
BRANCH  25  28
ATOM     28  C   UNL     1      45.608   7.559  12.945  0.00  0.00    +0.000 C 
BRANCH  28  29
ATOM     29  N   UNL     1      45.002   6.420  12.289  0.00  0.00    +0.000 N 
ATOM     30  C   UNL     1      44.983   5.186  12.911  0.00  0.00    +0.000 C 
ATOM     31  O   UNL     1      45.513   4.985  14.000  0.00  0.00    +0.000 OA
ATOM     32  H   UNL     1      44.390   6.598  11.504  0.00  0.00    +0.000 HD
BRANCH  30  33
ATOM     33  C   UNL     1      44.199   4.120  12.155  0.00  0.00    +0.000 C 
ATOM     34  C   UNL     1      44.944   3.539  10.971  0.00  0.00    +0.000 C 
ATOM     35  C   UNL     1      44.508   4.416   9.817  0.00  0.00    +0.000 C 
ATOM     36  O   UNL     1      43.182   4.857  10.116  0.00  0.00    +0.000 OA
ATOM     37  C   UNL     1      42.943   4.692  11.521  0.00  0.00    +0.000 C 
ENDBRANCH  30  33
ENDBRANCH  28  29
ENDBRANCH  25  28
ENDBRANCH  21  22
ENDBRANCH   3  21
TORSDOF 8
ENDMDL
MODEL 5
REMARK VINA RESULT:    -6.346      3.789      5.951
REMARK INTER + INTRA:         -10.607
REMARK INTER:                  -8.630
REMARK INTRA:                  -1.977
REMARK UNBOUND:                -1.293
REMARK  Name = 
REMARK  8 active torsions:
REMARK  status: ('A' for Active; 'I' for Inactive)
REMARK    1  A    between atoms: C_2  and  C_3
REMARK    2  A    between atoms: C_3  and  N_4
REMARK    3  A    between atoms: C_5  and  C_7
REMARK    4  A    between atoms: N_17  and  C_18
REMARK    5  A    between atoms: C_18  and  C_19
REMARK    6  A    between atoms: C_22  and  C_23
REMARK    7  A    between atoms: C_23  and  N_24
REMARK    8  A    between atoms: C_25  and  C_27
REMARK                            x       y       z     vdW  Elec       q    Type
REMARK                         _______ _______ _______ _____ _____    ______ ____
ROOT
ATOM      1  O   UNL     1      53.053   9.678  15.535  0.00  0.00    +0.000 OA
ATOM      2  C   UNL     1      52.737   8.503  15.701  0.00  0.00    +0.000 C 
ATOM      3  N   UNL     1      52.058   7.757  14.764  0.00  0.00    +0.000 N 
ATOM      4  H   UNL     1      51.691   6.851  15.040  0.00  0.00    +0.000 HD
ENDROOT
BRANCH   2   5
ATOM      5  C   UNL     1      52.995   7.771  17.018  0.00  0.00    +0.000 C 
BRANCH   5   6
ATOM      6  N   UNL     1      51.774   7.172  17.515  0.00  0.00    +0.000 N 
ATOM      7  C   UNL     1      50.830   7.908  18.183  0.00  0.00    +0.000 C 
ATOM      8  O   UNL     1      50.968   9.115  18.370  0.00  0.00    +0.000 OA
ATOM      9  H   UNL     1      51.767   6.158  17.600  0.00  0.00    +0.000 HD
BRANCH   7  10
ATOM     10  C   UNL     1      49.621   7.196  18.616  0.00  0.00    +0.000 A 
ATOM     11  C   UNL     1      49.099   7.427  19.882  0.00  0.00    +0.000 A 
ATOM     12  S   UNL     1      47.688   6.529  20.215  0.00  0.00    +0.000 S 
ATOM     13  C   UNL     1      47.746   5.768  18.694  0.00  0.00    +0.000 A 
ATOM     14  N   UNL     1      46.822   4.835  18.343  0.00  0.00    +0.000 NA
ATOM     15  C   UNL     1      47.007   4.314  17.174  0.00  0.00    +0.000 A 
ATOM     16  N   UNL     1      48.027   4.654  16.322  0.00  0.00    +0.000 N 
ATOM     17  C   UNL     1      48.950   5.629  16.615  0.00  0.00    +0.000 A 
ATOM     18  O   UNL     1      49.796   5.979  15.796  0.00  0.00    +0.000 OA
ATOM     19  C   UNL     1      48.811   6.218  17.931  0.00  0.00    +0.000 A 
ATOM     20  H   UNL     1      48.104   4.224  15.412  0.00  0.00    +0.000 HD
ENDBRANCH   7  10
ENDBRANCH   5   6
ENDBRANCH   2   5
BRANCH   3  21
ATOM     21  C   UNL     1      51.685   8.287  13.472  0.00  0.00    +0.000 C 
BRANCH  21  22
ATOM     22  C   UNL     1      50.188   8.254  13.285  0.00  0.00    +0.000 A 
ATOM     23  C   UNL     1      49.336   8.898  14.190  0.00  0.00    +0.000 A 
ATOM     24  C   UNL     1      47.947   8.826  14.038  0.00  0.00    +0.000 A 
ATOM     25  C   UNL     1      47.376   8.097  12.985  0.00  0.00    +0.000 A 
ATOM     26  C   UNL     1      48.229   7.474  12.064  0.00  0.00    +0.000 A 
ATOM     27  C   UNL     1      49.620   7.544  12.218  0.00  0.00    +0.000 A 
BRANCH  25  28
ATOM     28  C   UNL     1      45.879   7.968  12.859  0.00  0.00    +0.000 C 
BRANCH  28  29
ATOM     29  N   UNL     1      45.418   6.625  13.135  0.00  0.00    +0.000 N 
ATOM     30  C   UNL     1      44.489   6.022  12.307  0.00  0.00    +0.000 C 
ATOM     31  O   UNL     1      43.979   6.601  11.352  0.00  0.00    +0.000 OA
ATOM     32  H   UNL     1      45.959   6.062  13.776  0.00  0.00    +0.000 HD
BRANCH  30  33
ATOM     33  C   UNL     1      44.200   4.567  12.651  0.00  0.00    +0.000 C 
ATOM     34  C   UNL     1      45.286   3.607  12.211  0.00  0.00    +0.000 C 
ATOM     35  C   UNL     1      44.839   3.177  10.831  0.00  0.00    +0.000 C 
ATOM     36  O   UNL     1      43.410   3.225  10.830  0.00  0.00    +0.000 OA
ATOM     37  C   UNL     1      42.973   4.051  11.919  0.00  0.00    +0.000 C 
ENDBRANCH  30  33
ENDBRANCH  28  29
ENDBRANCH  25  28
ENDBRANCH  21  22
ENDBRANCH   3  21
TORSDOF 8
ENDMDL
MODEL 6
REMARK VINA RESULT:    -6.100      3.963     11.087
REMARK INTER + INTRA:         -10.247
REMARK INTER:                  -9.312
REMARK INTRA:                  -0.935
REMARK UNBOUND:                -1.293
REMARK  Name = 
REMARK  8 active torsions:
REMARK  status: ('A' for Active; 'I' for Inactive)
REMARK    1  A    between atoms: C_2  and  C_3
REMARK    2  A    between atoms: C_3  and  N_4
REMARK    3  A    between atoms: C_5  and  C_7
REMARK    4  A    between atoms: N_17  and  C_18
REMARK    5  A    between atoms: C_18  and  C_19
REMARK    6  A    between atoms: C_22  and  C_23
REMARK    7  A    between atoms: C_23  and  N_24
REMARK    8  A    between atoms: C_25  and  C_27
REMARK                            x       y       z     vdW  Elec       q    Type
REMARK                         _______ _______ _______ _____ _____    ______ ____
ROOT
ATOM      1  O   UNL     1      47.232   3.876  17.037  0.00  0.00    +0.000 OA
ATOM      2  C   UNL     1      48.243   4.371  16.547  0.00  0.00    +0.000 C 
ATOM      3  N   UNL     1      49.520   3.967  16.862  0.00  0.00    +0.000 N 
ATOM      4  H   UNL     1      50.300   4.532  16.541  0.00  0.00    +0.000 HD
ENDROOT
BRANCH   2   5
ATOM      5  C   UNL     1      48.181   5.560  15.588  0.00  0.00    +0.000 C 
BRANCH   5   6
ATOM      6  N   UNL     1      47.024   5.458  14.723  0.00  0.00    +0.000 N 
ATOM      7  C   UNL     1      46.894   6.231  13.598  0.00  0.00    +0.000 C 
ATOM      8  O   UNL     1      47.765   7.030  13.262  0.00  0.00    +0.000 OA
ATOM      9  H   UNL     1      46.200   5.008  15.117  0.00  0.00    +0.000 HD
BRANCH   7  10
ATOM     10  C   UNL     1      45.690   6.018  12.786  0.00  0.00    +0.000 A 
ATOM     11  C   UNL     1      45.004   7.108  12.267  0.00  0.00    +0.000 A 
ATOM     12  S   UNL     1      43.639   6.681  11.338  0.00  0.00    +0.000 S 
ATOM     13  C   UNL     1      43.892   5.024  11.628  0.00  0.00    +0.000 A 
ATOM     14  N   UNL     1      43.040   4.088  11.132  0.00  0.00    +0.000 NA
ATOM     15  C   UNL     1      43.332   2.872  11.458  0.00  0.00    +0.000 A 
ATOM     16  N   UNL     1      44.409   2.509  12.226  0.00  0.00    +0.000 N 
ATOM     17  C   UNL     1      45.325   3.416  12.702  0.00  0.00    +0.000 A 
ATOM     18  O   UNL     1      46.330   3.055  13.308  0.00  0.00    +0.000 OA
ATOM     19  C   UNL     1      45.021   4.799  12.397  0.00  0.00    +0.000 A 
ATOM     20  H   UNL     1      44.595   1.537  12.428  0.00  0.00    +0.000 HD
ENDBRANCH   7  10
ENDBRANCH   5   6
ENDBRANCH   2   5
BRANCH   3  21
ATOM     21  C   UNL     1      49.786   2.886  17.784  0.00  0.00    +0.000 C 
BRANCH  21  22
ATOM     22  C   UNL     1      51.239   2.481  17.739  0.00  0.00    +0.000 A 
ATOM     23  C   UNL     1      51.608   1.164  17.440  0.00  0.00    +0.000 A 
ATOM     24  C   UNL     1      52.955   0.781  17.445  0.00  0.00    +0.000 A 
ATOM     25  C   UNL     1      53.962   1.704  17.763  0.00  0.00    +0.000 A 
ATOM     26  C   UNL     1      53.594   3.028  18.036  0.00  0.00    +0.000 A 
ATOM     27  C   UNL     1      52.246   3.410  18.034  0.00  0.00    +0.000 A 
BRANCH  25  28
ATOM     28  C   UNL     1      55.406   1.275  17.829  0.00  0.00    +0.000 C 
BRANCH  28  29
ATOM     29  N   UNL     1      55.555  -0.081  18.312  0.00  0.00    +0.000 N 
ATOM     30  C   UNL     1      55.703  -0.328  19.664  0.00  0.00    +0.000 C 
ATOM     31  O   UNL     1      55.770   0.571  20.498  0.00  0.00    +0.000 OA
ATOM     32  H   UNL     1      55.302  -0.835  17.688  0.00  0.00    +0.000 HD
BRANCH  30  33
ATOM     33  C   UNL     1      55.719  -1.807  20.029  0.00  0.00    +0.000 C 
ATOM     34  C   UNL     1      55.514  -2.731  18.846  0.00  0.00    +0.000 C 
ATOM     35  C   UNL     1      54.016  -2.942  18.820  0.00  0.00    +0.000 C 
ATOM     36  O   UNL     1      53.565  -2.845  20.173  0.00  0.00    +0.000 OA
ATOM     37  C   UNL     1      54.566  -2.170  20.948  0.00  0.00    +0.000 C 
ENDBRANCH  30  33
ENDBRANCH  28  29
ENDBRANCH  25  28
ENDBRANCH  21  22
ENDBRANCH   3  21
TORSDOF 8
ENDMDL
MODEL 7
REMARK VINA RESULT:    -6.093      3.280      4.323
REMARK INTER + INTRA:         -10.236
REMARK INTER:                  -9.273
REMARK INTRA:                  -0.963
REMARK UNBOUND:                -1.293
REMARK  Name = 
REMARK  8 active torsions:
REMARK  status: ('A' for Active; 'I' for Inactive)
REMARK    1  A    between atoms: C_2  and  C_3
REMARK    2  A    between atoms: C_3  and  N_4
REMARK    3  A    between atoms: C_5  and  C_7
REMARK    4  A    between atoms: N_17  and  C_18
REMARK    5  A    between atoms: C_18  and  C_19
REMARK    6  A    between atoms: C_22  and  C_23
REMARK    7  A    between atoms: C_23  and  N_24
REMARK    8  A    between atoms: C_25  and  C_27
REMARK                            x       y       z     vdW  Elec       q    Type
REMARK                         _______ _______ _______ _____ _____    ______ ____
ROOT
ATOM      1  O   UNL     1      48.731   7.807  11.492  0.00  0.00    +0.000 OA
ATOM      2  C   UNL     1      48.685   8.191  12.658  0.00  0.00    +0.000 C 
ATOM      3  N   UNL     1      47.595   8.827  13.209  0.00  0.00    +0.000 N 
ATOM      4  H   UNL     1      47.697   9.256  14.123  0.00  0.00    +0.000 HD
ENDROOT
BRANCH   2   5
ATOM      5  C   UNL     1      49.883   8.072  13.600  0.00  0.00    +0.000 C 
BRANCH   5   6
ATOM      6  N   UNL     1      49.649   7.048  14.596  0.00  0.00    +0.000 N 
ATOM      7  C   UNL     1      49.012   7.324  15.778  0.00  0.00    +0.000 C 
ATOM      8  O   UNL     1      48.591   8.450  16.035  0.00  0.00    +0.000 OA
ATOM      9  H   UNL     1      50.208   6.201  14.517  0.00  0.00    +0.000 HD
BRANCH   7  10
ATOM     10  C   UNL     1      48.808   6.198  16.698  0.00  0.00    +0.000 A 
ATOM     11  C   UNL     1      48.091   5.085  16.278  0.00  0.00    +0.000 A 
ATOM     12  S   UNL     1      47.962   3.867  17.466  0.00  0.00    +0.000 S 
ATOM     13  C   UNL     1      48.825   4.800  18.596  0.00  0.00    +0.000 A 
ATOM     14  N   UNL     1      49.045   4.344  19.858  0.00  0.00    +0.000 NA
ATOM     15  C   UNL     1      49.683   5.170  20.621  0.00  0.00    +0.000 A 
ATOM     16  N   UNL     1      50.131   6.406  20.229  0.00  0.00    +0.000 N 
ATOM     17  C   UNL     1      49.978   6.883  18.950  0.00  0.00    +0.000 A 
ATOM     18  O   UNL     1      50.470   7.953  18.601  0.00  0.00    +0.000 OA
ATOM     19  C   UNL     1      49.233   6.011  18.064  0.00  0.00    +0.000 A 
ATOM     20  H   UNL     1      50.643   6.995  20.868  0.00  0.00    +0.000 HD
ENDBRANCH   7  10
ENDBRANCH   5   6
ENDBRANCH   2   5
BRANCH   3  21
ATOM     21  C   UNL     1      46.381   9.071  12.464  0.00  0.00    +0.000 C 
BRANCH  21  22
ATOM     22  C   UNL     1      45.548   7.817  12.360  0.00  0.00    +0.000 A 
ATOM     23  C   UNL     1      45.787   6.725  13.203  0.00  0.00    +0.000 A 
ATOM     24  C   UNL     1      45.042   5.547  13.072  0.00  0.00    +0.000 A 
ATOM     25  C   UNL     1      44.051   5.429  12.087  0.00  0.00    +0.000 A 
ATOM     26  C   UNL     1      43.794   6.532  11.262  0.00  0.00    +0.000 A 
ATOM     27  C   UNL     1      44.542   7.710  11.390  0.00  0.00    +0.000 A 
BRANCH  25  28
ATOM     28  C   UNL     1      43.293   4.138  11.907  0.00  0.00    +0.000 C 
BRANCH  28  29
ATOM     29  N   UNL     1      43.434   3.600  10.571  0.00  0.00    +0.000 N 
ATOM     30  C   UNL     1      44.602   2.965  10.194  0.00  0.00    +0.000 C 
ATOM     31  O   UNL     1      45.576   2.876  10.936  0.00  0.00    +0.000 OA
ATOM     32  H   UNL     1      42.594   3.478  10.021  0.00  0.00    +0.000 HD
BRANCH  30  33
ATOM     33  C   UNL     1      44.551   2.341   8.805  0.00  0.00    +0.000 C 
ATOM     34  C   UNL     1      45.769   1.507   8.463  0.00  0.00    +0.000 C 
ATOM     35  C   UNL     1      46.692   2.495   7.784  0.00  0.00    +0.000 C 
ATOM     36  O   UNL     1      45.856   3.457   7.136  0.00  0.00    +0.000 OA
ATOM     37  C   UNL     1      44.545   3.398   7.715  0.00  0.00    +0.000 C 
ENDBRANCH  30  33
ENDBRANCH  28  29
ENDBRANCH  25  28
ENDBRANCH  21  22
ENDBRANCH   3  21
TORSDOF 8
ENDMDL
MODEL 8
REMARK VINA RESULT:    -5.892      4.422     10.423
REMARK INTER + INTRA:          -9.940
REMARK INTER:                  -8.881
REMARK INTRA:                  -1.059
REMARK UNBOUND:                -1.293
REMARK  Name = 
REMARK  8 active torsions:
REMARK  status: ('A' for Active; 'I' for Inactive)
REMARK    1  A    between atoms: C_2  and  C_3
REMARK    2  A    between atoms: C_3  and  N_4
REMARK    3  A    between atoms: C_5  and  C_7
REMARK    4  A    between atoms: N_17  and  C_18
REMARK    5  A    between atoms: C_18  and  C_19
REMARK    6  A    between atoms: C_22  and  C_23
REMARK    7  A    between atoms: C_23  and  N_24
REMARK    8  A    between atoms: C_25  and  C_27
REMARK                            x       y       z     vdW  Elec       q    Type
REMARK                         _______ _______ _______ _____ _____    ______ ____
ROOT
ATOM      1  O   UNL     1      47.170   3.901  18.079  0.00  0.00    +0.000 OA
ATOM      2  C   UNL     1      47.701   3.888  16.972  0.00  0.00    +0.000 C 
ATOM      3  N   UNL     1      49.043   4.114  16.767  0.00  0.00    +0.000 N 
ATOM      4  H   UNL     1      49.372   4.249  15.816  0.00  0.00    +0.000 HD
ENDROOT
BRANCH   2   5
ATOM      5  C   UNL     1      46.894   3.702  15.687  0.00  0.00    +0.000 C 
BRANCH   5   6
ATOM      6  N   UNL     1      46.812   4.946  14.951  0.00  0.00    +0.000 N 
ATOM      7  C   UNL     1      46.209   5.019  13.723  0.00  0.00    +0.000 C 
ATOM      8  O   UNL     1      45.689   4.035  13.201  0.00  0.00    +0.000 OA
ATOM      9  H   UNL     1      47.449   5.687  15.238  0.00  0.00    +0.000 HD
BRANCH   7  10
ATOM     10  C   UNL     1      46.163   6.342  13.086  0.00  0.00    +0.000 A 
ATOM     11  C   UNL     1      44.975   6.803  12.535  0.00  0.00    +0.000 A 
ATOM     12  S   UNL     1      45.097   8.360  11.850  0.00  0.00    +0.000 S 
ATOM     13  C   UNL     1      46.752   8.458  12.230  0.00  0.00    +0.000 A 
ATOM     14  N   UNL     1      47.487   9.547  11.881  0.00  0.00    +0.000 NA
ATOM     15  C   UNL     1      48.738   9.473  12.201  0.00  0.00    +0.000 A 
ATOM     16  N   UNL     1      49.314   8.411  12.849  0.00  0.00    +0.000 N 
ATOM     17  C   UNL     1      48.599   7.314  13.268  0.00  0.00    +0.000 A 
ATOM     18  O   UNL     1      49.121   6.421  13.928  0.00  0.00    +0.000 OA
ATOM     19  C   UNL     1      47.198   7.330  12.898  0.00  0.00    +0.000 A 
ATOM     20  H   UNL     1      50.294   8.424  13.090  0.00  0.00    +0.000 HD
ENDBRANCH   7  10
ENDBRANCH   5   6
ENDBRANCH   2   5
BRANCH   3  21
ATOM     21  C   UNL     1      49.964   4.355  17.854  0.00  0.00    +0.000 C 
BRANCH  21  22
ATOM     22  C   UNL     1      51.077   3.335  17.857  0.00  0.00    +0.000 A 
ATOM     23  C   UNL     1      50.858   2.032  17.394  0.00  0.00    +0.000 A 
ATOM     24  C   UNL     1      51.880   1.076  17.441  0.00  0.00    +0.000 A 
ATOM     25  C   UNL     1      53.140   1.398  17.966  0.00  0.00    +0.000 A 
ATOM     26  C   UNL     1      53.366   2.710  18.404  0.00  0.00    +0.000 A 
ATOM     27  C   UNL     1      52.343   3.665  18.360  0.00  0.00    +0.000 A 
BRANCH  25  28
ATOM     28  C   UNL     1      54.219   0.351  18.074  0.00  0.00    +0.000 C 
BRANCH  28  29
ATOM     29  N   UNL     1      53.678  -0.985  18.194  0.00  0.00    +0.000 N 
ATOM     30  C   UNL     1      53.897  -1.727  19.340  0.00  0.00    +0.000 C 
ATOM     31  O   UNL     1      54.591  -1.321  20.268  0.00  0.00    +0.000 OA
ATOM     32  H   UNL     1      52.949  -1.259  17.549  0.00  0.00    +0.000 HD
BRANCH  30  33
ATOM     33  C   UNL     1      53.159  -3.059  19.370  0.00  0.00    +0.000 C 
ATOM     34  C   UNL     1      53.106  -3.698  20.742  0.00  0.00    +0.000 C 
ATOM     35  C   UNL     1      54.331  -4.586  20.765  0.00  0.00    +0.000 C 
ATOM     36  O   UNL     1      54.561  -5.001  19.416  0.00  0.00    +0.000 OA
ATOM     37  C   UNL     1      53.866  -4.110  18.531  0.00  0.00    +0.000 C 
ENDBRANCH  30  33
ENDBRANCH  28  29
ENDBRANCH  25  28
ENDBRANCH  21  22
ENDBRANCH   3  21
TORSDOF 8
ENDMDL
MODEL 9
REMARK VINA RESULT:    -5.789      4.401     10.179
REMARK INTER + INTRA:          -9.789
REMARK INTER:                  -8.685
REMARK INTRA:                  -1.105
REMARK UNBOUND:                -1.293
REMARK  Name = 
REMARK  8 active torsions:
REMARK  status: ('A' for Active; 'I' for Inactive)
REMARK    1  A    between atoms: C_2  and  C_3
REMARK    2  A    between atoms: C_3  and  N_4
REMARK    3  A    between atoms: C_5  and  C_7
REMARK    4  A    between atoms: N_17  and  C_18
REMARK    5  A    between atoms: C_18  and  C_19
REMARK    6  A    between atoms: C_22  and  C_23
REMARK    7  A    between atoms: C_23  and  N_24
REMARK    8  A    between atoms: C_25  and  C_27
REMARK                            x       y       z     vdW  Elec       q    Type
REMARK                         _______ _______ _______ _____ _____    ______ ____
ROOT
ATOM      1  O   UNL     1      49.102   5.087  18.804  0.00  0.00    +0.000 OA
ATOM      2  C   UNL     1      49.039   4.184  17.976  0.00  0.00    +0.000 C 
ATOM      3  N   UNL     1      50.145   3.588  17.411  0.00  0.00    +0.000 N 
ATOM      4  H   UNL     1      50.009   2.967  16.619  0.00  0.00    +0.000 HD
ENDROOT
BRANCH   2   5
ATOM      5  C   UNL     1      47.706   3.683  17.419  0.00  0.00    +0.000 C 
BRANCH   5   6
ATOM      6  N   UNL     1      47.245   4.545  16.351  0.00  0.00    +0.000 N 
ATOM      7  C   UNL     1      47.226   4.128  15.045  0.00  0.00    +0.000 C 
ATOM      8  O   UNL     1      47.581   2.994  14.726  0.00  0.00    +0.000 OA
ATOM      9  H   UNL     1      47.202   5.541  16.556  0.00  0.00    +0.000 HD
BRANCH   7  10
ATOM     10  C   UNL     1      46.711   5.081  14.054  0.00  0.00    +0.000 A 
ATOM     11  C   UNL     1      45.502   4.830  13.419  0.00  0.00    +0.000 A 
ATOM     12  S   UNL     1      45.047   6.044  12.310  0.00  0.00    +0.000 S 
ATOM     13  C   UNL     1      46.469   6.928  12.609  0.00  0.00    +0.000 A 
ATOM     14  N   UNL     1      46.727   8.085  11.944  0.00  0.00    +0.000 NA
ATOM     15  C   UNL     1      47.859   8.634  12.245  0.00  0.00    +0.000 A 
ATOM     16  N   UNL     1      48.749   8.133  13.160  0.00  0.00    +0.000 N 
ATOM     17  C   UNL     1      48.504   6.996  13.894  0.00  0.00    +0.000 A 
ATOM     18  O   UNL     1      49.275   6.621  14.773  0.00  0.00    +0.000 OA
ATOM     19  C   UNL     1      47.265   6.321  13.566  0.00  0.00    +0.000 A 
ATOM     20  H   UNL     1      49.607   8.621  13.366  0.00  0.00    +0.000 HD
ENDBRANCH   7  10
ENDBRANCH   5   6
ENDBRANCH   2   5
BRANCH   3  21
ATOM     21  C   UNL     1      51.494   3.955  17.776  0.00  0.00    +0.000 C 
BRANCH  21  22
ATOM     22  C   UNL     1      52.398   2.747  17.795  0.00  0.00    +0.000 A 
ATOM     23  C   UNL     1      51.870   1.454  17.703  0.00  0.00    +0.000 A 
ATOM     24  C   UNL     1      52.707   0.334  17.768  0.00  0.00    +0.000 A 
ATOM     25  C   UNL     1      54.091   0.482  17.939  0.00  0.00    +0.000 A 
ATOM     26  C   UNL     1      54.623   1.777  18.004  0.00  0.00    +0.000 A 
ATOM     27  C   UNL     1      53.784   2.897  17.943  0.00  0.00    +0.000 A 
BRANCH  25  28
ATOM     28  C   UNL     1      54.984  -0.726  18.072  0.00  0.00    +0.000 C 
BRANCH  28  29
ATOM     29  N   UNL     1      54.365  -1.927  17.554  0.00  0.00    +0.000 N 
ATOM     30  C   UNL     1      54.629  -3.154  18.134  0.00  0.00    +0.000 C 
ATOM     31  O   UNL     1      55.424  -3.292  19.058  0.00  0.00    +0.000 OA
ATOM     32  H   UNL     1      53.567  -1.820  16.943  0.00  0.00    +0.000 HD
BRANCH  30  33
ATOM     33  C   UNL     1      53.806  -4.302  17.562  0.00  0.00    +0.000 C 
ATOM     34  C   UNL     1      53.996  -5.615  18.294  0.00  0.00    +0.000 C 
ATOM     35  C   UNL     1      55.119  -6.283  17.531  0.00  0.00    +0.000 C 
ATOM     36  O   UNL     1      55.018  -5.835  16.177  0.00  0.00    +0.000 OA
ATOM     37  C   UNL     1      54.225  -4.639  16.142  0.00  0.00    +0.000 C 
ENDBRANCH  30  33
ENDBRANCH  28  29
ENDBRANCH  25  28
ENDBRANCH  21  22
ENDBRANCH   3  21
TORSDOF 8
ENDMDL
