MODEL 1
REMARK VINA RESULT:    -8.785      0.000      0.000
REMARK INTER + INTRA:         -12.907
REMARK INTER:                 -11.867
REMARK INTRA:                  -1.041
REMARK UNBOUND:                -1.041
REMARK  Name = 
REMARK  7 active torsions:
REMARK  status: ('A' for Active; 'I' for Inactive)
REMARK    1  A    between atoms: C_1  and  O_2
REMARK    2  A    between atoms: O_2  and  C_3
REMARK    3  A    between atoms: C_7  and  C_8
REMARK    4  A    between atoms: C_8  and  N_9
REMARK    5  A    between atoms: C_13  and  C_14
REMARK    6  A    between atoms: C_14  and  N_15
REMARK    7  A    between atoms: C_16  and  C_18
REMARK                            x       y       z     vdW  Elec       q    Type
REMARK                         _______ _______ _______ _____ _____    ______ ____
ROOT
ATOM      1  N   UNL     1      44.150   2.687  12.365  0.00  0.00    +0.000 N 
ATOM      2  C   UNL     1      45.053   3.615  12.870  0.00  0.00    +0.000 A 
ATOM      3  N   UNL     1      44.772   4.923  12.800  0.00  0.00    +0.000 NA
ATOM      4  C   UNL     1      45.719   5.783  13.232  0.00  0.00    +0.000 A 
ATOM      5  C   UNL     1      46.938   5.395  13.737  0.00  0.00    +0.000 A 
ATOM      6  C   UNL     1      47.106   4.028  13.810  0.00  0.00    +0.000 A 
ATOM      7  N   UNL     1      46.191   3.128  13.379  0.00  0.00    +0.000 NA
ATOM      8  H   UNL     1      44.690   1.847  12.175  0.00  0.00    +0.000 HD
ENDROOT
BRANCH   1   9
ATOM      9  C   UNL     1      43.433   3.199  11.206  0.00  0.00    +0.000 C 
BRANCH   9  14
ATOM     10  C   UNL     1      45.652   1.940   8.545  0.00  0.00    +0.000 A 
ATOM     11  C   UNL     1      45.932   3.044   7.759  0.00  0.00    +0.000 A 
ATOM     12  C   UNL     1      45.361   4.263   8.113  0.00  0.00    +0.000 A 
ATOM     13  C   UNL     1      44.536   4.329   9.233  0.00  0.00    +0.000 A 
ATOM     14  C   UNL     1      44.305   3.165   9.968  0.00  0.00    +0.000 A 
ATOM     15  N   UNL     1      44.855   1.973   9.632  0.00  0.00    +0.000 NA
BRANCH  10  17
ATOM     16  C   UNL     1      47.315   0.932   7.253  0.00  0.00    +0.000 C 
ATOM     17  O   UNL     1      46.239   0.748   8.168  0.00  0.00    +0.000 OA
ENDBRANCH  10  17
ENDBRANCH   9  14
ENDBRANCH   1   9
BRANCH   5  18
ATOM     18  C   UNL     1      47.984   6.381  14.115  0.00  0.00    +0.000 C 
BRANCH  18  19
ATOM     19  N   UNL     1      48.051   6.623  15.533  0.00  0.00    +0.000 N 
ATOM     20  C   UNL     1      49.276   6.675  16.159  0.00  0.00    +0.000 C 
ATOM     21  O   UNL     1      50.319   6.520  15.528  0.00  0.00    +0.000 OA
ATOM     22  H   UNL     1      47.230   6.995  16.006  0.00  0.00    +0.000 HD
BRANCH  20  23
ATOM     23  C   UNL     1      49.285   6.840  17.616  0.00  0.00    +0.000 A 
ATOM     24  C   UNL     1      49.748   8.023  18.178  0.00  0.00    +0.000 A 
ATOM     25  S   UNL     1      49.948   7.939  19.871  0.00  0.00    +0.000 S 
ATOM     26  C   UNL     1      49.368   6.341  19.911  0.00  0.00    +0.000 A 
ATOM     27  N   UNL     1      49.366   5.617  21.062  0.00  0.00    +0.000 NA
ATOM     28  C   UNL     1      48.855   4.436  20.947  0.00  0.00    +0.000 A 
ATOM     29  N   UNL     1      48.303   3.932  19.797  0.00  0.00    +0.000 N 
ATOM     30  C   UNL     1      48.252   4.643  18.623  0.00  0.00    +0.000 A 
ATOM     31  O   UNL     1      47.659   4.220  17.636  0.00  0.00    +0.000 OA
ATOM     32  C   UNL     1      48.922   5.926  18.670  0.00  0.00    +0.000 A 
ATOM     33  H   UNL     1      47.851   3.028  19.793  0.00  0.00    +0.000 HD
ENDBRANCH  20  23
ENDBRANCH  18  19
ENDBRANCH   5  18
TORSDOF 6
ENDMDL
MODEL 2
REMARK VINA RESULT:    -7.977      1.934      2.796
REMARK INTER + INTRA:         -11.816
REMARK INTER:                 -10.838
REMARK INTRA:                  -0.978
REMARK UNBOUND:                -1.041
REMARK  Name = 
REMARK  7 active torsions:
REMARK  status: ('A' for Active; 'I' for Inactive)
REMARK    1  A    between atoms: C_1  and  O_2
REMARK    2  A    between atoms: O_2  and  C_3
REMARK    3  A    between atoms: C_7  and  C_8
REMARK    4  A    between atoms: C_8  and  N_9
REMARK    5  A    between atoms: C_13  and  C_14
REMARK    6  A    between atoms: C_14  and  N_15
REMARK    7  A    between atoms: C_16  and  C_18
REMARK                            x       y       z     vdW  Elec       q    Type
REMARK                         _______ _______ _______ _____ _____    ______ ____
ROOT
ATOM      1  N   UNL     1      44.031   3.597  11.935  0.00  0.00    +0.000 N 
ATOM      2  C   UNL     1      45.041   4.381  12.480  0.00  0.00    +0.000 A 
ATOM      3  N   UNL     1      45.078   5.695  12.221  0.00  0.00    +0.000 NA
ATOM      4  C   UNL     1      46.124   6.393  12.709  0.00  0.00    +0.000 A 
ATOM      5  C   UNL     1      47.140   5.838  13.452  0.00  0.00    +0.000 A 
ATOM      6  C   UNL     1      46.982   4.491  13.701  0.00  0.00    +0.000 A 
ATOM      7  N   UNL     1      45.955   3.748  13.224  0.00  0.00    +0.000 NA
ATOM      8  H   UNL     1      44.388   2.645  11.932  0.00  0.00    +0.000 HD
ENDROOT
BRANCH   1   9
ATOM      9  C   UNL     1      43.619   4.074  10.622  0.00  0.00    +0.000 C 
BRANCH   9  14
ATOM     10  C   UNL     1      45.741   1.917   8.516  0.00  0.00    +0.000 A 
ATOM     11  C   UNL     1      46.399   2.784   7.663  0.00  0.00    +0.000 A 
ATOM     12  C   UNL     1      46.132   4.146   7.778  0.00  0.00    +0.000 A 
ATOM     13  C   UNL     1      45.222   4.583   8.735  0.00  0.00    +0.000 A 
ATOM     14  C   UNL     1      44.600   3.638   9.553  0.00  0.00    +0.000 A 
ATOM     15  N   UNL     1      44.851   2.311   9.449  0.00  0.00    +0.000 NA
BRANCH  10  17
ATOM     16  C   UNL     1      46.977   0.322   7.341  0.00  0.00    +0.000 C 
ATOM     17  O   UNL     1      46.032   0.574   8.377  0.00  0.00    +0.000 OA
ENDBRANCH  10  17
ENDBRANCH   9  14
ENDBRANCH   1   9
BRANCH   5  18
ATOM     18  C   UNL     1      48.319   6.630  13.891  0.00  0.00    +0.000 C 
BRANCH  18  19
ATOM     19  N   UNL     1      48.145   7.240  15.184  0.00  0.00    +0.000 N 
ATOM     20  C   UNL     1      48.861   6.770  16.261  0.00  0.00    +0.000 C 
ATOM     21  O   UNL     1      49.652   5.838  16.140  0.00  0.00    +0.000 OA
ATOM     22  H   UNL     1      47.697   8.152  15.239  0.00  0.00    +0.000 HD
BRANCH  20  23
ATOM     23  C   UNL     1      48.585   7.370  17.571  0.00  0.00    +0.000 A 
ATOM     24  C   UNL     1      48.579   6.576  18.711  0.00  0.00    +0.000 A 
ATOM     25  S   UNL     1      47.971   7.374  20.092  0.00  0.00    +0.000 S 
ATOM     26  C   UNL     1      47.754   8.820  19.223  0.00  0.00    +0.000 A 
ATOM     27  N   UNL     1      47.164   9.905  19.790  0.00  0.00    +0.000 NA
ATOM     28  C   UNL     1      47.108  10.943  19.023  0.00  0.00    +0.000 A 
ATOM     29  N   UNL     1      47.631  11.007  17.756  0.00  0.00    +0.000 N 
ATOM     30  C   UNL     1      48.265   9.946  17.159  0.00  0.00    +0.000 A 
ATOM     31  O   UNL     1      48.822  10.054  16.071  0.00  0.00    +0.000 OA
ATOM     32  C   UNL     1      48.246   8.723  17.934  0.00  0.00    +0.000 A 
ATOM     33  H   UNL     1      47.620  11.874  17.236  0.00  0.00    +0.000 HD
ENDBRANCH  20  23
ENDBRANCH  18  19
ENDBRANCH   5  18
TORSDOF 6
ENDMDL
MODEL 3
REMARK VINA RESULT:    -7.853      2.108      2.737
REMARK INTER + INTRA:         -11.649
REMARK INTER:                 -10.742
REMARK INTRA:                  -0.906
REMARK UNBOUND:                -1.041
REMARK  Name = 
REMARK  7 active torsions:
REMARK  status: ('A' for Active; 'I' for Inactive)
REMARK    1  A    between atoms: C_1  and  O_2
REMARK    2  A    between atoms: O_2  and  C_3
REMARK    3  A    between atoms: C_7  and  C_8
REMARK    4  A    between atoms: C_8  and  N_9
REMARK    5  A    between atoms: C_13  and  C_14
REMARK    6  A    between atoms: C_14  and  N_15
REMARK    7  A    between atoms: C_16  and  C_18
REMARK                            x       y       z     vdW  Elec       q    Type
REMARK                         _______ _______ _______ _____ _____    ______ ____
ROOT
ATOM      1  N   UNL     1      44.086   5.915  10.285  0.00  0.00    +0.000 N 
ATOM      2  C   UNL     1      45.053   6.559  11.049  0.00  0.00    +0.000 A 
ATOM      3  N   UNL     1      46.155   5.896  11.425  0.00  0.00    +0.000 NA
ATOM      4  C   UNL     1      47.021   6.543  12.233  0.00  0.00    +0.000 A 
ATOM      5  C   UNL     1      46.839   7.831  12.681  0.00  0.00    +0.000 A 
ATOM      6  C   UNL     1      45.699   8.438  12.197  0.00  0.00    +0.000 A 
ATOM      7  N   UNL     1      44.797   7.826  11.395  0.00  0.00    +0.000 NA
ATOM      8  H   UNL     1      43.223   6.431  10.434  0.00  0.00    +0.000 HD
ENDROOT
BRANCH   1   9
ATOM      9  C   UNL     1      43.988   4.499  10.612  0.00  0.00    +0.000 C 
BRANCH   9  14
ATOM     10  C   UNL     1      45.910   3.550   7.613  0.00  0.00    +0.000 A 
ATOM     11  C   UNL     1      46.009   2.172   7.672  0.00  0.00    +0.000 A 
ATOM     12  C   UNL     1      45.422   1.517   8.751  0.00  0.00    +0.000 A 
ATOM     13  C   UNL     1      44.763   2.264   9.723  0.00  0.00    +0.000 A 
ATOM     14  C   UNL     1      44.714   3.653   9.587  0.00  0.00    +0.000 A 
ATOM     15  N   UNL     1      45.283   4.299   8.542  0.00  0.00    +0.000 NA
BRANCH  10  17
ATOM     16  C   UNL     1      47.031   3.234   5.589  0.00  0.00    +0.000 C 
ATOM     17  O   UNL     1      46.501   4.167   6.527  0.00  0.00    +0.000 OA
ENDBRANCH  10  17
ENDBRANCH   9  14
ENDBRANCH   1   9
BRANCH   5  18
ATOM     18  C   UNL     1      47.775   8.470  13.642  0.00  0.00    +0.000 C 
BRANCH  18  19
ATOM     19  N   UNL     1      47.851   7.781  14.904  0.00  0.00    +0.000 N 
ATOM     20  C   UNL     1      49.006   7.120  15.253  0.00  0.00    +0.000 C 
ATOM     21  O   UNL     1      49.982   7.108  14.505  0.00  0.00    +0.000 OA
ATOM     22  H   UNL     1      47.160   7.994  15.621  0.00  0.00    +0.000 HD
BRANCH  20  23
ATOM     23  C   UNL     1      49.002   6.365  16.510  0.00  0.00    +0.000 A 
ATOM     24  C   UNL     1      49.736   6.823  17.598  0.00  0.00    +0.000 A 
ATOM     25  S   UNL     1      49.841   5.692  18.872  0.00  0.00    +0.000 S 
ATOM     26  C   UNL     1      48.863   4.581  18.033  0.00  0.00    +0.000 A 
ATOM     27  N   UNL     1      48.628   3.334  18.522  0.00  0.00    +0.000 NA
ATOM     28  C   UNL     1      47.832   2.620  17.798  0.00  0.00    +0.000 A 
ATOM     29  N   UNL     1      47.212   3.056  16.655  0.00  0.00    +0.000 N 
ATOM     30  C   UNL     1      47.395   4.318  16.146  0.00  0.00    +0.000 A 
ATOM     31  O   UNL     1      46.750   4.728  15.185  0.00  0.00    +0.000 OA
ATOM     32  C   UNL     1      48.373   5.116  16.856  0.00  0.00    +0.000 A 
ATOM     33  H   UNL     1      46.542   2.472  16.175  0.00  0.00    +0.000 HD
ENDBRANCH  20  23
ENDBRANCH  18  19
ENDBRANCH   5  18
TORSDOF 6
ENDMDL
MODEL 4
REMARK VINA RESULT:    -7.197      3.655      8.631
REMARK INTER + INTRA:         -10.763
REMARK INTER:                  -9.638
REMARK INTRA:                  -1.124
REMARK UNBOUND:                -1.041
REMARK  Name = 
REMARK  7 active torsions:
REMARK  status: ('A' for Active; 'I' for Inactive)
REMARK    1  A    between atoms: C_1  and  O_2
REMARK    2  A    between atoms: O_2  and  C_3
REMARK    3  A    between atoms: C_7  and  C_8
REMARK    4  A    between atoms: C_8  and  N_9
REMARK    5  A    between atoms: C_13  and  C_14
REMARK    6  A    between atoms: C_14  and  N_15
REMARK    7  A    between atoms: C_16  and  C_18
REMARK                            x       y       z     vdW  Elec       q    Type
REMARK                         _______ _______ _______ _____ _____    ______ ____
ROOT
ATOM      1  N   UNL     1      51.509   6.685  17.212  0.00  0.00    +0.000 N 
ATOM      2  C   UNL     1      50.509   7.111  16.345  0.00  0.00    +0.000 A 
ATOM      3  N   UNL     1      49.272   7.329  16.812  0.00  0.00    +0.000 NA
ATOM      4  C   UNL     1      48.322   7.664  15.913  0.00  0.00    +0.000 A 
ATOM      5  C   UNL     1      48.553   7.797  14.564  0.00  0.00    +0.000 A 
ATOM      6  C   UNL     1      49.867   7.598  14.196  0.00  0.00    +0.000 A 
ATOM      7  N   UNL     1      50.851   7.251  15.059  0.00  0.00    +0.000 NA
ATOM      8  H   UNL     1      52.210   6.235  16.629  0.00  0.00    +0.000 HD
ENDROOT
BRANCH   1   9
ATOM      9  C   UNL     1      50.986   5.828  18.268  0.00  0.00    +0.000 C 
BRANCH   9  14
ATOM     10  C   UNL     1      50.381   2.434  16.962  0.00  0.00    +0.000 A 
ATOM     11  C   UNL     1      51.494   1.703  17.336  0.00  0.00    +0.000 A 
ATOM     12  C   UNL     1      52.499   2.354  18.047  0.00  0.00    +0.000 A 
ATOM     13  C   UNL     1      52.351   3.703  18.353  0.00  0.00    +0.000 A 
ATOM     14  C   UNL     1      51.195   4.366  17.934  0.00  0.00    +0.000 A 
ATOM     15  N   UNL     1      50.213   3.743  17.241  0.00  0.00    +0.000 NA
BRANCH  10  17
ATOM     16  C   UNL     1      48.171   2.472  16.210  0.00  0.00    +0.000 C 
ATOM     17  O   UNL     1      49.402   1.757  16.261  0.00  0.00    +0.000 OA
ENDBRANCH  10  17
ENDBRANCH   9  14
ENDBRANCH   1   9
BRANCH   5  18
ATOM     18  C   UNL     1      47.455   8.078  13.601  0.00  0.00    +0.000 C 
BRANCH  18  19
ATOM     19  N   UNL     1      47.099   6.938  12.797  0.00  0.00    +0.000 N 
ATOM     20  C   UNL     1      46.087   7.045  11.871  0.00  0.00    +0.000 C 
ATOM     21  O   UNL     1      45.478   8.101  11.715  0.00  0.00    +0.000 OA
ATOM     22  H   UNL     1      47.749   6.156  12.742  0.00  0.00    +0.000 HD
BRANCH  20  23
ATOM     23  C   UNL     1      45.709   5.832  11.138  0.00  0.00    +0.000 A 
ATOM     24  C   UNL     1      45.966   5.735   9.776  0.00  0.00    +0.000 A 
ATOM     25  S   UNL     1      45.218   4.391   9.037  0.00  0.00    +0.000 S 
ATOM     26  C   UNL     1      44.577   3.867  10.522  0.00  0.00    +0.000 A 
ATOM     27  N   UNL     1      43.734   2.803  10.594  0.00  0.00    +0.000 NA
ATOM     28  C   UNL     1      43.364   2.496  11.793  0.00  0.00    +0.000 A 
ATOM     29  N   UNL     1      43.799   3.128  12.931  0.00  0.00    +0.000 N 
ATOM     30  C   UNL     1      44.677   4.183  12.905  0.00  0.00    +0.000 A 
ATOM     31  O   UNL     1      45.139   4.665  13.935  0.00  0.00    +0.000 OA
ATOM     32  C   UNL     1      45.025   4.641  11.577  0.00  0.00    +0.000 A 
ATOM     33  H   UNL     1      43.529   2.790  13.844  0.00  0.00    +0.000 HD
ENDBRANCH  20  23
ENDBRANCH  18  19
ENDBRANCH   5  18
TORSDOF 6
ENDMDL
MODEL 5
REMARK VINA RESULT:    -6.929      4.182      5.100
REMARK INTER + INTRA:         -10.400
REMARK INTER:                  -9.582
REMARK INTRA:                  -0.817
REMARK UNBOUND:                -1.041
REMARK  Name = 
REMARK  7 active torsions:
REMARK  status: ('A' for Active; 'I' for Inactive)
REMARK    1  A    between atoms: C_1  and  O_2
REMARK    2  A    between atoms: O_2  and  C_3
REMARK    3  A    between atoms: C_7  and  C_8
REMARK    4  A    between atoms: C_8  and  N_9
REMARK    5  A    between atoms: C_13  and  C_14
REMARK    6  A    between atoms: C_14  and  N_15
REMARK    7  A    between atoms: C_16  and  C_18
REMARK                            x       y       z     vdW  Elec       q    Type
REMARK                         _______ _______ _______ _____ _____    ______ ____
ROOT
ATOM      1  N   UNL     1      44.917   2.976  12.515  0.00  0.00    +0.000 N 
ATOM      2  C   UNL     1      45.293   4.292  12.759  0.00  0.00    +0.000 A 
ATOM      3  N   UNL     1      44.387   5.274  12.652  0.00  0.00    +0.000 NA
ATOM      4  C   UNL     1      44.824   6.539  12.821  0.00  0.00    +0.000 A 
ATOM      5  C   UNL     1      46.130   6.872  13.099  0.00  0.00    +0.000 A 
ATOM      6  C   UNL     1      46.969   5.786  13.235  0.00  0.00    +0.000 A 
ATOM      7  N   UNL     1      46.578   4.501  13.064  0.00  0.00    +0.000 NA
ATOM      8  H   UNL     1      45.774   2.480  12.282  0.00  0.00    +0.000 HD
ENDROOT
BRANCH   1   9
ATOM      9  C   UNL     1      43.888   2.885  11.488  0.00  0.00    +0.000 C 
BRANCH   9  14
ATOM     10  C   UNL     1      45.772   1.937   8.465  0.00  0.00    +0.000 A 
ATOM     11  C   UNL     1      45.658   3.023   7.616  0.00  0.00    +0.000 A 
ATOM     12  C   UNL     1      44.921   4.121   8.052  0.00  0.00    +0.000 A 
ATOM     13  C   UNL     1      44.331   4.089   9.312  0.00  0.00    +0.000 A 
ATOM     14  C   UNL     1      44.495   2.950  10.103  0.00  0.00    +0.000 A 
ATOM     15  N   UNL     1      45.208   1.876   9.688  0.00  0.00    +0.000 NA
BRANCH  10  17
ATOM     16  C   UNL     1      47.558   1.264   7.120  0.00  0.00    +0.000 C 
ATOM     17  O   UNL     1      46.513   0.867   8.003  0.00  0.00    +0.000 OA
ENDBRANCH  10  17
ENDBRANCH   9  14
ENDBRANCH   1   9
BRANCH   5  18
ATOM     18  C   UNL     1      46.581   8.285  13.186  0.00  0.00    +0.000 C 
BRANCH  18  19
ATOM     19  N   UNL     1      47.861   8.512  12.567  0.00  0.00    +0.000 N 
ATOM     20  C   UNL     1      48.784   9.324  13.186  0.00  0.00    +0.000 C 
ATOM     21  O   UNL     1      48.536   9.862  14.263  0.00  0.00    +0.000 OA
ATOM     22  H   UNL     1      48.163   7.885  11.824  0.00  0.00    +0.000 HD
BRANCH  20  23
ATOM     23  C   UNL     1      50.039   9.588  12.474  0.00  0.00    +0.000 A 
ATOM     24  C   UNL     1      50.038  10.389  11.338  0.00  0.00    +0.000 A 
ATOM     25  S   UNL     1      51.516  10.362  10.486  0.00  0.00    +0.000 S 
ATOM     26  C   UNL     1      52.219   9.327  11.638  0.00  0.00    +0.000 A 
ATOM     27  N   UNL     1      53.469   8.820  11.465  0.00  0.00    +0.000 NA
ATOM     28  C   UNL     1      53.885   8.086  12.443  0.00  0.00    +0.000 A 
ATOM     29  N   UNL     1      53.184   7.852  13.599  0.00  0.00    +0.000 N 
ATOM     30  C   UNL     1      51.935   8.374  13.828  0.00  0.00    +0.000 A 
ATOM     31  O   UNL     1      51.369   8.245  14.910  0.00  0.00    +0.000 OA
ATOM     32  C   UNL     1      51.375   9.104  12.710  0.00  0.00    +0.000 A 
ATOM     33  H   UNL     1      53.598   7.329  14.358  0.00  0.00    +0.000 HD
ENDBRANCH  20  23
ENDBRANCH  18  19
ENDBRANCH   5  18
TORSDOF 6
ENDMDL
MODEL 6
REMARK VINA RESULT:    -6.647      2.071      2.696
REMARK INTER + INTRA:         -10.019
REMARK INTER:                  -9.211
REMARK INTRA:                  -0.808
REMARK UNBOUND:                -1.041
REMARK  Name = 
REMARK  7 active torsions:
REMARK  status: ('A' for Active; 'I' for Inactive)
REMARK    1  A    between atoms: C_1  and  O_2
REMARK    2  A    between atoms: O_2  and  C_3
REMARK    3  A    between atoms: C_7  and  C_8
REMARK    4  A    between atoms: C_8  and  N_9
REMARK    5  A    between atoms: C_13  and  C_14
REMARK    6  A    between atoms: C_14  and  N_15
REMARK    7  A    between atoms: C_16  and  C_18
REMARK                            x       y       z     vdW  Elec       q    Type
REMARK                         _______ _______ _______ _____ _____    ______ ____
ROOT
ATOM      1  N   UNL     1      44.872   6.986  10.951  0.00  0.00    +0.000 N 
ATOM      2  C   UNL     1      45.797   7.471  11.869  0.00  0.00    +0.000 A 
ATOM      3  N   UNL     1      46.555   6.614  12.566  0.00  0.00    +0.000 NA
ATOM      4  C   UNL     1      47.378   7.135  13.500  0.00  0.00    +0.000 A 
ATOM      5  C   UNL     1      47.484   8.480  13.768  0.00  0.00    +0.000 A 
ATOM      6  C   UNL     1      46.697   9.277  12.963  0.00  0.00    +0.000 A 
ATOM      7  N   UNL     1      45.849   8.799  12.022  0.00  0.00    +0.000 NA
ATOM      8  H   UNL     1      44.183   7.724  10.833  0.00  0.00    +0.000 HD
ENDROOT
BRANCH   1   9
ATOM      9  C   UNL     1      44.303   5.713  11.372  0.00  0.00    +0.000 C 
BRANCH   9  14
ATOM     10  C   UNL     1      45.631   3.997   8.392  0.00  0.00    +0.000 A 
ATOM     11  C   UNL     1      45.248   2.676   8.539  0.00  0.00    +0.000 A 
ATOM     12  C   UNL     1      44.523   2.325   9.675  0.00  0.00    +0.000 A 
ATOM     13  C   UNL     1      44.211   3.305  10.613  0.00  0.00    +0.000 A 
ATOM     14  C   UNL     1      44.640   4.614  10.387  0.00  0.00    +0.000 A 
ATOM     15  N   UNL     1      45.347   4.966   9.287  0.00  0.00    +0.000 NA
BRANCH  10  17
ATOM     16  C   UNL     1      47.178   3.240   6.816  0.00  0.00    +0.000 C 
ATOM     17  O   UNL     1      46.345   4.310   7.253  0.00  0.00    +0.000 OA
ENDBRANCH  10  17
ENDBRANCH   9  14
ENDBRANCH   1   9
BRANCH   5  18
ATOM     18  C   UNL     1      48.338   8.999  14.869  0.00  0.00    +0.000 C 
BRANCH  18  19
ATOM     19  N   UNL     1      47.918   8.551  16.172  0.00  0.00    +0.000 N 
ATOM     20  C   UNL     1      48.851   8.389  17.171  0.00  0.00    +0.000 C 
ATOM     21  O   UNL     1      50.041   8.622  16.972  0.00  0.00    +0.000 OA
ATOM     22  H   UNL     1      46.930   8.600  16.411  0.00  0.00    +0.000 HD
BRANCH  20  23
ATOM     23  C   UNL     1      48.384   7.852  18.453  0.00  0.00    +0.000 A 
ATOM     24  C   UNL     1      47.882   8.711  19.424  0.00  0.00    +0.000 A 
ATOM     25  S   UNL     1      47.648   7.960  20.939  0.00  0.00    +0.000 S 
ATOM     26  C   UNL     1      48.154   6.455  20.328  0.00  0.00    +0.000 A 
ATOM     27  N   UNL     1      48.290   5.372  21.138  0.00  0.00    +0.000 NA
ATOM     28  C   UNL     1      48.638   4.289  20.525  0.00  0.00    +0.000 A 
ATOM     29  N   UNL     1      48.817   4.182  19.170  0.00  0.00    +0.000 N 
ATOM     30  C   UNL     1      48.656   5.243  18.312  0.00  0.00    +0.000 A 
ATOM     31  O   UNL     1      48.713   5.104  17.094  0.00  0.00    +0.000 OA
ATOM     32  C   UNL     1      48.384   6.506  18.966  0.00  0.00    +0.000 A 
ATOM     33  H   UNL     1      49.017   3.287  18.744  0.00  0.00    +0.000 HD
ENDBRANCH  20  23
ENDBRANCH  18  19
ENDBRANCH   5  18
TORSDOF 6
ENDMDL
MODEL 7
REMARK VINA RESULT:    -6.611      6.331      7.582
REMARK INTER + INTRA:          -9.970
REMARK INTER:                  -9.086
REMARK INTRA:                  -0.884
REMARK UNBOUND:                -1.041
REMARK  Name = 
REMARK  7 active torsions:
REMARK  status: ('A' for Active; 'I' for Inactive)
REMARK    1  A    between atoms: C_1  and  O_2
REMARK    2  A    between atoms: O_2  and  C_3
REMARK    3  A    between atoms: C_7  and  C_8
REMARK    4  A    between atoms: C_8  and  N_9
REMARK    5  A    between atoms: C_13  and  C_14
REMARK    6  A    between atoms: C_14  and  N_15
REMARK    7  A    between atoms: C_16  and  C_18
REMARK                            x       y       z     vdW  Elec       q    Type
REMARK                         _______ _______ _______ _____ _____    ______ ____
ROOT
ATOM      1  N   UNL     1      47.483   3.250  15.856  0.00  0.00    +0.000 N 
ATOM      2  C   UNL     1      48.685   3.025  16.516  0.00  0.00    +0.000 A 
ATOM      3  N   UNL     1      49.161   3.945  17.366  0.00  0.00    +0.000 NA
ATOM      4  C   UNL     1      50.370   3.711  17.917  0.00  0.00    +0.000 A 
ATOM      5  C   UNL     1      51.129   2.593  17.663  0.00  0.00    +0.000 A 
ATOM      6  C   UNL     1      50.528   1.688  16.813  0.00  0.00    +0.000 A 
ATOM      7  N   UNL     1      49.323   1.884  16.228  0.00  0.00    +0.000 NA
ATOM      8  H   UNL     1      47.503   2.657  15.030  0.00  0.00    +0.000 HD
ENDROOT
BRANCH   1   9
ATOM      9  C   UNL     1      47.279   4.661  15.562  0.00  0.00    +0.000 C 
BRANCH   9  14
ATOM     10  C   UNL     1      45.525   3.973  12.393  0.00  0.00    +0.000 A 
ATOM     11  C   UNL     1      45.701   5.114  11.631  0.00  0.00    +0.000 A 
ATOM     12  C   UNL     1      46.426   6.166  12.183  0.00  0.00    +0.000 A 
ATOM     13  C   UNL     1      46.943   6.036  13.469  0.00  0.00    +0.000 A 
ATOM     14  C   UNL     1      46.715   4.850  14.169  0.00  0.00    +0.000 A 
ATOM     15  N   UNL     1      46.009   3.821  13.643  0.00  0.00    +0.000 NA
BRANCH  10  17
ATOM     16  C   UNL     1      43.396   3.129  11.938  0.00  0.00    +0.000 C 
ATOM     17  O   UNL     1      44.804   2.947  11.814  0.00  0.00    +0.000 OA
ENDBRANCH  10  17
ENDBRANCH   9  14
ENDBRANCH   1   9
BRANCH   5  18
ATOM     18  C   UNL     1      52.495   2.423  18.223  0.00  0.00    +0.000 C 
BRANCH  18  19
ATOM     19  N   UNL     1      53.011   1.088  18.068  0.00  0.00    +0.000 N 
ATOM     20  C   UNL     1      54.195   0.888  17.396  0.00  0.00    +0.000 C 
ATOM     21  O   UNL     1      54.825   1.832  16.924  0.00  0.00    +0.000 OA
ATOM     22  H   UNL     1      52.639   0.348  18.659  0.00  0.00    +0.000 HD
BRANCH  20  23
ATOM     23  C   UNL     1      54.633  -0.497  17.194  0.00  0.00    +0.000 A 
ATOM     24  C   UNL     1      54.964  -0.942  15.919  0.00  0.00    +0.000 A 
ATOM     25  S   UNL     1      55.180  -2.632  15.824  0.00  0.00    +0.000 S 
ATOM     26  C   UNL     1      54.895  -2.813  17.491  0.00  0.00    +0.000 A 
ATOM     27  N   UNL     1      54.830  -4.042  18.070  0.00  0.00    +0.000 NA
ATOM     28  C   UNL     1      54.652  -4.020  19.349  0.00  0.00    +0.000 A 
ATOM     29  N   UNL     1      54.580  -2.880  20.108  0.00  0.00    +0.000 N 
ATOM     30  C   UNL     1      54.675  -1.621  19.569  0.00  0.00    +0.000 A 
ATOM     31  O   UNL     1      54.718  -0.617  20.274  0.00  0.00    +0.000 OA
ATOM     32  C   UNL     1      54.754  -1.592  18.123  0.00  0.00    +0.000 A 
ATOM     33  H   UNL     1      54.515  -2.933  21.115  0.00  0.00    +0.000 HD
ENDBRANCH  20  23
ENDBRANCH  18  19
ENDBRANCH   5  18
TORSDOF 6
ENDMDL
MODEL 8
REMARK VINA RESULT:    -6.420      2.242      2.906
REMARK INTER + INTRA:          -9.713
REMARK INTER:                  -8.991
REMARK INTRA:                  -0.722
REMARK UNBOUND:                -1.041
REMARK  Name = 
REMARK  7 active torsions:
REMARK  status: ('A' for Active; 'I' for Inactive)
REMARK    1  A    between atoms: C_1  and  O_2
REMARK    2  A    between atoms: O_2  and  C_3
REMARK    3  A    between atoms: C_7  and  C_8
REMARK    4  A    between atoms: C_8  and  N_9
REMARK    5  A    between atoms: C_13  and  C_14
REMARK    6  A    between atoms: C_14  and  N_15
REMARK    7  A    between atoms: C_16  and  C_18
REMARK                            x       y       z     vdW  Elec       q    Type
REMARK                         _______ _______ _______ _____ _____    ______ ____
ROOT
ATOM      1  N   UNL     1      44.957   6.943  11.032  0.00  0.00    +0.000 N 
ATOM      2  C   UNL     1      46.136   7.239  11.707  0.00  0.00    +0.000 A 
ATOM      3  N   UNL     1      46.950   6.248  12.093  0.00  0.00    +0.000 NA
ATOM      4  C   UNL     1      48.039   6.586  12.814  0.00  0.00    +0.000 A 
ATOM      5  C   UNL     1      48.358   7.877  13.166  0.00  0.00    +0.000 A 
ATOM      6  C   UNL     1      47.482   8.824  12.679  0.00  0.00    +0.000 A 
ATOM      7  N   UNL     1      46.372   8.532  11.961  0.00  0.00    +0.000 NA
ATOM      8  H   UNL     1      44.347   7.744  11.172  0.00  0.00    +0.000 HD
ENDROOT
BRANCH   1   9
ATOM      9  C   UNL     1      44.380   5.681  11.472  0.00  0.00    +0.000 C 
BRANCH   9  14
ATOM     10  C   UNL     1      45.476   3.971   8.396  0.00  0.00    +0.000 A 
ATOM     11  C   UNL     1      45.001   2.677   8.516  0.00  0.00    +0.000 A 
ATOM     12  C   UNL     1      44.290   2.344   9.665  0.00  0.00    +0.000 A 
ATOM     13  C   UNL     1      44.084   3.312  10.644  0.00  0.00    +0.000 A 
ATOM     14  C   UNL     1      44.602   4.593  10.442  0.00  0.00    +0.000 A 
ATOM     15  N   UNL     1      45.296   4.928   9.329  0.00  0.00    +0.000 NA
BRANCH  10  17
ATOM     16  C   UNL     1      46.935   3.164   6.761  0.00  0.00    +0.000 C 
ATOM     17  O   UNL     1      46.174   4.268   7.242  0.00  0.00    +0.000 OA
ENDBRANCH  10  17
ENDBRANCH   9  14
ENDBRANCH   1   9
BRANCH   5  18
ATOM     18  C   UNL     1      49.519   8.192  14.039  0.00  0.00    +0.000 C 
BRANCH  18  19
ATOM     19  N   UNL     1      49.553   7.404  15.244  0.00  0.00    +0.000 N 
ATOM     20  C   UNL     1      50.763   7.094  15.823  0.00  0.00    +0.000 C 
ATOM     21  O   UNL     1      51.820   7.480  15.330  0.00  0.00    +0.000 OA
ATOM     22  H   UNL     1      48.697   7.299  15.785  0.00  0.00    +0.000 HD
BRANCH  20  23
ATOM     23  C   UNL     1      50.746   6.220  17.000  0.00  0.00    +0.000 A 
ATOM     24  C   UNL     1      51.730   5.252  17.162  0.00  0.00    +0.000 A 
ATOM     25  S   UNL     1      51.403   4.154  18.426  0.00  0.00    +0.000 S 
ATOM     26  C   UNL     1      49.968   4.971  18.833  0.00  0.00    +0.000 A 
ATOM     27  N   UNL     1      49.126   4.493  19.788  0.00  0.00    +0.000 NA
ATOM     28  C   UNL     1      48.101   5.243  20.018  0.00  0.00    +0.000 A 
ATOM     29  N   UNL     1      47.865   6.452  19.413  0.00  0.00    +0.000 N 
ATOM     30  C   UNL     1      48.707   6.987  18.470  0.00  0.00    +0.000 A 
ATOM     31  O   UNL     1      48.539   8.117  18.020  0.00  0.00    +0.000 OA
ATOM     32  C   UNL     1      49.807   6.126  18.090  0.00  0.00    +0.000 A 
ATOM     33  H   UNL     1      47.082   7.026  19.693  0.00  0.00    +0.000 HD
ENDBRANCH  20  23
ENDBRANCH  18  19
ENDBRANCH   5  18
TORSDOF 6
ENDMDL
MODEL 9
REMARK VINA RESULT:    -6.214      2.278      2.620
REMARK INTER + INTRA:          -9.435
REMARK INTER:                  -8.534
REMARK INTRA:                  -0.901
REMARK UNBOUND:                -1.041
REMARK  Name = 
REMARK  7 active torsions:
REMARK  status: ('A' for Active; 'I' for Inactive)
REMARK    1  A    between atoms: C_1  and  O_2
REMARK    2  A    between atoms: O_2  and  C_3
REMARK    3  A    between atoms: C_7  and  C_8
REMARK    4  A    between atoms: C_8  and  N_9
REMARK    5  A    between atoms: C_13  and  C_14
REMARK    6  A    between atoms: C_14  and  N_15
REMARK    7  A    between atoms: C_16  and  C_18
REMARK                            x       y       z     vdW  Elec       q    Type
REMARK                         _______ _______ _______ _____ _____    ______ ____
ROOT
ATOM      1  N   UNL     1      45.050   5.727  12.212  0.00  0.00    +0.000 N 
ATOM      2  C   UNL     1      46.190   6.185  12.863  0.00  0.00    +0.000 A 
ATOM      3  N   UNL     1      46.751   7.343  12.489  0.00  0.00    +0.000 NA
ATOM      4  C   UNL     1      47.900   7.700  13.099  0.00  0.00    +0.000 A 
ATOM      5  C   UNL     1      48.516   6.953  14.076  0.00  0.00    +0.000 A 
ATOM      6  C   UNL     1      47.833   5.805  14.420  0.00  0.00    +0.000 A 
ATOM      7  N   UNL     1      46.684   5.402  13.828  0.00  0.00    +0.000 NA
ATOM      8  H   UNL     1      45.023   4.723  12.371  0.00  0.00    +0.000 HD
ENDROOT
BRANCH   1   9
ATOM      9  C   UNL     1      45.041   6.099  10.804  0.00  0.00    +0.000 C 
BRANCH   9  14
ATOM     10  C   UNL     1      45.927   3.973   7.925  0.00  0.00    +0.000 A 
ATOM     11  C   UNL     1      45.450   2.715   8.248  0.00  0.00    +0.000 A 
ATOM     12  C   UNL     1      44.811   2.550   9.474  0.00  0.00    +0.000 A 
ATOM     13  C   UNL     1      44.675   3.645  10.323  0.00  0.00    +0.000 A 
ATOM     14  C   UNL     1      45.188   4.879   9.919  0.00  0.00    +0.000 A 
ATOM     15  N   UNL     1      45.813   5.049   8.730  0.00  0.00    +0.000 NA
BRANCH  10  17
ATOM     16  C   UNL     1      46.658   2.862   6.007  0.00  0.00    +0.000 C 
ATOM     17  O   UNL     1      46.552   4.101   6.700  0.00  0.00    +0.000 OA
ENDBRANCH  10  17
ENDBRANCH   9  14
ENDBRANCH   1   9
BRANCH   5  18
ATOM     18  C   UNL     1      49.829   7.342  14.655  0.00  0.00    +0.000 C 
BRANCH  18  19
ATOM     19  N   UNL     1      49.950   7.023  16.054  0.00  0.00    +0.000 N 
ATOM     20  C   UNL     1      50.726   7.815  16.870  0.00  0.00    +0.000 C 
ATOM     21  O   UNL     1      51.319   8.795  16.426  0.00  0.00    +0.000 OA
ATOM     22  H   UNL     1      49.277   6.382  16.469  0.00  0.00    +0.000 HD
BRANCH  20  23
ATOM     23  C   UNL     1      50.882   7.398  18.267  0.00  0.00    +0.000 A 
ATOM     24  C   UNL     1      50.674   8.313  19.292  0.00  0.00    +0.000 A 
ATOM     25  S   UNL     1      51.165   7.742  20.823  0.00  0.00    +0.000 S 
ATOM     26  C   UNL     1      51.617   6.237  20.173  0.00  0.00    +0.000 A 
ATOM     27  N   UNL     1      52.220   5.288  20.937  0.00  0.00    +0.000 NA
ATOM     28  C   UNL     1      52.463   4.181  20.317  0.00  0.00    +0.000 A 
ATOM     29  N   UNL     1      52.115   3.921  19.016  0.00  0.00    +0.000 N 
ATOM     30  C   UNL     1      51.473   4.838  18.221  0.00  0.00    +0.000 A 
ATOM     31  O   UNL     1      51.072   4.551  17.097  0.00  0.00    +0.000 OA
ATOM     32  C   UNL     1      51.287   6.137  18.834  0.00  0.00    +0.000 A 
ATOM     33  H   UNL     1      52.267   3.006  18.613  0.00  0.00    +0.000 HD
ENDBRANCH  20  23
ENDBRANCH  18  19
ENDBRANCH   5  18
TORSDOF 6
ENDMDL
