MODEL 1
REMARK VINA RESULT:    -7.913      0.000      0.000
REMARK INTER + INTRA:         -11.291
REMARK INTER:                 -10.226
REMARK INTRA:                  -1.065
REMARK UNBOUND:                -1.065
REMARK  Name = 
REMARK  5 active torsions:
REMARK  status: ('A' for Active; 'I' for Inactive)
REMARK    1  A    between atoms: C_2  and  C_3
REMARK    2  A    between atoms: C_8  and  N_9
REMARK    3  A    between atoms: N_9  and  C_10
REMARK    4  A    between atoms: C_10  and  C_11
REMARK    5  A    between atoms: C_15  and  C_16
REMARK                            x       y       z     vdW  Elec       q    Type
REMARK                         _______ _______ _______ _____ _____    ______ ____
ROOT
ATOM      1  C   UNL     1      44.059   5.220  11.136  0.00  0.00    +0.000 A 
ATOM      2  C   UNL     1      43.283   4.320  11.873  0.00  0.00    +0.000 A 
ATOM      3  C   UNL     1      43.305   2.960  11.565  0.00  0.00    +0.000 A 
ATOM      4  C   UNL     1      44.088   2.493  10.506  0.00  0.00    +0.000 A 
ATOM      5  C   UNL     1      44.861   3.371   9.727  0.00  0.00    +0.000 A 
ATOM      6  C   UNL     1      44.838   4.734  10.075  0.00  0.00    +0.000 A 
ENDROOT
BRANCH   5   7
ATOM      7  C   UNL     1      45.647   2.900   8.571  0.00  0.00    +0.000 A 
ATOM      8  C   UNL     1      46.000   3.746   7.509  0.00  0.00    +0.000 A 
ATOM      9  C   UNL     1      46.702   3.255   6.410  0.00  0.00    +0.000 A 
ATOM     10  C   UNL     1      47.053   1.918   6.401  0.00  0.00    +0.000 A 
ATOM     11  N   UNL     1      46.748   1.061   7.395  0.00  0.00    +0.000 NA
ATOM     12  C   UNL     1      46.056   1.568   8.442  0.00  0.00    +0.000 A 
ENDBRANCH   5   7
BRANCH   1  13
ATOM     13  C   UNL     1      44.078   6.694  11.459  0.00  0.00    +0.000 C 
BRANCH  13  14
ATOM     14  N   UNL     1      44.881   6.950  12.650  0.00  0.00    +0.000 N 
ATOM     15  H   UNL     1      44.488   7.673  13.250  0.00  0.00    +0.000 HD
BRANCH  14  21
ATOM     16  C   UNL     1      47.150   5.908  13.070  0.00  0.00    +0.000 A 
ATOM     17  N   UNL     1      48.512   6.017  13.115  0.00  0.00    +0.000 NA
ATOM     18  C   UNL     1      49.057   7.193  12.756  0.00  0.00    +0.000 A 
ATOM     19  C   UNL     1      48.307   8.275  12.345  0.00  0.00    +0.000 A 
ATOM     20  C   UNL     1      46.919   8.137  12.299  0.00  0.00    +0.000 A 
ATOM     21  C   UNL     1      46.280   6.930  12.647  0.00  0.00    +0.000 A 
BRANCH  16  23
ATOM     22  N   UNL     1      46.379   3.526  13.769  0.00  0.00    +0.000 NA
ATOM     23  C   UNL     1      46.714   4.597  13.472  0.00  0.00    +0.000 C 
ENDBRANCH  16  23
ENDBRANCH  14  21
ENDBRANCH  13  14
ENDBRANCH   1  13
TORSDOF 5
ENDMDL
MODEL 2
REMARK VINA RESULT:    -7.295      1.351      2.376
REMARK INTER + INTRA:         -10.493
REMARK INTER:                  -9.628
REMARK INTRA:                  -0.865
REMARK UNBOUND:                -1.065
REMARK  Name = 
REMARK  5 active torsions:
REMARK  status: ('A' for Active; 'I' for Inactive)
REMARK    1  A    between atoms: C_2  and  C_3
REMARK    2  A    between atoms: C_8  and  N_9
REMARK    3  A    between atoms: N_9  and  C_10
REMARK    4  A    between atoms: C_10  and  C_11
REMARK    5  A    between atoms: C_15  and  C_16
REMARK                            x       y       z     vdW  Elec       q    Type
REMARK                         _______ _______ _______ _____ _____    ______ ____
ROOT
ATOM      1  C   UNL     1      43.797   5.018  10.979  0.00  0.00    +0.000 A 
ATOM      2  C   UNL     1      43.131   4.049  11.735  0.00  0.00    +0.000 A 
ATOM      3  C   UNL     1      43.308   2.695  11.452  0.00  0.00    +0.000 A 
ATOM      4  C   UNL     1      44.137   2.301  10.398  0.00  0.00    +0.000 A 
ATOM      5  C   UNL     1      44.803   3.247   9.601  0.00  0.00    +0.000 A 
ATOM      6  C   UNL     1      44.625   4.605   9.923  0.00  0.00    +0.000 A 
ENDROOT
BRANCH   5   7
ATOM      7  C   UNL     1      45.637   2.848   8.451  0.00  0.00    +0.000 A 
ATOM      8  C   UNL     1      45.946   3.731   7.405  0.00  0.00    +0.000 A 
ATOM      9  C   UNL     1      46.695   3.306   6.311  0.00  0.00    +0.000 A 
ATOM     10  C   UNL     1      47.137   1.995   6.289  0.00  0.00    +0.000 A 
ATOM     11  N   UNL     1      46.877   1.105   7.266  0.00  0.00    +0.000 NA
ATOM     12  C   UNL     1      46.137   1.549   8.310  0.00  0.00    +0.000 A 
ENDBRANCH   5   7
BRANCH   1  13
ATOM     13  C   UNL     1      43.648   6.490  11.275  0.00  0.00    +0.000 C 
BRANCH  13  14
ATOM     14  N   UNL     1      44.393   6.852  12.475  0.00  0.00    +0.000 N 
ATOM     15  H   UNL     1      43.798   7.195  13.227  0.00  0.00    +0.000 HD
BRANCH  14  21
ATOM     16  C   UNL     1      45.969   8.816  12.213  0.00  0.00    +0.000 A 
ATOM     17  N   UNL     1      47.239   9.307  12.104  0.00  0.00    +0.000 NA
ATOM     18  C   UNL     1      48.257   8.432  12.192  0.00  0.00    +0.000 A 
ATOM     19  C   UNL     1      48.071   7.080  12.390  0.00  0.00    +0.000 A 
ATOM     20  C   UNL     1      46.764   6.604  12.507  0.00  0.00    +0.000 A 
ATOM     21  C   UNL     1      45.650   7.464  12.439  0.00  0.00    +0.000 A 
BRANCH  16  23
ATOM     22  N   UNL     1      44.185  10.700  12.051  0.00  0.00    +0.000 NA
ATOM     23  C   UNL     1      44.989   9.866  12.107  0.00  0.00    +0.000 C 
ENDBRANCH  16  23
ENDBRANCH  14  21
ENDBRANCH  13  14
ENDBRANCH   1  13
TORSDOF 5
ENDMDL
MODEL 3
REMARK VINA RESULT:    -6.775      1.550      2.115
REMARK INTER + INTRA:          -9.820
REMARK INTER:                  -9.052
REMARK INTRA:                  -0.768
REMARK UNBOUND:                -1.065
REMARK  Name = 
REMARK  5 active torsions:
REMARK  status: ('A' for Active; 'I' for Inactive)
REMARK    1  A    between atoms: C_2  and  C_3
REMARK    2  A    between atoms: C_8  and  N_9
REMARK    3  A    between atoms: N_9  and  C_10
REMARK    4  A    between atoms: C_10  and  C_11
REMARK    5  A    between atoms: C_15  and  C_16
REMARK                            x       y       z     vdW  Elec       q    Type
REMARK                         _______ _______ _______ _____ _____    ______ ____
ROOT
ATOM      1  C   UNL     1      44.965   3.587  11.466  0.00  0.00    +0.000 A 
ATOM      2  C   UNL     1      43.964   4.533  11.220  0.00  0.00    +0.000 A 
ATOM      3  C   UNL     1      43.616   4.860   9.911  0.00  0.00    +0.000 A 
ATOM      4  C   UNL     1      44.277   4.258   8.836  0.00  0.00    +0.000 A 
ATOM      5  C   UNL     1      45.305   3.322   9.044  0.00  0.00    +0.000 A 
ATOM      6  C   UNL     1      45.620   2.993  10.376  0.00  0.00    +0.000 A 
ENDROOT
BRANCH   5   7
ATOM      7  C   UNL     1      46.050   2.721   7.923  0.00  0.00    +0.000 A 
ATOM      8  C   UNL     1      46.330   3.426   6.743  0.00  0.00    +0.000 A 
ATOM      9  C   UNL     1      46.994   2.811   5.685  0.00  0.00    +0.000 A 
ATOM     10  C   UNL     1      47.382   1.492   5.834  0.00  0.00    +0.000 A 
ATOM     11  N   UNL     1      47.147   0.767   6.944  0.00  0.00    +0.000 NA
ATOM     12  C   UNL     1      46.490   1.393   7.949  0.00  0.00    +0.000 A 
ENDBRANCH   5   7
BRANCH   1  13
ATOM     13  C   UNL     1      45.348   3.191  12.871  0.00  0.00    +0.000 C 
BRANCH  13  14
ATOM     14  N   UNL     1      45.392   4.360  13.742  0.00  0.00    +0.000 N 
ATOM     15  H   UNL     1      44.595   4.981  13.618  0.00  0.00    +0.000 HD
BRANCH  14  21
ATOM     16  C   UNL     1      47.352   4.958  15.229  0.00  0.00    +0.000 A 
ATOM     17  N   UNL     1      48.451   5.728  15.485  0.00  0.00    +0.000 NA
ATOM     18  C   UNL     1      48.801   6.643  14.563  0.00  0.00    +0.000 A 
ATOM     19  C   UNL     1      48.107   6.827  13.386  0.00  0.00    +0.000 A 
ATOM     20  C   UNL     1      46.993   6.022  13.143  0.00  0.00    +0.000 A 
ATOM     21  C   UNL     1      46.577   5.034  14.057  0.00  0.00    +0.000 A 
BRANCH  16  23
ATOM     22  N   UNL     1      46.876   3.285  17.161  0.00  0.00    +0.000 NA
ATOM     23  C   UNL     1      47.106   4.023  16.296  0.00  0.00    +0.000 C 
ENDBRANCH  16  23
ENDBRANCH  14  21
ENDBRANCH  13  14
ENDBRANCH   1  13
TORSDOF 5
ENDMDL
MODEL 4
REMARK VINA RESULT:    -6.681      2.382      6.760
REMARK INTER + INTRA:          -9.699
REMARK INTER:                  -9.201
REMARK INTRA:                  -0.497
REMARK UNBOUND:                -1.065
REMARK  Name = 
REMARK  5 active torsions:
REMARK  status: ('A' for Active; 'I' for Inactive)
REMARK    1  A    between atoms: C_2  and  C_3
REMARK    2  A    between atoms: C_8  and  N_9
REMARK    3  A    between atoms: N_9  and  C_10
REMARK    4  A    between atoms: C_10  and  C_11
REMARK    5  A    between atoms: C_15  and  C_16
REMARK                            x       y       z     vdW  Elec       q    Type
REMARK                         _______ _______ _______ _____ _____    ______ ____
ROOT
ATOM      1  C   UNL     1      45.726   5.941  12.236  0.00  0.00    +0.000 A 
ATOM      2  C   UNL     1      46.618   6.768  11.548  0.00  0.00    +0.000 A 
ATOM      3  C   UNL     1      47.876   7.042  12.084  0.00  0.00    +0.000 A 
ATOM      4  C   UNL     1      48.243   6.508  13.323  0.00  0.00    +0.000 A 
ATOM      5  C   UNL     1      47.363   5.694  14.055  0.00  0.00    +0.000 A 
ATOM      6  C   UNL     1      46.110   5.414  13.479  0.00  0.00    +0.000 A 
ENDROOT
BRANCH   5   7
ATOM      7  C   UNL     1      47.714   5.169  15.388  0.00  0.00    +0.000 A 
ATOM      8  C   UNL     1      47.150   3.993  15.905  0.00  0.00    +0.000 A 
ATOM      9  C   UNL     1      47.468   3.554  17.188  0.00  0.00    +0.000 A 
ATOM     10  C   UNL     1      48.364   4.300  17.932  0.00  0.00    +0.000 A 
ATOM     11  N   UNL     1      48.942   5.432  17.487  0.00  0.00    +0.000 NA
ATOM     12  C   UNL     1      48.602   5.836  16.239  0.00  0.00    +0.000 A 
ENDBRANCH   5   7
BRANCH   1  13
ATOM     13  C   UNL     1      44.367   5.603  11.672  0.00  0.00    +0.000 C 
BRANCH  13  14
ATOM     14  N   UNL     1      44.416   5.540  10.216  0.00  0.00    +0.000 N 
ATOM     15  H   UNL     1      43.642   6.027   9.768  0.00  0.00    +0.000 HD
BRANCH  14  21
ATOM     16  C   UNL     1      44.625   3.049   9.814  0.00  0.00    +0.000 A 
ATOM     17  N   UNL     1      45.160   2.004   9.114  0.00  0.00    +0.000 NA
ATOM     18  C   UNL     1      45.971   2.294   8.081  0.00  0.00    +0.000 A 
ATOM     19  C   UNL     1      46.275   3.585   7.703  0.00  0.00    +0.000 A 
ATOM     20  C   UNL     1      45.710   4.636   8.428  0.00  0.00    +0.000 A 
ATOM     21  C   UNL     1      44.840   4.407   9.513  0.00  0.00    +0.000 A 
BRANCH  16  23
ATOM     22  N   UNL     1      43.064   2.228  11.723  0.00  0.00    +0.000 NA
ATOM     23  C   UNL     1      43.776   2.586  10.880  0.00  0.00    +0.000 C 
ENDBRANCH  16  23
ENDBRANCH  14  21
ENDBRANCH  13  14
ENDBRANCH   1  13
TORSDOF 5
ENDMDL
MODEL 5
REMARK VINA RESULT:    -6.575      1.537      6.145
REMARK INTER + INTRA:          -9.562
REMARK INTER:                  -8.813
REMARK INTRA:                  -0.750
REMARK UNBOUND:                -1.065
REMARK  Name = 
REMARK  5 active torsions:
REMARK  status: ('A' for Active; 'I' for Inactive)
REMARK    1  A    between atoms: C_2  and  C_3
REMARK    2  A    between atoms: C_8  and  N_9
REMARK    3  A    between atoms: N_9  and  C_10
REMARK    4  A    between atoms: C_10  and  C_11
REMARK    5  A    between atoms: C_15  and  C_16
REMARK                            x       y       z     vdW  Elec       q    Type
REMARK                         _______ _______ _______ _____ _____    ______ ____
ROOT
ATOM      1  C   UNL     1      44.164   3.557  10.916  0.00  0.00    +0.000 A 
ATOM      2  C   UNL     1      43.027   3.799  11.693  0.00  0.00    +0.000 A 
ATOM      3  C   UNL     1      43.058   4.765  12.698  0.00  0.00    +0.000 A 
ATOM      4  C   UNL     1      44.232   5.483  12.947  0.00  0.00    +0.000 A 
ATOM      5  C   UNL     1      45.401   5.249  12.203  0.00  0.00    +0.000 A 
ATOM      6  C   UNL     1      45.334   4.285  11.180  0.00  0.00    +0.000 A 
ENDROOT
BRANCH   5   7
ATOM      7  C   UNL     1      46.662   5.957  12.491  0.00  0.00    +0.000 A 
ATOM      8  C   UNL     1      47.214   6.898  11.609  0.00  0.00    +0.000 A 
ATOM      9  C   UNL     1      48.432   7.511  11.891  0.00  0.00    +0.000 A 
ATOM     10  C   UNL     1      49.075   7.179  13.069  0.00  0.00    +0.000 A 
ATOM     11  N   UNL     1      48.591   6.289  13.957  0.00  0.00    +0.000 NA
ATOM     12  C   UNL     1      47.410   5.703  13.646  0.00  0.00    +0.000 A 
ENDBRANCH   5   7
BRANCH   1  13
ATOM     13  C   UNL     1      44.157   2.537   9.803  0.00  0.00    +0.000 C 
BRANCH  13  14
ATOM     14  N   UNL     1      45.518   2.161   9.441  0.00  0.00    +0.000 N 
ATOM     15  H   UNL     1      46.188   2.310  10.193  0.00  0.00    +0.000 HD
BRANCH  14  21
ATOM     16  C   UNL     1      46.677   1.450   7.305  0.00  0.00    +0.000 A 
ATOM     17  N   UNL     1      47.259   1.772   6.111  0.00  0.00    +0.000 NA
ATOM     18  C   UNL     1      47.263   3.067   5.747  0.00  0.00    +0.000 A 
ATOM     19  C   UNL     1      46.708   4.066   6.518  0.00  0.00    +0.000 A 
ATOM     20  C   UNL     1      46.111   3.711   7.730  0.00  0.00    +0.000 A 
ATOM     21  C   UNL     1      46.057   2.373   8.168  0.00  0.00    +0.000 A 
BRANCH  16  23
ATOM     22  N   UNL     1      46.784  -1.113   7.724  0.00  0.00    +0.000 NA
ATOM     23  C   UNL     1      46.741   0.034   7.555  0.00  0.00    +0.000 C 
ENDBRANCH  16  23
ENDBRANCH  14  21
ENDBRANCH  13  14
ENDBRANCH   1  13
TORSDOF 5
ENDMDL
MODEL 6
REMARK VINA RESULT:    -6.394      1.371      2.456
REMARK INTER + INTRA:          -9.328
REMARK INTER:                  -8.689
REMARK INTRA:                  -0.639
REMARK UNBOUND:                -1.065
REMARK  Name = 
REMARK  5 active torsions:
REMARK  status: ('A' for Active; 'I' for Inactive)
REMARK    1  A    between atoms: C_2  and  C_3
REMARK    2  A    between atoms: C_8  and  N_9
REMARK    3  A    between atoms: N_9  and  C_10
REMARK    4  A    between atoms: C_10  and  C_11
REMARK    5  A    between atoms: C_15  and  C_16
REMARK                            x       y       z     vdW  Elec       q    Type
REMARK                         _______ _______ _______ _____ _____    ______ ____
ROOT
ATOM      1  C   UNL     1      44.985   5.535  11.197  0.00  0.00    +0.000 A 
ATOM      2  C   UNL     1      43.776   5.018  11.674  0.00  0.00    +0.000 A 
ATOM      3  C   UNL     1      43.254   3.844  11.134  0.00  0.00    +0.000 A 
ATOM      4  C   UNL     1      43.925   3.188  10.098  0.00  0.00    +0.000 A 
ATOM      5  C   UNL     1      45.129   3.691   9.575  0.00  0.00    +0.000 A 
ATOM      6  C   UNL     1      45.645   4.864  10.156  0.00  0.00    +0.000 A 
ENDROOT
BRANCH   5   7
ATOM      7  C   UNL     1      45.819   3.041   8.446  0.00  0.00    +0.000 A 
ATOM      8  C   UNL     1      46.202   3.745   7.294  0.00  0.00    +0.000 A 
ATOM      9  C   UNL     1      46.809   3.089   6.226  0.00  0.00    +0.000 A 
ATOM     10  C   UNL     1      47.036   1.729   6.337  0.00  0.00    +0.000 A 
ATOM     11  N   UNL     1      46.697   1.003   7.419  0.00  0.00    +0.000 NA
ATOM     12  C   UNL     1      46.099   1.670   8.434  0.00  0.00    +0.000 A 
ENDBRANCH   5   7
BRANCH   1  13
ATOM     13  C   UNL     1      45.591   6.789  11.778  0.00  0.00    +0.000 C 
BRANCH  13  14
ATOM     14  N   UNL     1      46.965   6.547  12.203  0.00  0.00    +0.000 N 
ATOM     15  H   UNL     1      47.545   6.141  11.470  0.00  0.00    +0.000 HD
BRANCH  14  21
ATOM     16  C   UNL     1      48.269   6.614  14.372  0.00  0.00    +0.000 A 
ATOM     17  N   UNL     1      48.592   6.053  15.576  0.00  0.00    +0.000 NA
ATOM     18  C   UNL     1      47.960   4.919  15.927  0.00  0.00    +0.000 A 
ATOM     19  C   UNL     1      47.011   4.311  15.133  0.00  0.00    +0.000 A 
ATOM     20  C   UNL     1      46.691   4.907  13.911  0.00  0.00    +0.000 A 
ATOM     21  C   UNL     1      47.302   6.104  13.486  0.00  0.00    +0.000 A 
BRANCH  16  23
ATOM     22  N   UNL     1      49.588   8.813  13.945  0.00  0.00    +0.000 NA
ATOM     23  C   UNL     1      49.016   7.822  14.138  0.00  0.00    +0.000 C 
ENDBRANCH  16  23
ENDBRANCH  14  21
ENDBRANCH  13  14
ENDBRANCH   1  13
TORSDOF 5
ENDMDL
MODEL 7
REMARK VINA RESULT:    -6.209      3.027      4.416
REMARK INTER + INTRA:          -9.089
REMARK INTER:                  -8.520
REMARK INTRA:                  -0.569
REMARK UNBOUND:                -1.065
REMARK  Name = 
REMARK  5 active torsions:
REMARK  status: ('A' for Active; 'I' for Inactive)
REMARK    1  A    between atoms: C_2  and  C_3
REMARK    2  A    between atoms: C_8  and  N_9
REMARK    3  A    between atoms: N_9  and  C_10
REMARK    4  A    between atoms: C_10  and  C_11
REMARK    5  A    between atoms: C_15  and  C_16
REMARK                            x       y       z     vdW  Elec       q    Type
REMARK                         _______ _______ _______ _____ _____    ______ ____
ROOT
ATOM      1  C   UNL     1      47.171   7.097  13.146  0.00  0.00    +0.000 A 
ATOM      2  C   UNL     1      46.408   8.268  13.163  0.00  0.00    +0.000 A 
ATOM      3  C   UNL     1      45.280   8.382  12.350  0.00  0.00    +0.000 A 
ATOM      4  C   UNL     1      44.919   7.334  11.499  0.00  0.00    +0.000 A 
ATOM      5  C   UNL     1      45.676   6.152  11.436  0.00  0.00    +0.000 A 
ATOM      6  C   UNL     1      46.795   6.055  12.284  0.00  0.00    +0.000 A 
ENDROOT
BRANCH   5   7
ATOM      7  C   UNL     1      45.340   5.060  10.503  0.00  0.00    +0.000 A 
ATOM      8  C   UNL     1      45.726   5.079   9.154  0.00  0.00    +0.000 A 
ATOM      9  C   UNL     1      45.350   4.054   8.291  0.00  0.00    +0.000 A 
ATOM     10  C   UNL     1      44.598   3.011   8.800  0.00  0.00    +0.000 A 
ATOM     11  N   UNL     1      44.204   2.935  10.086  0.00  0.00    +0.000 NA
ATOM     12  C   UNL     1      44.578   3.954  10.896  0.00  0.00    +0.000 A 
ENDBRANCH   5   7
BRANCH   1  13
ATOM     13  C   UNL     1      48.381   6.930  14.032  0.00  0.00    +0.000 C 
BRANCH  13  14
ATOM     14  N   UNL     1      47.994   6.420  15.342  0.00  0.00    +0.000 N 
ATOM     15  H   UNL     1      47.282   6.988  15.798  0.00  0.00    +0.000 HD
BRANCH  14  21
ATOM     16  C   UNL     1      48.714   4.754  17.107  0.00  0.00    +0.000 A 
ATOM     17  N   UNL     1      49.636   4.318  18.017  0.00  0.00    +0.000 NA
ATOM     18  C   UNL     1      50.794   4.997  18.107  0.00  0.00    +0.000 A 
ATOM     19  C   UNL     1      51.084   6.095  17.325  0.00  0.00    +0.000 A 
ATOM     20  C   UNL     1      50.130   6.516  16.396  0.00  0.00    +0.000 A 
ATOM     21  C   UNL     1      48.901   5.844  16.237  0.00  0.00    +0.000 A 
BRANCH  16  23
ATOM     22  N   UNL     1      46.564   3.293  17.134  0.00  0.00    +0.000 NA
ATOM     23  C   UNL     1      47.534   3.929  17.118  0.00  0.00    +0.000 C 
ENDBRANCH  16  23
ENDBRANCH  14  21
ENDBRANCH  13  14
ENDBRANCH   1  13
TORSDOF 5
ENDMDL
MODEL 8
REMARK VINA RESULT:    -6.112      3.575      5.672
REMARK INTER + INTRA:          -8.964
REMARK INTER:                  -8.294
REMARK INTRA:                  -0.670
REMARK UNBOUND:                -1.065
REMARK  Name = 
REMARK  5 active torsions:
REMARK  status: ('A' for Active; 'I' for Inactive)
REMARK    1  A    between atoms: C_2  and  C_3
REMARK    2  A    between atoms: C_8  and  N_9
REMARK    3  A    between atoms: N_9  and  C_10
REMARK    4  A    between atoms: C_10  and  C_11
REMARK    5  A    between atoms: C_15  and  C_16
REMARK                            x       y       z     vdW  Elec       q    Type
REMARK                         _______ _______ _______ _____ _____    ______ ____
ROOT
ATOM      1  C   UNL     1      48.202   6.667  14.029  0.00  0.00    +0.000 A 
ATOM      2  C   UNL     1      48.767   7.548  13.102  0.00  0.00    +0.000 A 
ATOM      3  C   UNL     1      48.251   7.631  11.809  0.00  0.00    +0.000 A 
ATOM      4  C   UNL     1      47.180   6.819  11.427  0.00  0.00    +0.000 A 
ATOM      5  C   UNL     1      46.603   5.903  12.323  0.00  0.00    +0.000 A 
ATOM      6  C   UNL     1      47.128   5.857  13.628  0.00  0.00    +0.000 A 
ENDROOT
BRANCH   5   7
ATOM      7  C   UNL     1      45.510   4.999  11.918  0.00  0.00    +0.000 A 
ATOM      8  C   UNL     1      44.843   5.130  10.691  0.00  0.00    +0.000 A 
ATOM      9  C   UNL     1      43.782   4.289  10.363  0.00  0.00    +0.000 A 
ATOM     10  C   UNL     1      43.414   3.314  11.272  0.00  0.00    +0.000 A 
ATOM     11  N   UNL     1      44.021   3.136  12.461  0.00  0.00    +0.000 NA
ATOM     12  C   UNL     1      45.041   3.978  12.753  0.00  0.00    +0.000 A 
ENDBRANCH   5   7
BRANCH   1  13
ATOM     13  C   UNL     1      48.719   6.571  15.443  0.00  0.00    +0.000 C 
BRANCH  13  14
ATOM     14  N   UNL     1      47.902   5.654  16.229  0.00  0.00    +0.000 N 
ATOM     15  H   UNL     1      46.902   5.819  16.125  0.00  0.00    +0.000 HD
BRANCH  14  21
ATOM     16  C   UNL     1      48.684   3.934  17.915  0.00  0.00    +0.000 A 
ATOM     17  N   UNL     1      48.927   3.573  19.210  0.00  0.00    +0.000 NA
ATOM     18  C   UNL     1      48.721   4.496  20.166  0.00  0.00    +0.000 A 
ATOM     19  C   UNL     1      48.286   5.776  19.893  0.00  0.00    +0.000 A 
ATOM     20  C   UNL     1      48.053   6.125  18.561  0.00  0.00    +0.000 A 
ATOM     21  C   UNL     1      48.261   5.213  17.507  0.00  0.00    +0.000 A 
BRANCH  16  23
ATOM     22  N   UNL     1      49.181   2.000  16.251  0.00  0.00    +0.000 NA
ATOM     23  C   UNL     1      48.955   2.850  17.007  0.00  0.00    +0.000 C 
ENDBRANCH  16  23
ENDBRANCH  14  21
ENDBRANCH  13  14
ENDBRANCH   1  13
TORSDOF 5
ENDMDL
MODEL 9
REMARK VINA RESULT:    -6.002      2.700      7.135
REMARK INTER + INTRA:          -8.821
REMARK INTER:                  -8.046
REMARK INTRA:                  -0.775
REMARK UNBOUND:                -1.065
REMARK  Name = 
REMARK  5 active torsions:
REMARK  status: ('A' for Active; 'I' for Inactive)
REMARK    1  A    between atoms: C_2  and  C_3
REMARK    2  A    between atoms: C_8  and  N_9
REMARK    3  A    between atoms: N_9  and  C_10
REMARK    4  A    between atoms: C_10  and  C_11
REMARK    5  A    between atoms: C_15  and  C_16
REMARK                            x       y       z     vdW  Elec       q    Type
REMARK                         _______ _______ _______ _____ _____    ______ ____
ROOT
ATOM      1  C   UNL     1      47.656   6.968  12.852  0.00  0.00    +0.000 A 
ATOM      2  C   UNL     1      48.193   8.223  13.154  0.00  0.00    +0.000 A 
ATOM      3  C   UNL     1      48.744   8.466  14.412  0.00  0.00    +0.000 A 
ATOM      4  C   UNL     1      48.744   7.462  15.384  0.00  0.00    +0.000 A 
ATOM      5  C   UNL     1      48.191   6.196  15.125  0.00  0.00    +0.000 A 
ATOM      6  C   UNL     1      47.663   5.972  13.840  0.00  0.00    +0.000 A 
ENDROOT
BRANCH   5   7
ATOM      7  C   UNL     1      48.132   5.145  16.158  0.00  0.00    +0.000 A 
ATOM      8  C   UNL     1      49.164   4.948  17.088  0.00  0.00    +0.000 A 
ATOM      9  C   UNL     1      49.097   3.914  18.019  0.00  0.00    +0.000 A 
ATOM     10  C   UNL     1      47.981   3.097  18.010  0.00  0.00    +0.000 A 
ATOM     11  N   UNL     1      46.958   3.242  17.147  0.00  0.00    +0.000 NA
ATOM     12  C   UNL     1      47.061   4.250  16.249  0.00  0.00    +0.000 A 
ENDBRANCH   5   7
BRANCH   1  13
ATOM     13  C   UNL     1      47.077   6.664  11.492  0.00  0.00    +0.000 C 
BRANCH  13  14
ATOM     14  N   UNL     1      45.625   6.553  11.564  0.00  0.00    +0.000 N 
ATOM     15  H   UNL     1      45.202   7.235  12.193  0.00  0.00    +0.000 HD
BRANCH  14  21
ATOM     16  C   UNL     1      44.756   4.450  10.455  0.00  0.00    +0.000 A 
ATOM     17  N   UNL     1      43.998   3.313  10.504  0.00  0.00    +0.000 NA
ATOM     18  C   UNL     1      43.370   3.029  11.659  0.00  0.00    +0.000 A 
ATOM     19  C   UNL     1      43.465   3.826  12.781  0.00  0.00    +0.000 A 
ATOM     20  C   UNL     1      44.252   4.977  12.710  0.00  0.00    +0.000 A 
ATOM     21  C   UNL     1      44.949   5.329  11.537  0.00  0.00    +0.000 A 
BRANCH  16  23
ATOM     22  N   UNL     1      45.894   4.758   8.139  0.00  0.00    +0.000 NA
ATOM     23  C   UNL     1      45.369   4.617   9.164  0.00  0.00    +0.000 C 
ENDBRANCH  16  23
ENDBRANCH  14  21
ENDBRANCH  13  14
ENDBRANCH   1  13
TORSDOF 5
ENDMDL
