MODEL 1
REMARK VINA RESULT:    -7.763      0.000      0.000
REMARK INTER + INTRA:         -11.291
REMARK INTER:                 -10.486
REMARK INTRA:                  -0.806
REMARK UNBOUND:                -0.806
REMARK  Name = 
REMARK  7 active torsions:
REMARK  status: ('A' for Active; 'I' for Inactive)
REMARK    1  A    between atoms: C_1  and  C_2
REMARK    2  A    between atoms: C_2  and  C_3
REMARK    3  A    between atoms: C_2  and  C_15
REMARK    4  A    between atoms: C_3  and  N_4
REMARK    5  A    between atoms: N_4  and  C_5
REMARK    6  A    between atoms: C_8  and  C_9
REMARK    7  A    between atoms: C_19  and  C_20
REMARK                            x       y       z     vdW  Elec       q    Type
REMARK                         _______ _______ _______ _____ _____    ______ ____
ROOT
ATOM      1  N   UNL     1      43.981   5.091   9.889  0.00  0.00    +0.000 N 
ATOM      2  H   UNL     1      43.376   5.593   9.244  0.00  0.00    +0.000 HD
ENDROOT
BRANCH   1   3
ATOM      3  C   UNL     1      44.777   4.182   9.170  0.00  0.00    +0.000 A 
ATOM      4  N   UNL     1      45.575   4.673   8.193  0.00  0.00    +0.000 NA
ATOM      5  C   UNL     1      46.376   3.818   7.518  0.00  0.00    +0.000 A 
ATOM      6  C   UNL     1      46.451   2.461   7.773  0.00  0.00    +0.000 A 
ATOM      7  C   UNL     1      45.634   1.953   8.785  0.00  0.00    +0.000 A 
ATOM      8  C   UNL     1      44.785   2.813   9.486  0.00  0.00    +0.000 A 
ATOM      9 CL   UNL     1      43.771   2.155  10.720  0.00  0.00    +0.000 Cl
BRANCH   6  10
ATOM     10  C   UNL     1      47.353   1.552   7.029  0.00  0.00    +0.000 C 
ATOM     11  N   UNL     1      48.464   2.069   6.422  0.00  0.00    +0.000 N 
ATOM     12  O   UNL     1      47.114   0.353   6.953  0.00  0.00    +0.000 OA
ATOM     13  H   UNL     1      48.752   3.035   6.412  0.00  0.00    +0.000 HD
ATOM     14  H   UNL     1      49.053   1.411   5.925  0.00  0.00    +0.000 HD
ENDBRANCH   6  10
ENDBRANCH   1   3
BRANCH   1  15
ATOM     15  C   UNL     1      44.752   5.975  10.753  0.00  0.00    +0.000 C 
BRANCH  15  17
ATOM     16  C   UNL     1      43.244   5.167  12.665  0.00  0.00    +0.000 C 
ATOM     17  C   UNL     1      44.617   5.483  12.162  0.00  0.00    +0.000 C 
BRANCH  17  18
ATOM     18  C   UNL     1      45.749   5.641  13.087  0.00  0.00    +0.000 A 
ATOM     19  C   UNL     1      46.655   6.694  12.917  0.00  0.00    +0.000 A 
ATOM     20  C   UNL     1      47.801   6.782  13.708  0.00  0.00    +0.000 A 
ATOM     21  C   UNL     1      48.044   5.829  14.696  0.00  0.00    +0.000 A 
ATOM     22  C   UNL     1      47.129   4.798  14.914  0.00  0.00    +0.000 A 
ATOM     23  C   UNL     1      45.981   4.709  14.111  0.00  0.00    +0.000 A 
BRANCH  22  24
ATOM     24  C   UNL     1      47.369   3.822  15.938  0.00  0.00    +0.000 C 
ATOM     25  N   UNL     1      47.560   3.034  16.768  0.00  0.00    +0.000 NA
ENDBRANCH  22  24
ENDBRANCH  17  18
ENDBRANCH  15  17
ENDBRANCH   1  15
TORSDOF 6
ENDMDL
MODEL 2
REMARK VINA RESULT:    -7.391      1.894      2.633
REMARK INTER + INTRA:         -10.789
REMARK INTER:                  -9.971
REMARK INTRA:                  -0.818
REMARK UNBOUND:                -0.806
REMARK  Name = 
REMARK  7 active torsions:
REMARK  status: ('A' for Active; 'I' for Inactive)
REMARK    1  A    between atoms: C_1  and  C_2
REMARK    2  A    between atoms: C_2  and  C_3
REMARK    3  A    between atoms: C_2  and  C_15
REMARK    4  A    between atoms: C_3  and  N_4
REMARK    5  A    between atoms: N_4  and  C_5
REMARK    6  A    between atoms: C_8  and  C_9
REMARK    7  A    between atoms: C_19  and  C_20
REMARK                            x       y       z     vdW  Elec       q    Type
REMARK                         _______ _______ _______ _____ _____    ______ ____
ROOT
ATOM      1  N   UNL     1      44.072   5.110   9.947  0.00  0.00    +0.000 N 
ATOM      2  H   UNL     1      43.335   5.493   9.360  0.00  0.00    +0.000 HD
ENDROOT
BRANCH   1   3
ATOM      3  C   UNL     1      44.834   4.193   9.202  0.00  0.00    +0.000 A 
ATOM      4  N   UNL     1      45.636   4.680   8.227  0.00  0.00    +0.000 NA
ATOM      5  C   UNL     1      46.405   3.816   7.526  0.00  0.00    +0.000 A 
ATOM      6  C   UNL     1      46.442   2.453   7.753  0.00  0.00    +0.000 A 
ATOM      7  C   UNL     1      45.620   1.948   8.763  0.00  0.00    +0.000 A 
ATOM      8  C   UNL     1      44.804   2.819   9.490  0.00  0.00    +0.000 A 
ATOM      9 CL   UNL     1      43.783   2.166  10.720  0.00  0.00    +0.000 Cl
BRANCH   6  10
ATOM     10  C   UNL     1      47.309   1.533   6.982  0.00  0.00    +0.000 C 
ATOM     11  N   UNL     1      48.461   2.016   6.425  0.00  0.00    +0.000 N 
ATOM     12  O   UNL     1      47.006   0.354   6.839  0.00  0.00    +0.000 OA
ATOM     13  H   UNL     1      48.802   2.963   6.471  0.00  0.00    +0.000 HD
ATOM     14  H   UNL     1      49.024   1.352   5.906  0.00  0.00    +0.000 HD
ENDBRANCH   6  10
ENDBRANCH   1   3
BRANCH   1  15
ATOM     15  C   UNL     1      44.877   6.139  10.593  0.00  0.00    +0.000 C 
BRANCH  15  17
ATOM     16  C   UNL     1      44.182   5.038  12.804  0.00  0.00    +0.000 C 
ATOM     17  C   UNL     1      45.255   5.646  11.956  0.00  0.00    +0.000 C 
BRANCH  17  18
ATOM     18  C   UNL     1      46.539   6.063  12.538  0.00  0.00    +0.000 A 
ATOM     19  C   UNL     1      46.943   5.564  13.782  0.00  0.00    +0.000 A 
ATOM     20  C   UNL     1      48.096   6.047  14.403  0.00  0.00    +0.000 A 
ATOM     21  C   UNL     1      48.873   7.020  13.775  0.00  0.00    +0.000 A 
ATOM     22  C   UNL     1      48.513   7.497  12.514  0.00  0.00    +0.000 A 
ATOM     23  C   UNL     1      47.349   7.013  11.896  0.00  0.00    +0.000 A 
BRANCH  22  24
ATOM     24  C   UNL     1      49.316   8.490  11.859  0.00  0.00    +0.000 C 
ATOM     25  N   UNL     1      49.967   9.295  11.335  0.00  0.00    +0.000 NA
ENDBRANCH  22  24
ENDBRANCH  17  18
ENDBRANCH  15  17
ENDBRANCH   1  15
TORSDOF 6
ENDMDL
MODEL 3
REMARK VINA RESULT:    -7.346      1.155      1.350
REMARK INTER + INTRA:         -10.728
REMARK INTER:                  -9.947
REMARK INTRA:                  -0.781
REMARK UNBOUND:                -0.806
REMARK  Name = 
REMARK  7 active torsions:
REMARK  status: ('A' for Active; 'I' for Inactive)
REMARK    1  A    between atoms: C_1  and  C_2
REMARK    2  A    between atoms: C_2  and  C_3
REMARK    3  A    between atoms: C_2  and  C_15
REMARK    4  A    between atoms: C_3  and  N_4
REMARK    5  A    between atoms: N_4  and  C_5
REMARK    6  A    between atoms: C_8  and  C_9
REMARK    7  A    between atoms: C_19  and  C_20
REMARK                            x       y       z     vdW  Elec       q    Type
REMARK                         _______ _______ _______ _____ _____    ______ ____
ROOT
ATOM      1  N   UNL     1      44.137   5.133  10.059  0.00  0.00    +0.000 N 
ATOM      2  H   UNL     1      43.351   5.484   9.518  0.00  0.00    +0.000 HD
ENDROOT
BRANCH   1   3
ATOM      3  C   UNL     1      44.895   4.254   9.265  0.00  0.00    +0.000 A 
ATOM      4  N   UNL     1      45.712   4.790   8.328  0.00  0.00    +0.000 NA
ATOM      5  C   UNL     1      46.476   3.961   7.582  0.00  0.00    +0.000 A 
ATOM      6  C   UNL     1      46.494   2.585   7.724  0.00  0.00    +0.000 A 
ATOM      7  C   UNL     1      45.657   2.030   8.695  0.00  0.00    +0.000 A 
ATOM      8  C   UNL     1      44.845   2.865   9.467  0.00  0.00    +0.000 A 
ATOM      9 CL   UNL     1      43.805   2.150  10.646  0.00  0.00    +0.000 Cl
BRANCH   6  10
ATOM     10  C   UNL     1      47.356   1.704   6.905  0.00  0.00    +0.000 C 
ATOM     11  N   UNL     1      48.388   2.256   6.196  0.00  0.00    +0.000 N 
ATOM     12  O   UNL     1      47.156   0.496   6.857  0.00  0.00    +0.000 OA
ATOM     13  H   UNL     1      48.637   3.231   6.154  0.00  0.00    +0.000 HD
ATOM     14  H   UNL     1      48.952   1.616   5.649  0.00  0.00    +0.000 HD
ENDBRANCH   6  10
ENDBRANCH   1   3
BRANCH   1  15
ATOM     15  C   UNL     1      44.932   6.194  10.663  0.00  0.00    +0.000 C 
BRANCH  15  17
ATOM     16  C   UNL     1      44.474   4.945  12.857  0.00  0.00    +0.000 C 
ATOM     17  C   UNL     1      45.427   5.706  11.991  0.00  0.00    +0.000 C 
BRANCH  17  18
ATOM     18  C   UNL     1      46.676   6.258  12.536  0.00  0.00    +0.000 A 
ATOM     19  C   UNL     1      47.554   6.966  11.707  0.00  0.00    +0.000 A 
ATOM     20  C   UNL     1      48.799   7.384  12.180  0.00  0.00    +0.000 A 
ATOM     21  C   UNL     1      49.171   7.119  13.497  0.00  0.00    +0.000 A 
ATOM     22  C   UNL     1      48.291   6.457  14.354  0.00  0.00    +0.000 A 
ATOM     23  C   UNL     1      47.043   6.032  13.872  0.00  0.00    +0.000 A 
BRANCH  22  24
ATOM     24  C   UNL     1      48.667   6.193  15.714  0.00  0.00    +0.000 C 
ATOM     25  N   UNL     1      48.972   5.976  16.812  0.00  0.00    +0.000 NA
ENDBRANCH  22  24
ENDBRANCH  17  18
ENDBRANCH  15  17
ENDBRANCH   1  15
TORSDOF 6
ENDMDL
MODEL 4
REMARK VINA RESULT:    -7.288      3.335      6.491
REMARK INTER + INTRA:         -10.650
REMARK INTER:                  -9.621
REMARK INTRA:                  -1.029
REMARK UNBOUND:                -0.806
REMARK  Name = 
REMARK  7 active torsions:
REMARK  status: ('A' for Active; 'I' for Inactive)
REMARK    1  A    between atoms: C_1  and  C_2
REMARK    2  A    between atoms: C_2  and  C_3
REMARK    3  A    between atoms: C_2  and  C_15
REMARK    4  A    between atoms: C_3  and  N_4
REMARK    5  A    between atoms: N_4  and  C_5
REMARK    6  A    between atoms: C_8  and  C_9
REMARK    7  A    between atoms: C_19  and  C_20
REMARK                            x       y       z     vdW  Elec       q    Type
REMARK                         _______ _______ _______ _____ _____    ______ ____
ROOT
ATOM      1  N   UNL     1      43.423   5.453  12.355  0.00  0.00    +0.000 N 
ATOM      2  H   UNL     1      43.619   4.698  13.007  0.00  0.00    +0.000 HD
ENDROOT
BRANCH   1   3
ATOM      3  C   UNL     1      44.516   6.337  12.323  0.00  0.00    +0.000 A 
ATOM      4  N   UNL     1      44.327   7.560  11.775  0.00  0.00    +0.000 NA
ATOM      5  C   UNL     1      45.357   8.436  11.772  0.00  0.00    +0.000 A 
ATOM      6  C   UNL     1      46.602   8.171  12.313  0.00  0.00    +0.000 A 
ATOM      7  C   UNL     1      46.797   6.912  12.885  0.00  0.00    +0.000 A 
ATOM      8  C   UNL     1      45.753   5.984  12.886  0.00  0.00    +0.000 A 
ATOM      9 CL   UNL     1      46.029   4.427  13.583  0.00  0.00    +0.000 Cl
BRANCH   6  10
ATOM     10  C   UNL     1      47.705   9.158  12.312  0.00  0.00    +0.000 C 
ATOM     11  N   UNL     1      47.513  10.371  12.913  0.00  0.00    +0.000 N 
ATOM     12  O   UNL     1      48.779   8.900  11.781  0.00  0.00    +0.000 OA
ATOM     13  H   UNL     1      46.673  10.692  13.369  0.00  0.00    +0.000 HD
ATOM     14  H   UNL     1      48.294  11.016  12.889  0.00  0.00    +0.000 HD
ENDBRANCH   6  10
ENDBRANCH   1   3
BRANCH   1  15
ATOM     15  C   UNL     1      43.027   4.978  11.035  0.00  0.00    +0.000 C 
BRANCH  15  17
ATOM     16  C   UNL     1      43.465   2.596  11.883  0.00  0.00    +0.000 C 
ATOM     17  C   UNL     1      43.649   3.632  10.819  0.00  0.00    +0.000 C 
BRANCH  17  18
ATOM     18  C   UNL     1      44.671   3.475   9.773  0.00  0.00    +0.000 A 
ATOM     19  C   UNL     1      45.161   4.596   9.094  0.00  0.00    +0.000 A 
ATOM     20  C   UNL     1      46.034   4.450   8.015  0.00  0.00    +0.000 A 
ATOM     21  C   UNL     1      46.447   3.179   7.617  0.00  0.00    +0.000 A 
ATOM     22  C   UNL     1      46.008   2.051   8.311  0.00  0.00    +0.000 A 
ATOM     23  C   UNL     1      45.124   2.202   9.391  0.00  0.00    +0.000 A 
BRANCH  22  24
ATOM     24  C   UNL     1      46.440   0.742   7.912  0.00  0.00    +0.000 C 
ATOM     25  N   UNL     1      46.788  -0.319   7.593  0.00  0.00    +0.000 NA
ENDBRANCH  22  24
ENDBRANCH  17  18
ENDBRANCH  15  17
ENDBRANCH   1  15
TORSDOF 6
ENDMDL
MODEL 5
REMARK VINA RESULT:    -7.189      2.264      3.217
REMARK INTER + INTRA:         -10.517
REMARK INTER:                  -9.756
REMARK INTRA:                  -0.761
REMARK UNBOUND:                -0.806
REMARK  Name = 
REMARK  7 active torsions:
REMARK  status: ('A' for Active; 'I' for Inactive)
REMARK    1  A    between atoms: C_1  and  C_2
REMARK    2  A    between atoms: C_2  and  C_3
REMARK    3  A    between atoms: C_2  and  C_15
REMARK    4  A    between atoms: C_3  and  N_4
REMARK    5  A    between atoms: N_4  and  C_5
REMARK    6  A    between atoms: C_8  and  C_9
REMARK    7  A    between atoms: C_19  and  C_20
REMARK                            x       y       z     vdW  Elec       q    Type
REMARK                         _______ _______ _______ _____ _____    ______ ____
ROOT
ATOM      1  N   UNL     1      44.212   3.137  10.746  0.00  0.00    +0.000 N 
ATOM      2  H   UNL     1      43.620   3.948  10.587  0.00  0.00    +0.000 HD
ENDROOT
BRANCH   1   3
ATOM      3  C   UNL     1      45.057   2.953   9.637  0.00  0.00    +0.000 A 
ATOM      4  N   UNL     1      45.307   1.685   9.235  0.00  0.00    +0.000 NA
ATOM      5  C   UNL     1      46.087   1.491   8.147  0.00  0.00    +0.000 A 
ATOM      6  C   UNL     1      46.639   2.513   7.397  0.00  0.00    +0.000 A 
ATOM      7  C   UNL     1      46.377   3.823   7.806  0.00  0.00    +0.000 A 
ATOM      8  C   UNL     1      45.588   4.048   8.937  0.00  0.00    +0.000 A 
ATOM      9 CL   UNL     1      45.296   5.677   9.433  0.00  0.00    +0.000 Cl
BRANCH   6  10
ATOM     10  C   UNL     1      47.474   2.270   6.198  0.00  0.00    +0.000 C 
ATOM     11  N   UNL     1      47.274   3.036   5.083  0.00  0.00    +0.000 N 
ATOM     12  O   UNL     1      48.333   1.397   6.197  0.00  0.00    +0.000 OA
ATOM     13  H   UNL     1      46.593   3.770   4.969  0.00  0.00    +0.000 HD
ATOM     14  H   UNL     1      47.867   2.835   4.286  0.00  0.00    +0.000 HD
ENDBRANCH   6  10
ENDBRANCH   1   3
BRANCH   1  15
ATOM     15  C   UNL     1      44.927   3.193  12.014  0.00  0.00    +0.000 C 
BRANCH  15  17
ATOM     16  C   UNL     1      43.016   4.555  13.050  0.00  0.00    +0.000 C 
ATOM     17  C   UNL     1      44.475   4.417  12.750  0.00  0.00    +0.000 C 
BRANCH  17  18
ATOM     18  C   UNL     1      45.385   5.568  12.853  0.00  0.00    +0.000 A 
ATOM     19  C   UNL     1      46.691   5.392  13.325  0.00  0.00    +0.000 A 
ATOM     20  C   UNL     1      47.521   6.491  13.547  0.00  0.00    +0.000 A 
ATOM     21  C   UNL     1      47.063   7.780  13.277  0.00  0.00    +0.000 A 
ATOM     22  C   UNL     1      45.781   7.973  12.760  0.00  0.00    +0.000 A 
ATOM     23  C   UNL     1      44.947   6.866  12.545  0.00  0.00    +0.000 A 
BRANCH  22  24
ATOM     24  C   UNL     1      45.310   9.298  12.470  0.00  0.00    +0.000 C 
ATOM     25  N   UNL     1      44.929  10.368  12.231  0.00  0.00    +0.000 NA
ENDBRANCH  22  24
ENDBRANCH  17  18
ENDBRANCH  15  17
ENDBRANCH   1  15
TORSDOF 6
ENDMDL
MODEL 6
REMARK VINA RESULT:    -6.415      4.585      7.983
REMARK INTER + INTRA:          -9.471
REMARK INTER:                  -8.912
REMARK INTRA:                  -0.559
REMARK UNBOUND:                -0.806
REMARK  Name = 
REMARK  7 active torsions:
REMARK  status: ('A' for Active; 'I' for Inactive)
REMARK    1  A    between atoms: C_1  and  C_2
REMARK    2  A    between atoms: C_2  and  C_3
REMARK    3  A    between atoms: C_2  and  C_15
REMARK    4  A    between atoms: C_3  and  N_4
REMARK    5  A    between atoms: N_4  and  C_5
REMARK    6  A    between atoms: C_8  and  C_9
REMARK    7  A    between atoms: C_19  and  C_20
REMARK                            x       y       z     vdW  Elec       q    Type
REMARK                         _______ _______ _______ _____ _____    ______ ____
ROOT
ATOM      1  N   UNL     1      47.869   5.092  16.446  0.00  0.00    +0.000 N 
ATOM      2  H   UNL     1      47.312   5.318  17.267  0.00  0.00    +0.000 HD
ENDROOT
BRANCH   1   3
ATOM      3  C   UNL     1      48.912   4.224  16.815  0.00  0.00    +0.000 A 
ATOM      4  N   UNL     1      48.756   2.903  16.565  0.00  0.00    +0.000 NA
ATOM      5  C   UNL     1      49.765   2.059  16.877  0.00  0.00    +0.000 A 
ATOM      6  C   UNL     1      50.969   2.460  17.426  0.00  0.00    +0.000 A 
ATOM      7  C   UNL     1      51.136   3.824  17.678  0.00  0.00    +0.000 A 
ATOM      8  C   UNL     1      50.101   4.714  17.379  0.00  0.00    +0.000 A 
ATOM      9 CL   UNL     1      50.326   6.392  17.720  0.00  0.00    +0.000 Cl
BRANCH   6  10
ATOM     10  C   UNL     1      52.064   1.514  17.740  0.00  0.00    +0.000 C 
ATOM     11  N   UNL     1      51.752   0.234  18.106  0.00  0.00    +0.000 N 
ATOM     12  O   UNL     1      53.236   1.866  17.675  0.00  0.00    +0.000 OA
ATOM     13  H   UNL     1      50.828  -0.158  18.201  0.00  0.00    +0.000 HD
ATOM     14  H   UNL     1      52.532  -0.379  18.312  0.00  0.00    +0.000 HD
ENDBRANCH   6  10
ENDBRANCH   1   3
BRANCH   1  15
ATOM     15  C   UNL     1      47.069   4.594  15.335  0.00  0.00    +0.000 C 
BRANCH  15  17
ATOM     16  C   UNL     1      48.215   6.658  14.331  0.00  0.00    +0.000 C 
ATOM     17  C   UNL     1      47.336   5.462  14.144  0.00  0.00    +0.000 C 
BRANCH  17  18
ATOM     18  C   UNL     1      46.489   5.321  12.950  0.00  0.00    +0.000 A 
ATOM     19  C   UNL     1      46.523   6.293  11.944  0.00  0.00    +0.000 A 
ATOM     20  C   UNL     1      45.634   6.237  10.869  0.00  0.00    +0.000 A 
ATOM     21  C   UNL     1      44.715   5.192  10.775  0.00  0.00    +0.000 A 
ATOM     22  C   UNL     1      44.698   4.187  11.743  0.00  0.00    +0.000 A 
ATOM     23  C   UNL     1      45.588   4.251  12.825  0.00  0.00    +0.000 A 
BRANCH  22  24
ATOM     24  C   UNL     1      43.761   3.103  11.643  0.00  0.00    +0.000 C 
ATOM     25  N   UNL     1      43.006   2.227  11.558  0.00  0.00    +0.000 NA
ENDBRANCH  22  24
ENDBRANCH  17  18
ENDBRANCH  15  17
ENDBRANCH   1  15
TORSDOF 6
ENDMDL
MODEL 7
REMARK VINA RESULT:    -6.344      3.678      7.779
REMARK INTER + INTRA:          -9.375
REMARK INTER:                  -8.828
REMARK INTRA:                  -0.547
REMARK UNBOUND:                -0.806
REMARK  Name = 
REMARK  7 active torsions:
REMARK  status: ('A' for Active; 'I' for Inactive)
REMARK    1  A    between atoms: C_1  and  C_2
REMARK    2  A    between atoms: C_2  and  C_3
REMARK    3  A    between atoms: C_2  and  C_15
REMARK    4  A    between atoms: C_3  and  N_4
REMARK    5  A    between atoms: N_4  and  C_5
REMARK    6  A    between atoms: C_8  and  C_9
REMARK    7  A    between atoms: C_19  and  C_20
REMARK                            x       y       z     vdW  Elec       q    Type
REMARK                         _______ _______ _______ _____ _____    ______ ____
ROOT
ATOM      1  N   UNL     1      46.876   5.291  13.259  0.00  0.00    +0.000 N 
ATOM      2  H   UNL     1      47.566   5.846  12.759  0.00  0.00    +0.000 HD
ENDROOT
BRANCH   1   3
ATOM      3  C   UNL     1      47.336   5.041  14.565  0.00  0.00    +0.000 A 
ATOM      4  N   UNL     1      47.009   3.859  15.137  0.00  0.00    +0.000 NA
ATOM      5  C   UNL     1      47.476   3.586  16.377  0.00  0.00    +0.000 A 
ATOM      6  C   UNL     1      48.290   4.436  17.102  0.00  0.00    +0.000 A 
ATOM      7  C   UNL     1      48.634   5.654  16.512  0.00  0.00    +0.000 A 
ATOM      8  C   UNL     1      48.151   5.966  15.238  0.00  0.00    +0.000 A 
ATOM      9 CL   UNL     1      48.577   7.487  14.539  0.00  0.00    +0.000 Cl
BRANCH   6  10
ATOM     10  C   UNL     1      48.801   4.102  18.451  0.00  0.00    +0.000 C 
ATOM     11  N   UNL     1      48.254   3.046  19.126  0.00  0.00    +0.000 N 
ATOM     12  O   UNL     1      49.701   4.757  18.963  0.00  0.00    +0.000 OA
ATOM     13  H   UNL     1      47.508   2.447  18.808  0.00  0.00    +0.000 HD
ATOM     14  H   UNL     1      48.635   2.853  20.045  0.00  0.00    +0.000 HD
ENDBRANCH   6  10
ENDBRANCH   1   3
BRANCH   1  15
ATOM     15  C   UNL     1      45.541   5.873  13.220  0.00  0.00    +0.000 C 
BRANCH  15  17
ATOM     16  C   UNL     1      44.830   7.555  11.419  0.00  0.00    +0.000 C 
ATOM     17  C   UNL     1      45.198   6.154  11.789  0.00  0.00    +0.000 C 
BRANCH  17  18
ATOM     18  C   UNL     1      44.909   5.028  10.888  0.00  0.00    +0.000 A 
ATOM     19  C   UNL     1      44.108   3.966  11.323  0.00  0.00    +0.000 A 
ATOM     20  C   UNL     1      43.931   2.835  10.525  0.00  0.00    +0.000 A 
ATOM     21  C   UNL     1      44.534   2.762   9.270  0.00  0.00    +0.000 A 
ATOM     22  C   UNL     1      45.297   3.831   8.798  0.00  0.00    +0.000 A 
ATOM     23  C   UNL     1      45.479   4.963   9.606  0.00  0.00    +0.000 A 
BRANCH  22  24
ATOM     24  C   UNL     1      45.910   3.765   7.502  0.00  0.00    +0.000 C 
ATOM     25  N   UNL     1      46.406   3.707   6.454  0.00  0.00    +0.000 NA
ENDBRANCH  22  24
ENDBRANCH  17  18
ENDBRANCH  15  17
ENDBRANCH   1  15
TORSDOF 6
ENDMDL
MODEL 8
REMARK VINA RESULT:    -6.206      3.490      5.565
REMARK INTER + INTRA:          -9.189
REMARK INTER:                  -8.700
REMARK INTRA:                  -0.489
REMARK UNBOUND:                -0.806
REMARK  Name = 
REMARK  7 active torsions:
REMARK  status: ('A' for Active; 'I' for Inactive)
REMARK    1  A    between atoms: C_1  and  C_2
REMARK    2  A    between atoms: C_2  and  C_3
REMARK    3  A    between atoms: C_2  and  C_15
REMARK    4  A    between atoms: C_3  and  N_4
REMARK    5  A    between atoms: N_4  and  C_5
REMARK    6  A    between atoms: C_8  and  C_9
REMARK    7  A    between atoms: C_19  and  C_20
REMARK                            x       y       z     vdW  Elec       q    Type
REMARK                         _______ _______ _______ _____ _____    ______ ____
ROOT
ATOM      1  N   UNL     1      47.103   5.063  15.062  0.00  0.00    +0.000 N 
ATOM      2  H   UNL     1      47.912   5.651  14.881  0.00  0.00    +0.000 HD
ENDROOT
BRANCH   1   3
ATOM      3  C   UNL     1      46.448   4.783  13.849  0.00  0.00    +0.000 A 
ATOM      4  N   UNL     1      46.103   3.499  13.596  0.00  0.00    +0.000 NA
ATOM      5  C   UNL     1      45.438   3.219  12.452  0.00  0.00    +0.000 A 
ATOM      6  C   UNL     1      45.067   4.170  11.519  0.00  0.00    +0.000 A 
ATOM      7  C   UNL     1      45.416   5.496  11.781  0.00  0.00    +0.000 A 
ATOM      8  C   UNL     1      46.118   5.809  12.948  0.00  0.00    +0.000 A 
ATOM      9 CL   UNL     1      46.554   7.455  13.238  0.00  0.00    +0.000 Cl
BRANCH   6  10
ATOM     10  C   UNL     1      44.322   3.835  10.284  0.00  0.00    +0.000 C 
ATOM     11  N   UNL     1      44.187   4.786   9.311  0.00  0.00    +0.000 N 
ATOM     12  O   UNL     1      43.831   2.723  10.128  0.00  0.00    +0.000 OA
ATOM     13  H   UNL     1      44.539   5.730   9.337  0.00  0.00    +0.000 HD
ATOM     14  H   UNL     1      43.670   4.514   8.483  0.00  0.00    +0.000 HD
ENDBRANCH   6  10
ENDBRANCH   1   3
BRANCH   1  15
ATOM     15  C   UNL     1      47.428   3.868  15.830  0.00  0.00    +0.000 C 
BRANCH  15  17
ATOM     16  C   UNL     1      47.103   5.118  18.047  0.00  0.00    +0.000 C 
ATOM     17  C   UNL     1      47.982   4.302  17.153  0.00  0.00    +0.000 C 
BRANCH  17  18
ATOM     18  C   UNL     1      49.431   4.211  17.387  0.00  0.00    +0.000 A 
ATOM     19  C   UNL     1      50.221   5.366  17.360  0.00  0.00    +0.000 A 
ATOM     20  C   UNL     1      51.611   5.280  17.454  0.00  0.00    +0.000 A 
ATOM     21  C   UNL     1      52.227   4.038  17.600  0.00  0.00    +0.000 A 
ATOM     22  C   UNL     1      51.454   2.878  17.676  0.00  0.00    +0.000 A 
ATOM     23  C   UNL     1      50.057   2.969  17.575  0.00  0.00    +0.000 A 
BRANCH  22  24
ATOM     24  C   UNL     1      52.083   1.599  17.838  0.00  0.00    +0.000 C 
ATOM     25  N   UNL     1      52.590   0.562  17.965  0.00  0.00    +0.000 NA
ENDBRANCH  22  24
ENDBRANCH  17  18
ENDBRANCH  15  17
ENDBRANCH   1  15
TORSDOF 6
ENDMDL
MODEL 9
REMARK VINA RESULT:    -6.027      3.670      7.406
REMARK INTER + INTRA:          -8.947
REMARK INTER:                  -8.491
REMARK INTRA:                  -0.455
REMARK UNBOUND:                -0.806
REMARK  Name = 
REMARK  7 active torsions:
REMARK  status: ('A' for Active; 'I' for Inactive)
REMARK    1  A    between atoms: C_1  and  C_2
REMARK    2  A    between atoms: C_2  and  C_3
REMARK    3  A    between atoms: C_2  and  C_15
REMARK    4  A    between atoms: C_3  and  N_4
REMARK    5  A    between atoms: N_4  and  C_5
REMARK    6  A    between atoms: C_8  and  C_9
REMARK    7  A    between atoms: C_19  and  C_20
REMARK                            x       y       z     vdW  Elec       q    Type
REMARK                         _______ _______ _______ _____ _____    ______ ____
ROOT
ATOM      1  N   UNL     1      48.239   7.182  13.630  0.00  0.00    +0.000 N 
ATOM      2  H   UNL     1      47.829   8.066  13.920  0.00  0.00    +0.000 HD
ENDROOT
BRANCH   1   3
ATOM      3  C   UNL     1      48.092   6.239  14.663  0.00  0.00    +0.000 A 
ATOM      4  N   UNL     1      47.392   5.112  14.397  0.00  0.00    +0.000 NA
ATOM      5  C   UNL     1      47.274   4.176  15.367  0.00  0.00    +0.000 A 
ATOM      6  C   UNL     1      47.843   4.286  16.622  0.00  0.00    +0.000 A 
ATOM      7  C   UNL     1      48.572   5.446  16.897  0.00  0.00    +0.000 A 
ATOM      8  C   UNL     1      48.694   6.434  15.916  0.00  0.00    +0.000 A 
ATOM      9 CL   UNL     1      49.584   7.867  16.289  0.00  0.00    +0.000 Cl
BRANCH   6  10
ATOM     10  C   UNL     1      47.713   3.236  17.658  0.00  0.00    +0.000 C 
ATOM     11  N   UNL     1      48.721   3.071  18.567  0.00  0.00    +0.000 N 
ATOM     12  O   UNL     1      46.720   2.521  17.707  0.00  0.00    +0.000 OA
ATOM     13  H   UNL     1      49.582   3.593  18.615  0.00  0.00    +0.000 HD
ATOM     14  H   UNL     1      48.590   2.341  19.258  0.00  0.00    +0.000 HD
ENDBRANCH   6  10
ENDBRANCH   1   3
BRANCH   1  15
ATOM     15  C   UNL     1      47.734   6.714  12.346  0.00  0.00    +0.000 C 
BRANCH  15  17
ATOM     16  C   UNL     1      45.965   8.509  12.827  0.00  0.00    +0.000 C 
ATOM     17  C   UNL     1      46.326   7.202  12.194  0.00  0.00    +0.000 C 
BRANCH  17  18
ATOM     18  C   UNL     1      45.288   6.265  11.739  0.00  0.00    +0.000 A 
ATOM     19  C   UNL     1      44.200   5.965  12.567  0.00  0.00    +0.000 A 
ATOM     20  C   UNL     1      43.277   4.984  12.202  0.00  0.00    +0.000 A 
ATOM     21  C   UNL     1      43.418   4.306  10.991  0.00  0.00    +0.000 A 
ATOM     22  C   UNL     1      44.469   4.624  10.130  0.00  0.00    +0.000 A 
ATOM     23  C   UNL     1      45.399   5.607  10.504  0.00  0.00    +0.000 A 
BRANCH  22  24
ATOM     24  C   UNL     1      44.611   3.937   8.878  0.00  0.00    +0.000 C 
ATOM     25  N   UNL     1      44.730   3.384   7.864  0.00  0.00    +0.000 NA
ENDBRANCH  22  24
ENDBRANCH  17  18
ENDBRANCH  15  17
ENDBRANCH   1  15
TORSDOF 6
ENDMDL
