MODEL 1
REMARK VINA RESULT:    -8.282      0.000      0.000
REMARK INTER + INTRA:         -11.849
REMARK INTER:                 -11.187
REMARK INTRA:                  -0.662
REMARK UNBOUND:                -0.662
REMARK  Name = 
REMARK  6 active torsions:
REMARK  status: ('A' for Active; 'I' for Inactive)
REMARK    1  A    between atoms: C_5  and  N_6
REMARK    2  A    between atoms: N_6  and  C_7
REMARK    3  A    between atoms: C_7  and  C_8
REMARK    4  A    between atoms: C_8  and  C_11
REMARK    5  A    between atoms: C_13  and  O_14
REMARK    6  A    between atoms: O_14  and  C_15
REMARK                            x       y       z     vdW  Elec       q    Type
REMARK                         _______ _______ _______ _____ _____    ______ ____
ROOT
ATOM      1  C   UNL     1      44.031   3.826  11.960  0.00  0.00    +0.000 C 
ATOM      2  F   UNL     1      42.873   4.371  12.451  0.00  0.00    +0.000 F 
ATOM      3  F   UNL     1      44.074   2.568  12.512  0.00  0.00    +0.000 F 
ENDROOT
BRANCH   1   4
ATOM      4  C   UNL     1      45.251   4.643  12.371  0.00  0.00    +0.000 A 
ATOM      5  C   UNL     1      45.897   4.318  13.564  0.00  0.00    +0.000 A 
ATOM      6  C   UNL     1      47.011   5.058  13.941  0.00  0.00    +0.000 A 
ATOM      7  C   UNL     1      47.471   6.079  13.119  0.00  0.00    +0.000 A 
ATOM      8  C   UNL     1      46.779   6.342  11.954  0.00  0.00    +0.000 A 
ATOM      9  N   UNL     1      45.683   5.656  11.569  0.00  0.00    +0.000 NA
BRANCH   6  10
ATOM     10  O   UNL     1      47.745   4.836  15.079  0.00  0.00    +0.000 OA
BRANCH  10  11
ATOM     11  C   UNL     1      47.175   4.004  16.116  0.00  0.00    +0.000 C 
ATOM     12  C   UNL     1      47.198   4.537  17.566  0.00  0.00    +0.000 C 
ATOM     13  N   UNL     1      47.686   3.224  18.034  0.00  0.00    +0.000 NA
ATOM     14  C   UNL     1      48.110   2.902  16.658  0.00  0.00    +0.000 C 
ATOM     15  H   UNL     1      46.948   2.614  18.387  0.00  0.00    +0.000 HD
ENDBRANCH  10  11
ENDBRANCH   6  10
ENDBRANCH   1   4
BRANCH   1  16
ATOM     16  C   UNL     1      43.889   3.649  10.427  0.00  0.00    +0.000 C 
BRANCH  16  17
ATOM     17  N   UNL     1      44.504   2.413   9.901  0.00  0.00    +0.000 N 
ATOM     18  H   UNL     1      43.816   1.659   9.814  0.00  0.00    +0.000 HD
BRANCH  17  23
ATOM     19  F   UNL     1      48.019   2.421   5.621  0.00  0.00    +0.000 F 
ATOM     20  C   UNL     1      47.144   2.428   6.635  0.00  0.00    +0.000 A 
ATOM     21  C   UNL     1      46.496   3.608   6.971  0.00  0.00    +0.000 A 
ATOM     22  C   UNL     1      45.601   3.623   8.046  0.00  0.00    +0.000 A 
ATOM     23  C   UNL     1      45.326   2.456   8.774  0.00  0.00    +0.000 A 
ATOM     24  C   UNL     1      46.002   1.280   8.409  0.00  0.00    +0.000 A 
ATOM     25  C   UNL     1      46.907   1.261   7.346  0.00  0.00    +0.000 A 
ENDBRANCH  17  23
ENDBRANCH  16  17
ENDBRANCH   1  16
TORSDOF 6
ENDMDL
MODEL 2
REMARK VINA RESULT:    -8.235      1.990      3.663
REMARK INTER + INTRA:         -11.785
REMARK INTER:                 -11.067
REMARK INTRA:                  -0.717
REMARK UNBOUND:                -0.662
REMARK  Name = 
REMARK  6 active torsions:
REMARK  status: ('A' for Active; 'I' for Inactive)
REMARK    1  A    between atoms: C_5  and  N_6
REMARK    2  A    between atoms: N_6  and  C_7
REMARK    3  A    between atoms: C_7  and  C_8
REMARK    4  A    between atoms: C_8  and  C_11
REMARK    5  A    between atoms: C_13  and  O_14
REMARK    6  A    between atoms: O_14  and  C_15
REMARK                            x       y       z     vdW  Elec       q    Type
REMARK                         _______ _______ _______ _____ _____    ______ ____
ROOT
ATOM      1  C   UNL     1      43.827   3.596  11.488  0.00  0.00    +0.000 C 
ATOM      2  F   UNL     1      42.695   4.349  11.662  0.00  0.00    +0.000 F 
ATOM      3  F   UNL     1      43.536   2.399  12.096  0.00  0.00    +0.000 F 
ENDROOT
BRANCH   1   4
ATOM      4  C   UNL     1      45.041   4.254  12.135  0.00  0.00    +0.000 A 
ATOM      5  C   UNL     1      45.447   5.505  11.667  0.00  0.00    +0.000 A 
ATOM      6  C   UNL     1      46.551   6.109  12.256  0.00  0.00    +0.000 A 
ATOM      7  C   UNL     1      47.207   5.476  13.304  0.00  0.00    +0.000 A 
ATOM      8  C   UNL     1      46.746   4.240  13.711  0.00  0.00    +0.000 A 
ATOM      9  N   UNL     1      45.691   3.616  13.149  0.00  0.00    +0.000 NA
BRANCH   6  10
ATOM     10  O   UNL     1      47.046   7.339  11.902  0.00  0.00    +0.000 OA
BRANCH  10  11
ATOM     11  C   UNL     1      46.651   8.491  12.681  0.00  0.00    +0.000 C 
ATOM     12  C   UNL     1      45.328   9.199  12.309  0.00  0.00    +0.000 C 
ATOM     13  N   UNL     1      46.011  10.505  12.389  0.00  0.00    +0.000 NA
ATOM     14  C   UNL     1      47.313   9.822  12.261  0.00  0.00    +0.000 C 
ATOM     15  H   UNL     1      45.885  10.981  13.283  0.00  0.00    +0.000 HD
ENDBRANCH  10  11
ENDBRANCH   6  10
ENDBRANCH   1   4
BRANCH   1  16
ATOM     16  C   UNL     1      44.008   3.310   9.975  0.00  0.00    +0.000 C 
BRANCH  16  17
ATOM     17  N   UNL     1      44.912   2.180   9.677  0.00  0.00    +0.000 N 
ATOM     18  H   UNL     1      44.424   1.282   9.736  0.00  0.00    +0.000 HD
BRANCH  17  23
ATOM     19  F   UNL     1      47.925   2.466   5.038  0.00  0.00    +0.000 F 
ATOM     20  C   UNL     1      47.224   2.389   6.178  0.00  0.00    +0.000 A 
ATOM     21  C   UNL     1      47.165   1.185   6.864  0.00  0.00    +0.000 A 
ATOM     22  C   UNL     1      46.412   1.096   8.040  0.00  0.00    +0.000 A 
ATOM     23  C   UNL     1      45.739   2.214   8.553  0.00  0.00    +0.000 A 
ATOM     24  C   UNL     1      45.818   3.417   7.832  0.00  0.00    +0.000 A 
ATOM     25  C   UNL     1      46.556   3.509   6.649  0.00  0.00    +0.000 A 
ENDBRANCH  17  23
ENDBRANCH  16  17
ENDBRANCH   1  16
TORSDOF 6
ENDMDL
MODEL 3
REMARK VINA RESULT:    -7.648      2.674      3.040
REMARK INTER + INTRA:         -10.993
REMARK INTER:                  -9.944
REMARK INTRA:                  -1.049
REMARK UNBOUND:                -0.662
REMARK  Name = 
REMARK  6 active torsions:
REMARK  status: ('A' for Active; 'I' for Inactive)
REMARK    1  A    between atoms: C_5  and  N_6
REMARK    2  A    between atoms: N_6  and  C_7
REMARK    3  A    between atoms: C_7  and  C_8
REMARK    4  A    between atoms: C_8  and  C_11
REMARK    5  A    between atoms: C_13  and  O_14
REMARK    6  A    between atoms: O_14  and  C_15
REMARK                            x       y       z     vdW  Elec       q    Type
REMARK                         _______ _______ _______ _____ _____    ______ ____
ROOT
ATOM      1  C   UNL     1      44.436   4.253  12.061  0.00  0.00    +0.000 C 
ATOM      2  F   UNL     1      43.729   3.887  13.175  0.00  0.00    +0.000 F 
ATOM      3  F   UNL     1      45.506   3.391  12.040  0.00  0.00    +0.000 F 
ENDROOT
BRANCH   1   4
ATOM      4  C   UNL     1      44.906   5.701  12.146  0.00  0.00    +0.000 A 
ATOM      5  C   UNL     1      46.022   5.992  12.930  0.00  0.00    +0.000 A 
ATOM      6  C   UNL     1      46.455   7.310  13.008  0.00  0.00    +0.000 A 
ATOM      7  C   UNL     1      45.792   8.298  12.291  0.00  0.00    +0.000 A 
ATOM      8  C   UNL     1      44.694   7.932  11.537  0.00  0.00    +0.000 A 
ATOM      9  N   UNL     1      44.236   6.667  11.455  0.00  0.00    +0.000 NA
BRANCH   6  10
ATOM     10  O   UNL     1      47.543   7.731  13.730  0.00  0.00    +0.000 OA
BRANCH  10  11
ATOM     11  C   UNL     1      48.829   7.130  13.453  0.00  0.00    +0.000 C 
ATOM     12  C   UNL     1      50.090   7.824  14.017  0.00  0.00    +0.000 C 
ATOM     13  N   UNL     1      50.749   7.679  12.704  0.00  0.00    +0.000 NA
ATOM     14  C   UNL     1      49.430   7.478  12.075  0.00  0.00    +0.000 C 
ATOM     15  H   UNL     1      51.361   6.865  12.639  0.00  0.00    +0.000 HD
ENDBRANCH  10  11
ENDBRANCH   6  10
ENDBRANCH   1   4
BRANCH   1  16
ATOM     16  C   UNL     1      43.580   3.950  10.804  0.00  0.00    +0.000 C 
BRANCH  16  17
ATOM     17  N   UNL     1      44.143   4.480   9.546  0.00  0.00    +0.000 N 
ATOM     18  H   UNL     1      44.515   5.427   9.669  0.00  0.00    +0.000 HD
BRANCH  17  23
ATOM     19  F   UNL     1      47.718   1.249   6.817  0.00  0.00    +0.000 F 
ATOM     20  C   UNL     1      46.841   2.040   7.447  0.00  0.00    +0.000 A 
ATOM     21  C   UNL     1      46.871   3.409   7.225  0.00  0.00    +0.000 A 
ATOM     22  C   UNL     1      45.973   4.240   7.902  0.00  0.00    +0.000 A 
ATOM     23  C   UNL     1      45.020   3.708   8.782  0.00  0.00    +0.000 A 
ATOM     24  C   UNL     1      45.017   2.318   8.987  0.00  0.00    +0.000 A 
ATOM     25  C   UNL     1      45.922   1.484   8.325  0.00  0.00    +0.000 A 
ENDBRANCH  17  23
ENDBRANCH  16  17
ENDBRANCH   1  16
TORSDOF 6
ENDMDL
MODEL 4
REMARK VINA RESULT:    -7.564      3.627      7.213
REMARK INTER + INTRA:         -10.878
REMARK INTER:                 -10.136
REMARK INTRA:                  -0.742
REMARK UNBOUND:                -0.662
REMARK  Name = 
REMARK  6 active torsions:
REMARK  status: ('A' for Active; 'I' for Inactive)
REMARK    1  A    between atoms: C_5  and  N_6
REMARK    2  A    between atoms: N_6  and  C_7
REMARK    3  A    between atoms: C_7  and  C_8
REMARK    4  A    between atoms: C_8  and  C_11
REMARK    5  A    between atoms: C_13  and  O_14
REMARK    6  A    between atoms: O_14  and  C_15
REMARK                            x       y       z     vdW  Elec       q    Type
REMARK                         _______ _______ _______ _____ _____    ______ ____
ROOT
ATOM      1  C   UNL     1      43.610   5.395  11.412  0.00  0.00    +0.000 C 
ATOM      2  F   UNL     1      42.292   5.242  11.755  0.00  0.00    +0.000 F 
ATOM      3  F   UNL     1      43.660   6.623  10.797  0.00  0.00    +0.000 F 
ENDROOT
BRANCH   1   4
ATOM      4  C   UNL     1      44.074   4.293  10.466  0.00  0.00    +0.000 A 
ATOM      5  C   UNL     1      44.898   4.640   9.395  0.00  0.00    +0.000 A 
ATOM      6  C   UNL     1      45.325   3.639   8.533  0.00  0.00    +0.000 A 
ATOM      7  C   UNL     1      44.949   2.321   8.764  0.00  0.00    +0.000 A 
ATOM      8  C   UNL     1      44.132   2.056   9.845  0.00  0.00    +0.000 A 
ATOM      9  N   UNL     1      43.683   3.007  10.690  0.00  0.00    +0.000 NA
BRANCH   6  10
ATOM     10  O   UNL     1      46.145   3.840   7.451  0.00  0.00    +0.000 OA
BRANCH  10  11
ATOM     11  C   UNL     1      46.591   2.688   6.699  0.00  0.00    +0.000 C 
ATOM     12  C   UNL     1      48.014   2.151   6.970  0.00  0.00    +0.000 C 
ATOM     13  N   UNL     1      48.253   2.065   5.516  0.00  0.00    +0.000 NA
ATOM     14  C   UNL     1      47.132   2.998   5.287  0.00  0.00    +0.000 C 
ATOM     15  H   UNL     1      48.096   1.135   5.128  0.00  0.00    +0.000 HD
ENDBRANCH  10  11
ENDBRANCH   6  10
ENDBRANCH   1   4
BRANCH   1  16
ATOM     16  C   UNL     1      44.454   5.497  12.708  0.00  0.00    +0.000 C 
BRANCH  16  17
ATOM     17  N   UNL     1      44.797   6.879  13.100  0.00  0.00    +0.000 N 
ATOM     18  H   UNL     1      44.605   7.048  14.093  0.00  0.00    +0.000 HD
BRANCH  17  23
ATOM     19  F   UNL     1      49.503   9.347  11.539  0.00  0.00    +0.000 F 
ATOM     20  C   UNL     1      48.383   8.728  11.935  0.00  0.00    +0.000 A 
ATOM     21  C   UNL     1      48.188   7.393  11.612  0.00  0.00    +0.000 A 
ATOM     22  C   UNL     1      47.008   6.753  12.002  0.00  0.00    +0.000 A 
ATOM     23  C   UNL     1      46.028   7.431  12.741  0.00  0.00    +0.000 A 
ATOM     24  C   UNL     1      46.256   8.783  13.050  0.00  0.00    +0.000 A 
ATOM     25  C   UNL     1      47.427   9.432  12.650  0.00  0.00    +0.000 A 
ENDBRANCH  17  23
ENDBRANCH  16  17
ENDBRANCH   1  16
TORSDOF 6
ENDMDL
MODEL 5
REMARK VINA RESULT:    -6.813      3.475      8.047
REMARK INTER + INTRA:          -9.865
REMARK INTER:                  -9.214
REMARK INTRA:                  -0.651
REMARK UNBOUND:                -0.662
REMARK  Name = 
REMARK  6 active torsions:
REMARK  status: ('A' for Active; 'I' for Inactive)
REMARK    1  A    between atoms: C_5  and  N_6
REMARK    2  A    between atoms: N_6  and  C_7
REMARK    3  A    between atoms: C_7  and  C_8
REMARK    4  A    between atoms: C_8  and  C_11
REMARK    5  A    between atoms: C_13  and  O_14
REMARK    6  A    between atoms: O_14  and  C_15
REMARK                            x       y       z     vdW  Elec       q    Type
REMARK                         _______ _______ _______ _____ _____    ______ ____
ROOT
ATOM      1  C   UNL     1      45.385   6.034  11.547  0.00  0.00    +0.000 C 
ATOM      2  F   UNL     1      45.122   5.604  12.821  0.00  0.00    +0.000 F 
ATOM      3  F   UNL     1      44.507   7.073  11.351  0.00  0.00    +0.000 F 
ENDROOT
BRANCH   1   4
ATOM      4  C   UNL     1      45.154   4.926  10.524  0.00  0.00    +0.000 A 
ATOM      5  C   UNL     1      45.766   5.039   9.275  0.00  0.00    +0.000 A 
ATOM      6  C   UNL     1      45.560   4.031   8.341  0.00  0.00    +0.000 A 
ATOM      7  C   UNL     1      44.780   2.931   8.673  0.00  0.00    +0.000 A 
ATOM      8  C   UNL     1      44.207   2.892   9.929  0.00  0.00    +0.000 A 
ATOM      9  N   UNL     1      44.370   3.861  10.852  0.00  0.00    +0.000 NA
BRANCH   6  10
ATOM     10  O   UNL     1      46.111   4.010   7.085  0.00  0.00    +0.000 OA
BRANCH  10  11
ATOM     11  C   UNL     1      46.538   2.740   6.539  0.00  0.00    +0.000 C 
ATOM     12  C   UNL     1      47.887   2.161   7.020  0.00  0.00    +0.000 C 
ATOM     13  N   UNL     1      48.250   1.861   5.621  0.00  0.00    +0.000 NA
ATOM     14  C   UNL     1      47.227   2.819   5.160  0.00  0.00    +0.000 C 
ATOM     15  H   UNL     1      48.061   0.897   5.345  0.00  0.00    +0.000 HD
ENDBRANCH  10  11
ENDBRANCH   6  10
ENDBRANCH   1   4
BRANCH   1  16
ATOM     16  C   UNL     1      46.816   6.628  11.506  0.00  0.00    +0.000 C 
BRANCH  16  17
ATOM     17  N   UNL     1      46.995   7.834  12.341  0.00  0.00    +0.000 N 
ATOM     18  H   UNL     1      46.137   8.393  12.382  0.00  0.00    +0.000 HD
BRANCH  17  23
ATOM     19  F   UNL     1      49.527   7.714  17.265  0.00  0.00    +0.000 F 
ATOM     20  C   UNL     1      48.890   7.724  16.087  0.00  0.00    +0.000 A 
ATOM     21  C   UNL     1      48.682   6.530  15.412  0.00  0.00    +0.000 A 
ATOM     22  C   UNL     1      48.040   6.541  14.170  0.00  0.00    +0.000 A 
ATOM     23  C   UNL     1      47.576   7.738  13.607  0.00  0.00    +0.000 A 
ATOM     24  C   UNL     1      47.806   8.930  14.315  0.00  0.00    +0.000 A 
ATOM     25  C   UNL     1      48.459   8.927  15.549  0.00  0.00    +0.000 A 
ENDBRANCH  17  23
ENDBRANCH  16  17
ENDBRANCH   1  16
TORSDOF 6
ENDMDL
MODEL 6
REMARK VINA RESULT:    -6.613      1.701      1.947
REMARK INTER + INTRA:          -9.594
REMARK INTER:                  -9.094
REMARK INTRA:                  -0.500
REMARK UNBOUND:                -0.662
REMARK  Name = 
REMARK  6 active torsions:
REMARK  status: ('A' for Active; 'I' for Inactive)
REMARK    1  A    between atoms: C_5  and  N_6
REMARK    2  A    between atoms: N_6  and  C_7
REMARK    3  A    between atoms: C_7  and  C_8
REMARK    4  A    between atoms: C_8  and  C_11
REMARK    5  A    between atoms: C_13  and  O_14
REMARK    6  A    between atoms: O_14  and  C_15
REMARK                            x       y       z     vdW  Elec       q    Type
REMARK                         _______ _______ _______ _____ _____    ______ ____
ROOT
ATOM      1  C   UNL     1      45.110   4.719  12.264  0.00  0.00    +0.000 C 
ATOM      2  F   UNL     1      44.240   4.709  13.322  0.00  0.00    +0.000 F 
ATOM      3  F   UNL     1      45.589   3.432  12.207  0.00  0.00    +0.000 F 
ENDROOT
BRANCH   1   4
ATOM      4  C   UNL     1      46.246   5.713  12.483  0.00  0.00    +0.000 A 
ATOM      5  C   UNL     1      47.086   5.529  13.582  0.00  0.00    +0.000 A 
ATOM      6  C   UNL     1      48.124   6.431  13.783  0.00  0.00    +0.000 A 
ATOM      7  C   UNL     1      48.319   7.471  12.884  0.00  0.00    +0.000 A 
ATOM      8  C   UNL     1      47.445   7.588  11.821  0.00  0.00    +0.000 A 
ATOM      9  N   UNL     1      46.416   6.742  11.607  0.00  0.00    +0.000 NA
BRANCH   6  10
ATOM     10  O   UNL     1      49.029   6.359  14.813  0.00  0.00    +0.000 OA
BRANCH  10  11
ATOM     11  C   UNL     1      48.552   5.985  16.125  0.00  0.00    +0.000 C 
ATOM     12  C   UNL     1      48.724   7.001  17.277  0.00  0.00    +0.000 C 
ATOM     13  N   UNL     1      49.237   5.923  18.145  0.00  0.00    +0.000 NA
ATOM     14  C   UNL     1      49.521   5.108  16.947  0.00  0.00    +0.000 C 
ATOM     15  H   UNL     1      48.529   5.516  18.757  0.00  0.00    +0.000 HD
ENDBRANCH  10  11
ENDBRANCH   6  10
ENDBRANCH   1   4
BRANCH   1  16
ATOM     16  C   UNL     1      44.309   4.969  10.961  0.00  0.00    +0.000 C 
BRANCH  16  17
ATOM     17  N   UNL     1      45.150   5.213   9.771  0.00  0.00    +0.000 N 
ATOM     18  H   UNL     1      45.949   5.814   9.992  0.00  0.00    +0.000 HD
BRANCH  17  23
ATOM     19  F   UNL     1      46.824   0.826   6.835  0.00  0.00    +0.000 F 
ATOM     20  C   UNL     1      46.404   1.899   7.517  0.00  0.00    +0.000 A 
ATOM     21  C   UNL     1      46.842   3.162   7.144  0.00  0.00    +0.000 A 
ATOM     22  C   UNL     1      46.426   4.281   7.871  0.00  0.00    +0.000 A 
ATOM     23  C   UNL     1      45.548   4.152   8.957  0.00  0.00    +0.000 A 
ATOM     24  C   UNL     1      45.126   2.859   9.310  0.00  0.00    +0.000 A 
ATOM     25  C   UNL     1      45.550   1.735   8.597  0.00  0.00    +0.000 A 
ENDBRANCH  17  23
ENDBRANCH  16  17
ENDBRANCH   1  16
TORSDOF 6
ENDMDL
MODEL 7
REMARK VINA RESULT:    -6.611      2.617      3.147
REMARK INTER + INTRA:          -9.592
REMARK INTER:                  -8.952
REMARK INTRA:                  -0.640
REMARK UNBOUND:                -0.662
REMARK  Name = 
REMARK  6 active torsions:
REMARK  status: ('A' for Active; 'I' for Inactive)
REMARK    1  A    between atoms: C_5  and  N_6
REMARK    2  A    between atoms: N_6  and  C_7
REMARK    3  A    between atoms: C_7  and  C_8
REMARK    4  A    between atoms: C_8  and  C_11
REMARK    5  A    between atoms: C_13  and  O_14
REMARK    6  A    between atoms: O_14  and  C_15
REMARK                            x       y       z     vdW  Elec       q    Type
REMARK                         _______ _______ _______ _____ _____    ______ ____
ROOT
ATOM      1  C   UNL     1      45.665   6.111  11.376  0.00  0.00    +0.000 C 
ATOM      2  F   UNL     1      46.560   6.258  10.350  0.00  0.00    +0.000 F 
ATOM      3  F   UNL     1      45.060   7.341  11.477  0.00  0.00    +0.000 F 
ENDROOT
BRANCH   1   4
ATOM      4  C   UNL     1      46.363   5.740  12.680  0.00  0.00    +0.000 A 
ATOM      5  C   UNL     1      47.504   6.455  13.049  0.00  0.00    +0.000 A 
ATOM      6  C   UNL     1      48.141   6.122  14.238  0.00  0.00    +0.000 A 
ATOM      7  C   UNL     1      47.624   5.113  15.040  0.00  0.00    +0.000 A 
ATOM      8  C   UNL     1      46.492   4.451  14.607  0.00  0.00    +0.000 A 
ATOM      9  N   UNL     1      45.860   4.735  13.450  0.00  0.00    +0.000 NA
BRANCH   6  10
ATOM     10  O   UNL     1      49.260   6.751  14.723  0.00  0.00    +0.000 OA
BRANCH  10  11
ATOM     11  C   UNL     1      49.327   7.045  16.138  0.00  0.00    +0.000 C 
ATOM     12  C   UNL     1      48.705   8.370  16.633  0.00  0.00    +0.000 C 
ATOM     13  N   UNL     1      49.913   8.629  17.440  0.00  0.00    +0.000 NA
ATOM     14  C   UNL     1      50.660   7.659  16.616  0.00  0.00    +0.000 C 
ATOM     15  H   UNL     1      49.822   8.350  18.417  0.00  0.00    +0.000 HD
ENDBRANCH  10  11
ENDBRANCH   6  10
ENDBRANCH   1   4
BRANCH   1  16
ATOM     16  C   UNL     1      44.574   5.097  10.946  0.00  0.00    +0.000 C 
BRANCH  16  17
ATOM     17  N   UNL     1      44.496   4.874   9.488  0.00  0.00    +0.000 N 
ATOM     18  H   UNL     1      44.625   5.747   8.966  0.00  0.00    +0.000 HD
BRANCH  17  23
ATOM     19  F   UNL     1      47.254   0.893   6.801  0.00  0.00    +0.000 F 
ATOM     20  C   UNL     1      46.603   1.847   7.480  0.00  0.00    +0.000 A 
ATOM     21  C   UNL     1      45.758   1.491   8.521  0.00  0.00    +0.000 A 
ATOM     22  C   UNL     1      45.057   2.483   9.213  0.00  0.00    +0.000 A 
ATOM     23  C   UNL     1      45.216   3.839   8.891  0.00  0.00    +0.000 A 
ATOM     24  C   UNL     1      46.077   4.165   7.830  0.00  0.00    +0.000 A 
ATOM     25  C   UNL     1      46.769   3.177   7.125  0.00  0.00    +0.000 A 
ENDBRANCH  17  23
ENDBRANCH  16  17
ENDBRANCH   1  16
TORSDOF 6
ENDMDL
MODEL 8
REMARK VINA RESULT:    -6.466      3.083      7.826
REMARK INTER + INTRA:          -9.396
REMARK INTER:                  -8.943
REMARK INTRA:                  -0.453
REMARK UNBOUND:                -0.662
REMARK  Name = 
REMARK  6 active torsions:
REMARK  status: ('A' for Active; 'I' for Inactive)
REMARK    1  A    between atoms: C_5  and  N_6
REMARK    2  A    between atoms: N_6  and  C_7
REMARK    3  A    between atoms: C_7  and  C_8
REMARK    4  A    between atoms: C_8  and  C_11
REMARK    5  A    between atoms: C_13  and  O_14
REMARK    6  A    between atoms: O_14  and  C_15
REMARK                            x       y       z     vdW  Elec       q    Type
REMARK                         _______ _______ _______ _____ _____    ______ ____
ROOT
ATOM      1  C   UNL     1      46.501   6.550  12.854  0.00  0.00    +0.000 C 
ATOM      2  F   UNL     1      46.010   7.762  13.260  0.00  0.00    +0.000 F 
ATOM      3  F   UNL     1      47.227   6.839  11.724  0.00  0.00    +0.000 F 
ENDROOT
BRANCH   1   4
ATOM      4  C   UNL     1      45.377   5.567  12.541  0.00  0.00    +0.000 A 
ATOM      5  C   UNL     1      45.634   4.527  11.647  0.00  0.00    +0.000 A 
ATOM      6  C   UNL     1      44.614   3.628  11.362  0.00  0.00    +0.000 A 
ATOM      7  C   UNL     1      43.380   3.763  11.985  0.00  0.00    +0.000 A 
ATOM      8  C   UNL     1      43.202   4.818  12.858  0.00  0.00    +0.000 A 
ATOM      9  N   UNL     1      44.164   5.720  13.142  0.00  0.00    +0.000 NA
BRANCH   6  10
ATOM     10  O   UNL     1      44.736   2.556  10.514  0.00  0.00    +0.000 OA
BRANCH  10  11
ATOM     11  C   UNL     1      44.580   2.779   9.094  0.00  0.00    +0.000 C 
ATOM     12  C   UNL     1      45.809   2.551   8.185  0.00  0.00    +0.000 C 
ATOM     13  N   UNL     1      45.534   3.831   7.502  0.00  0.00    +0.000 NA
ATOM     14  C   UNL     1      44.702   4.252   8.646  0.00  0.00    +0.000 C 
ATOM     15  H   UNL     1      45.011   3.728   6.632  0.00  0.00    +0.000 HD
ENDBRANCH  10  11
ENDBRANCH   6  10
ENDBRANCH   1   4
BRANCH   1  16
ATOM     16  C   UNL     1      47.499   6.033  13.921  0.00  0.00    +0.000 C 
BRANCH  16  17
ATOM     17  N   UNL     1      46.929   5.038  14.852  0.00  0.00    +0.000 N 
ATOM     18  H   UNL     1      46.685   4.167  14.370  0.00  0.00    +0.000 HD
BRANCH  17  23
ATOM     19  F   UNL     1      49.742   4.013  19.511  0.00  0.00    +0.000 F 
ATOM     20  C   UNL     1      49.033   4.261  18.402  0.00  0.00    +0.000 A 
ATOM     21  C   UNL     1      48.077   3.348  17.983  0.00  0.00    +0.000 A 
ATOM     22  C   UNL     1      47.353   3.593  16.811  0.00  0.00    +0.000 A 
ATOM     23  C   UNL     1      47.559   4.763  16.067  0.00  0.00    +0.000 A 
ATOM     24  C   UNL     1      48.537   5.666  16.517  0.00  0.00    +0.000 A 
ATOM     25  C   UNL     1      49.273   5.420  17.679  0.00  0.00    +0.000 A 
ENDBRANCH  17  23
ENDBRANCH  16  17
ENDBRANCH   1  16
TORSDOF 6
ENDMDL
MODEL 9
REMARK VINA RESULT:    -6.456      3.091      4.130
REMARK INTER + INTRA:          -9.383
REMARK INTER:                  -8.720
REMARK INTRA:                  -0.663
REMARK UNBOUND:                -0.662
REMARK  Name = 
REMARK  6 active torsions:
REMARK  status: ('A' for Active; 'I' for Inactive)
REMARK    1  A    between atoms: C_5  and  N_6
REMARK    2  A    between atoms: N_6  and  C_7
REMARK    3  A    between atoms: C_7  and  C_8
REMARK    4  A    between atoms: C_8  and  C_11
REMARK    5  A    between atoms: C_13  and  O_14
REMARK    6  A    between atoms: O_14  and  C_15
REMARK                            x       y       z     vdW  Elec       q    Type
REMARK                         _______ _______ _______ _____ _____    ______ ____
ROOT
ATOM      1  C   UNL     1      44.506   5.962  11.995  0.00  0.00    +0.000 C 
ATOM      2  F   UNL     1      43.493   6.413  11.190  0.00  0.00    +0.000 F 
ATOM      3  F   UNL     1      43.911   5.781  13.220  0.00  0.00    +0.000 F 
ENDROOT
BRANCH   1   4
ATOM      4  C   UNL     1      45.641   6.977  12.086  0.00  0.00    +0.000 A 
ATOM      5  C   UNL     1      46.955   6.507  12.066  0.00  0.00    +0.000 A 
ATOM      6  C   UNL     1      47.992   7.428  12.146  0.00  0.00    +0.000 A 
ATOM      7  C   UNL     1      47.706   8.785  12.217  0.00  0.00    +0.000 A 
ATOM      8  C   UNL     1      46.381   9.173  12.233  0.00  0.00    +0.000 A 
ATOM      9  N   UNL     1      45.350   8.305  12.177  0.00  0.00    +0.000 NA
BRANCH   6  10
ATOM     10  O   UNL     1      49.325   7.103  12.123  0.00  0.00    +0.000 OA
BRANCH  10  11
ATOM     11  C   UNL     1      50.257   8.052  11.555  0.00  0.00    +0.000 C 
ATOM     12  C   UNL     1      51.396   7.506  10.666  0.00  0.00    +0.000 C 
ATOM     13  N   UNL     1      52.361   8.359  11.387  0.00  0.00    +0.000 NA
ATOM     14  C   UNL     1      51.398   8.492  12.497  0.00  0.00    +0.000 C 
ATOM     15  H   UNL     1      52.564   9.240  10.915  0.00  0.00    +0.000 HD
ENDBRANCH  10  11
ENDBRANCH   6  10
ENDBRANCH   1   4
BRANCH   1  16
ATOM     16  C   UNL     1      44.959   4.567  11.494  0.00  0.00    +0.000 C 
BRANCH  16  17
ATOM     17  N   UNL     1      44.404   4.186  10.180  0.00  0.00    +0.000 N 
ATOM     18  H   UNL     1      43.898   4.964   9.745  0.00  0.00    +0.000 HD
BRANCH  17  23
ATOM     19  F   UNL     1      47.395   1.785   6.184  0.00  0.00    +0.000 F 
ATOM     20  C   UNL     1      46.693   2.353   7.174  0.00  0.00    +0.000 A 
ATOM     21  C   UNL     1      46.106   1.553   8.144  0.00  0.00    +0.000 A 
ATOM     22  C   UNL     1      45.351   2.143   9.163  0.00  0.00    +0.000 A 
ATOM     23  C   UNL     1      45.201   3.535   9.237  0.00  0.00    +0.000 A 
ATOM     24  C   UNL     1      45.805   4.316   8.237  0.00  0.00    +0.000 A 
ATOM     25  C   UNL     1      46.549   3.732   7.209  0.00  0.00    +0.000 A 
ENDBRANCH  17  23
ENDBRANCH  16  17
ENDBRANCH   1  16
TORSDOF 6
ENDMDL
