MODEL 1
REMARK VINA RESULT:    -7.969      0.000      0.000
REMARK INTER + INTRA:         -12.807
REMARK INTER:                 -11.695
REMARK INTRA:                  -1.111
REMARK UNBOUND:                -1.111
REMARK  Name = 
REMARK  9 active torsions:
REMARK  status: ('A' for Active; 'I' for Inactive)
REMARK    1  A    between atoms: C_1  and  C_2
REMARK    2  A    between atoms: C_2  and  C_3
REMARK    3  A    between atoms: C_7  and  C_8
REMARK    4  A    between atoms: C_8  and  C_9
REMARK    5  A    between atoms: C_9  and  N_10
REMARK    6  A    between atoms: N_10  and  C_11
REMARK    7  A    between atoms: C_14  and  C_15
REMARK    8  A    between atoms: N_24  and  C_25
REMARK    9  A    between atoms: C_25  and  C_26
REMARK                            x       y       z     vdW  Elec       q    Type
REMARK                         _______ _______ _______ _____ _____    ______ ____
ROOT
ATOM      1  C   UNL     1      46.775   6.835  13.058  0.00  0.00    +0.000 A 
ATOM      2  C   UNL     1      47.414   5.741  13.662  0.00  0.00    +0.000 A 
ATOM      3  C   UNL     1      46.753   4.519  13.827  0.00  0.00    +0.000 A 
ATOM      4  C   UNL     1      45.432   4.364  13.407  0.00  0.00    +0.000 A 
ATOM      5  C   UNL     1      44.760   5.425  12.799  0.00  0.00    +0.000 A 
ATOM      6  C   UNL     1      45.459   6.634  12.615  0.00  0.00    +0.000 A 
ENDROOT
BRANCH   1   8
ATOM      7  C   UNL     1      46.412   9.205  12.400  0.00  0.00    +0.000 C 
ATOM      8  C   UNL     1      47.459   8.220  12.974  0.00  0.00    +0.000 C 
ATOM      9  C   UNL     1      47.936   8.667  14.380  0.00  0.00    +0.000 C 
ATOM     10  C   UNL     1      48.713   9.983  14.341  0.00  0.00    +0.000 C 
ATOM     11  C   UNL     1      49.872   9.939  13.345  0.00  0.00    +0.000 C 
ATOM     12  N   UNL     1      49.424   9.530  12.008  0.00  0.00    +0.000 NA
ATOM     13  C   UNL     1      48.720   8.239  12.043  0.00  0.00    +0.000 C 
BRANCH  12  14
ATOM     14  C   UNL     1      50.556   9.506  11.038  0.00  0.00    +0.000 C 
BRANCH  14  15
ATOM     15  C   UNL     1      51.627   8.385  11.063  0.00  0.00    +0.000 C 
ATOM     16  F   UNL     1      51.242   7.261  10.422  0.00  0.00    +0.000 F 
ATOM     17  F   UNL     1      52.772   8.802  10.473  0.00  0.00    +0.000 F 
ATOM     18  F   UNL     1      51.927   8.036  12.336  0.00  0.00    +0.000 F 
ENDBRANCH  14  15
ENDBRANCH  12  14
ENDBRANCH   1   8
BRANCH   5  19
ATOM     19  C   UNL     1      43.298   5.267  12.401  0.00  0.00    +0.000 C 
BRANCH  19  20
ATOM     20  C   UNL     1      43.098   4.389  11.161  0.00  0.00    +0.000 C 
BRANCH  20  21
ATOM     21  N   UNL     1      43.708   4.927   9.943  0.00  0.00    +0.000 N 
ATOM     22  H   UNL     1      44.193   5.807  10.113  0.00  0.00    +0.000 HD
BRANCH  21  23
ATOM     23  C   UNL     1      44.531   4.014   9.248  0.00  0.00    +0.000 A 
ATOM     24  C   UNL     1      45.521   4.411   8.339  0.00  0.00    +0.000 A 
ATOM     25  C   UNL     1      46.356   3.473   7.733  0.00  0.00    +0.000 A 
ATOM     26  C   UNL     1      46.205   2.142   8.082  0.00  0.00    +0.000 A 
ATOM     27  N   UNL     1      45.289   1.697   8.983  0.00  0.00    +0.000 NA
ATOM     28  C   UNL     1      44.497   2.647   9.546  0.00  0.00    +0.000 A 
BRANCH  26  29
ATOM     29  C   UNL     1      47.108   1.118   7.467  0.00  0.00    +0.000 C 
ATOM     30  N   UNL     1      48.116   1.620   6.689  0.00  0.00    +0.000 N 
ATOM     31  O   UNL     1      46.963  -0.085   7.634  0.00  0.00    +0.000 OA
ATOM     32  H   UNL     1      48.181   2.624   6.549  0.00  0.00    +0.000 HD
ATOM     33  H   UNL     1      48.739   0.989   6.211  0.00  0.00    +0.000 HD
ENDBRANCH  26  29
ENDBRANCH  21  23
ENDBRANCH  20  21
ENDBRANCH  19  20
ENDBRANCH   5  19
TORSDOF 8
ENDMDL
MODEL 2
REMARK VINA RESULT:    -7.925      3.067      4.198
REMARK INTER + INTRA:         -12.743
REMARK INTER:                 -11.792
REMARK INTRA:                  -0.951
REMARK UNBOUND:                -1.111
REMARK  Name = 
REMARK  9 active torsions:
REMARK  status: ('A' for Active; 'I' for Inactive)
REMARK    1  A    between atoms: C_1  and  C_2
REMARK    2  A    between atoms: C_2  and  C_3
REMARK    3  A    between atoms: C_7  and  C_8
REMARK    4  A    between atoms: C_8  and  C_9
REMARK    5  A    between atoms: C_9  and  N_10
REMARK    6  A    between atoms: N_10  and  C_11
REMARK    7  A    between atoms: C_14  and  C_15
REMARK    8  A    between atoms: N_24  and  C_25
REMARK    9  A    between atoms: C_25  and  C_26
REMARK                            x       y       z     vdW  Elec       q    Type
REMARK                         _______ _______ _______ _____ _____    ______ ____
ROOT
ATOM      1  C   UNL     1      46.813   7.791  13.016  0.00  0.00    +0.000 A 
ATOM      2  C   UNL     1      46.641   9.127  12.623  0.00  0.00    +0.000 A 
ATOM      3  C   UNL     1      45.523   9.524  11.880  0.00  0.00    +0.000 A 
ATOM      4  C   UNL     1      44.557   8.592  11.500  0.00  0.00    +0.000 A 
ATOM      5  C   UNL     1      44.687   7.253  11.872  0.00  0.00    +0.000 A 
ATOM      6  C   UNL     1      45.805   6.887  12.647  0.00  0.00    +0.000 A 
ENDROOT
BRANCH   1   8
ATOM      7  C   UNL     1      48.992   6.645  12.673  0.00  0.00    +0.000 C 
ATOM      8  C   UNL     1      48.099   7.324  13.739  0.00  0.00    +0.000 C 
ATOM      9  C   UNL     1      48.819   8.536  14.383  0.00  0.00    +0.000 C 
ATOM     10  C   UNL     1      50.043   8.120  15.200  0.00  0.00    +0.000 C 
ATOM     11  C   UNL     1      49.705   7.052  16.240  0.00  0.00    +0.000 C 
ATOM     12  N   UNL     1      49.035   5.895  15.634  0.00  0.00    +0.000 NA
ATOM     13  C   UNL     1      47.830   6.295  14.890  0.00  0.00    +0.000 C 
BRANCH  12  14
ATOM     14  C   UNL     1      48.723   4.850  16.651  0.00  0.00    +0.000 C 
BRANCH  14  15
ATOM     15  C   UNL     1      47.736   3.692  16.353  0.00  0.00    +0.000 C 
ATOM     16  F   UNL     1      47.615   3.417  15.036  0.00  0.00    +0.000 F 
ATOM     17  F   UNL     1      48.140   2.551  16.958  0.00  0.00    +0.000 F 
ATOM     18  F   UNL     1      46.499   3.985  16.816  0.00  0.00    +0.000 F 
ENDBRANCH  14  15
ENDBRANCH  12  14
ENDBRANCH   1   8
BRANCH   5  19
ATOM     19  C   UNL     1      43.662   6.233  11.397  0.00  0.00    +0.000 C 
BRANCH  19  20
ATOM     20  C   UNL     1      44.161   4.786  11.483  0.00  0.00    +0.000 C 
BRANCH  20  21
ATOM     21  N   UNL     1      43.662   3.917  10.415  0.00  0.00    +0.000 N 
ATOM     22  H   UNL     1      42.863   4.323   9.931  0.00  0.00    +0.000 HD
BRANCH  21  23
ATOM     23  C   UNL     1      44.649   3.485   9.501  0.00  0.00    +0.000 A 
ATOM     24  C   UNL     1      45.003   2.140   9.332  0.00  0.00    +0.000 A 
ATOM     25  C   UNL     1      45.932   1.759   8.365  0.00  0.00    +0.000 A 
ATOM     26  C   UNL     1      46.468   2.742   7.550  0.00  0.00    +0.000 A 
ATOM     27  N   UNL     1      46.139   4.058   7.640  0.00  0.00    +0.000 NA
ATOM     28  C   UNL     1      45.231   4.381   8.598  0.00  0.00    +0.000 A 
BRANCH  26  29
ATOM     29  C   UNL     1      47.447   2.355   6.485  0.00  0.00    +0.000 C 
ATOM     30  N   UNL     1      47.386   3.100   5.339  0.00  0.00    +0.000 N 
ATOM     31  O   UNL     1      48.245   1.437   6.615  0.00  0.00    +0.000 OA
ATOM     32  H   UNL     1      46.686   3.831   5.259  0.00  0.00    +0.000 HD
ATOM     33  H   UNL     1      47.989   2.872   4.563  0.00  0.00    +0.000 HD
ENDBRANCH  26  29
ENDBRANCH  21  23
ENDBRANCH  20  21
ENDBRANCH  19  20
ENDBRANCH   5  19
TORSDOF 8
ENDMDL
MODEL 3
REMARK VINA RESULT:    -7.833      3.589      4.707
REMARK INTER + INTRA:         -12.608
REMARK INTER:                 -11.566
REMARK INTRA:                  -1.042
REMARK UNBOUND:                -1.111
REMARK  Name = 
REMARK  9 active torsions:
REMARK  status: ('A' for Active; 'I' for Inactive)
REMARK    1  A    between atoms: C_1  and  C_2
REMARK    2  A    between atoms: C_2  and  C_3
REMARK    3  A    between atoms: C_7  and  C_8
REMARK    4  A    between atoms: C_8  and  C_9
REMARK    5  A    between atoms: C_9  and  N_10
REMARK    6  A    between atoms: N_10  and  C_11
REMARK    7  A    between atoms: C_14  and  C_15
REMARK    8  A    between atoms: N_24  and  C_25
REMARK    9  A    between atoms: C_25  and  C_26
REMARK                            x       y       z     vdW  Elec       q    Type
REMARK                         _______ _______ _______ _____ _____    ______ ____
ROOT
ATOM      1  C   UNL     1      48.362   7.186  14.079  0.00  0.00    +0.000 A 
ATOM      2  C   UNL     1      49.036   7.892  13.071  0.00  0.00    +0.000 A 
ATOM      3  C   UNL     1      48.637   7.800  11.732  0.00  0.00    +0.000 A 
ATOM      4  C   UNL     1      47.563   6.988  11.367  0.00  0.00    +0.000 A 
ATOM      5  C   UNL     1      46.862   6.271  12.338  0.00  0.00    +0.000 A 
ATOM      6  C   UNL     1      47.264   6.407  13.681  0.00  0.00    +0.000 A 
ENDROOT
BRANCH   1   8
ATOM      7  C   UNL     1      50.403   7.017  15.488  0.00  0.00    +0.000 C 
ATOM      8  C   UNL     1      48.866   7.194  15.541  0.00  0.00    +0.000 C 
ATOM      9  C   UNL     1      48.480   8.527  16.233  0.00  0.00    +0.000 C 
ATOM     10  C   UNL     1      48.862   8.548  17.713  0.00  0.00    +0.000 C 
ATOM     11  C   UNL     1      48.303   7.343  18.469  0.00  0.00    +0.000 C 
ATOM     12  N   UNL     1      48.677   6.077  17.828  0.00  0.00    +0.000 NA
ATOM     13  C   UNL     1      48.264   6.041  16.416  0.00  0.00    +0.000 C 
BRANCH  12  14
ATOM     14  C   UNL     1      48.143   4.905  18.580  0.00  0.00    +0.000 C 
BRANCH  14  15
ATOM     15  C   UNL     1      48.294   3.457  18.046  0.00  0.00    +0.000 C 
ATOM     16  F   UNL     1      47.323   3.103  17.177  0.00  0.00    +0.000 F 
ATOM     17  F   UNL     1      49.475   3.305  17.401  0.00  0.00    +0.000 F 
ATOM     18  F   UNL     1      48.266   2.565  19.063  0.00  0.00    +0.000 F 
ENDBRANCH  14  15
ENDBRANCH  12  14
ENDBRANCH   1   8
BRANCH   5  19
ATOM     19  C   UNL     1      45.733   5.337  11.922  0.00  0.00    +0.000 C 
BRANCH  19  20
ATOM     20  C   UNL     1      44.849   5.912  10.809  0.00  0.00    +0.000 C 
BRANCH  20  21
ATOM     21  N   UNL     1      44.027   4.914  10.124  0.00  0.00    +0.000 N 
ATOM     22  H   UNL     1      43.277   5.340   9.580  0.00  0.00    +0.000 HD
BRANCH  21  23
ATOM     23  C   UNL     1      44.757   3.985   9.349  0.00  0.00    +0.000 A 
ATOM     24  C   UNL     1      45.668   4.364   8.354  0.00  0.00    +0.000 A 
ATOM     25  C   UNL     1      46.417   3.408   7.668  0.00  0.00    +0.000 A 
ATOM     26  C   UNL     1      46.264   2.079   8.022  0.00  0.00    +0.000 A 
ATOM     27  N   UNL     1      45.424   1.651   9.001  0.00  0.00    +0.000 NA
ATOM     28  C   UNL     1      44.714   2.617   9.641  0.00  0.00    +0.000 A 
BRANCH  26  29
ATOM     29  C   UNL     1      47.077   1.037   7.319  0.00  0.00    +0.000 C 
ATOM     30  N   UNL     1      46.796  -0.256   7.668  0.00  0.00    +0.000 N 
ATOM     31  O   UNL     1      47.939   1.308   6.494  0.00  0.00    +0.000 OA
ATOM     32  H   UNL     1      46.097  -0.437   8.382  0.00  0.00    +0.000 HD
ATOM     33  H   UNL     1      47.331  -1.009   7.264  0.00  0.00    +0.000 HD
ENDBRANCH  26  29
ENDBRANCH  21  23
ENDBRANCH  20  21
ENDBRANCH  19  20
ENDBRANCH   5  19
TORSDOF 8
ENDMDL
MODEL 4
REMARK VINA RESULT:    -7.776      1.559      2.313
REMARK INTER + INTRA:         -12.524
REMARK INTER:                 -11.225
REMARK INTRA:                  -1.299
REMARK UNBOUND:                -1.111
REMARK  Name = 
REMARK  9 active torsions:
REMARK  status: ('A' for Active; 'I' for Inactive)
REMARK    1  A    between atoms: C_1  and  C_2
REMARK    2  A    between atoms: C_2  and  C_3
REMARK    3  A    between atoms: C_7  and  C_8
REMARK    4  A    between atoms: C_8  and  C_9
REMARK    5  A    between atoms: C_9  and  N_10
REMARK    6  A    between atoms: N_10  and  C_11
REMARK    7  A    between atoms: C_14  and  C_15
REMARK    8  A    between atoms: N_24  and  C_25
REMARK    9  A    between atoms: C_25  and  C_26
REMARK                            x       y       z     vdW  Elec       q    Type
REMARK                         _______ _______ _______ _____ _____    ______ ____
ROOT
ATOM      1  C   UNL     1      46.999   6.740  12.843  0.00  0.00    +0.000 A 
ATOM      2  C   UNL     1      47.543   5.691  13.600  0.00  0.00    +0.000 A 
ATOM      3  C   UNL     1      46.783   4.559  13.918  0.00  0.00    +0.000 A 
ATOM      4  C   UNL     1      45.456   4.456  13.500  0.00  0.00    +0.000 A 
ATOM      5  C   UNL     1      44.876   5.475  12.743  0.00  0.00    +0.000 A 
ATOM      6  C   UNL     1      45.673   6.587  12.409  0.00  0.00    +0.000 A 
ENDROOT
BRANCH   1   8
ATOM      7  C   UNL     1      48.843   7.717  11.493  0.00  0.00    +0.000 C 
ATOM      8  C   UNL     1      47.794   8.042  12.583  0.00  0.00    +0.000 C 
ATOM      9  C   UNL     1      46.836   9.170  12.121  0.00  0.00    +0.000 C 
ATOM     10  C   UNL     1      47.554  10.509  11.951  0.00  0.00    +0.000 C 
ATOM     11  C   UNL     1      48.329  10.912  13.205  0.00  0.00    +0.000 C 
ATOM     12  N   UNL     1      49.248   9.853  13.639  0.00  0.00    +0.000 NA
ATOM     13  C   UNL     1      48.545   8.578  13.851  0.00  0.00    +0.000 C 
BRANCH  12  14
ATOM     14  C   UNL     1      50.013  10.259  14.853  0.00  0.00    +0.000 C 
BRANCH  14  15
ATOM     15  C   UNL     1      51.213   9.428  15.375  0.00  0.00    +0.000 C 
ATOM     16  F   UNL     1      51.838   8.723  14.408  0.00  0.00    +0.000 F 
ATOM     17  F   UNL     1      52.144  10.233  15.939  0.00  0.00    +0.000 F 
ATOM     18  F   UNL     1      50.811   8.545  16.319  0.00  0.00    +0.000 F 
ENDBRANCH  14  15
ENDBRANCH  12  14
ENDBRANCH   1   8
BRANCH   5  19
ATOM     19  C   UNL     1      43.409   5.382  12.347  0.00  0.00    +0.000 C 
BRANCH  19  20
ATOM     20  C   UNL     1      43.162   4.467  11.142  0.00  0.00    +0.000 C 
BRANCH  20  21
ATOM     21  N   UNL     1      43.764   4.945   9.896  0.00  0.00    +0.000 N 
ATOM     22  H   UNL     1      44.190   5.864  10.002  0.00  0.00    +0.000 HD
BRANCH  21  23
ATOM     23  C   UNL     1      44.658   4.033   9.290  0.00  0.00    +0.000 A 
ATOM     24  C   UNL     1      44.604   2.649   9.502  0.00  0.00    +0.000 A 
ATOM     25  C   UNL     1      45.464   1.786   8.823  0.00  0.00    +0.000 A 
ATOM     26  C   UNL     1      46.346   2.330   7.906  0.00  0.00    +0.000 A 
ATOM     27  N   UNL     1      46.423   3.659   7.630  0.00  0.00    +0.000 NA
ATOM     28  C   UNL     1      45.568   4.461   8.316  0.00  0.00    +0.000 A 
BRANCH  26  29
ATOM     29  C   UNL     1      47.261   1.422   7.144  0.00  0.00    +0.000 C 
ATOM     30  N   UNL     1      48.349   2.029   6.580  0.00  0.00    +0.000 N 
ATOM     31  O   UNL     1      47.057   0.222   7.021  0.00  0.00    +0.000 OA
ATOM     32  H   UNL     1      48.463   3.033   6.677  0.00  0.00    +0.000 HD
ATOM     33  H   UNL     1      48.988   1.487   6.019  0.00  0.00    +0.000 HD
ENDBRANCH  26  29
ENDBRANCH  21  23
ENDBRANCH  20  21
ENDBRANCH  19  20
ENDBRANCH   5  19
TORSDOF 8
ENDMDL
MODEL 5
REMARK VINA RESULT:    -7.698      1.560      2.385
REMARK INTER + INTRA:         -12.410
REMARK INTER:                 -11.437
REMARK INTRA:                  -0.973
REMARK UNBOUND:                -1.111
REMARK  Name = 
REMARK  9 active torsions:
REMARK  status: ('A' for Active; 'I' for Inactive)
REMARK    1  A    between atoms: C_1  and  C_2
REMARK    2  A    between atoms: C_2  and  C_3
REMARK    3  A    between atoms: C_7  and  C_8
REMARK    4  A    between atoms: C_8  and  C_9
REMARK    5  A    between atoms: C_9  and  N_10
REMARK    6  A    between atoms: N_10  and  C_11
REMARK    7  A    between atoms: C_14  and  C_15
REMARK    8  A    between atoms: N_24  and  C_25
REMARK    9  A    between atoms: C_25  and  C_26
REMARK                            x       y       z     vdW  Elec       q    Type
REMARK                         _______ _______ _______ _____ _____    ______ ____
ROOT
ATOM      1  C   UNL     1      47.826   8.345  12.185  0.00  0.00    +0.000 A 
ATOM      2  C   UNL     1      46.827   9.226  12.627  0.00  0.00    +0.000 A 
ATOM      3  C   UNL     1      45.498   8.806  12.754  0.00  0.00    +0.000 A 
ATOM      4  C   UNL     1      45.133   7.499  12.428  0.00  0.00    +0.000 A 
ATOM      5  C   UNL     1      46.095   6.589  11.988  0.00  0.00    +0.000 A 
ATOM      6  C   UNL     1      47.431   7.029  11.901  0.00  0.00    +0.000 A 
ENDROOT
BRANCH   1   8
ATOM      7  C   UNL     1      49.178  10.086  11.036  0.00  0.00    +0.000 C 
ATOM      8  C   UNL     1      49.274   8.831  11.935  0.00  0.00    +0.000 C 
ATOM      9  C   UNL     1      49.968   9.158  13.282  0.00  0.00    +0.000 C 
ATOM     10  C   UNL     1      51.436   9.544  13.103  0.00  0.00    +0.000 C 
ATOM     11  C   UNL     1      52.216   8.493  12.313  0.00  0.00    +0.000 C 
ATOM     12  N   UNL     1      51.572   8.189  11.030  0.00  0.00    +0.000 NA
ATOM     13  C   UNL     1      50.172   7.770  11.211  0.00  0.00    +0.000 C 
BRANCH  12  14
ATOM     14  C   UNL     1      52.346   7.175  10.258  0.00  0.00    +0.000 C 
BRANCH  14  15
ATOM     15  C   UNL     1      52.743   7.408   8.777  0.00  0.00    +0.000 C 
ATOM     16  F   UNL     1      54.008   7.029   8.495  0.00  0.00    +0.000 F 
ATOM     17  F   UNL     1      51.929   6.712   7.948  0.00  0.00    +0.000 F 
ATOM     18  F   UNL     1      52.634   8.717   8.451  0.00  0.00    +0.000 F 
ENDBRANCH  14  15
ENDBRANCH  12  14
ENDBRANCH   1   8
BRANCH   5  19
ATOM     19  C   UNL     1      45.676   5.185  11.575  0.00  0.00    +0.000 C 
BRANCH  19  20
ATOM     20  C   UNL     1      44.166   5.042  11.356  0.00  0.00    +0.000 C 
BRANCH  20  21
ATOM     21  N   UNL     1      43.777   4.898   9.952  0.00  0.00    +0.000 N 
ATOM     22  H   UNL     1      43.683   5.799   9.484  0.00  0.00    +0.000 HD
BRANCH  21  23
ATOM     23  C   UNL     1      44.590   4.015   9.206  0.00  0.00    +0.000 A 
ATOM     24  C   UNL     1      45.569   4.452   8.304  0.00  0.00    +0.000 A 
ATOM     25  C   UNL     1      46.395   3.540   7.646  0.00  0.00    +0.000 A 
ATOM     26  C   UNL     1      46.246   2.195   7.937  0.00  0.00    +0.000 A 
ATOM     27  N   UNL     1      45.340   1.712   8.828  0.00  0.00    +0.000 NA
ATOM     28  C   UNL     1      44.557   2.637   9.443  0.00  0.00    +0.000 A 
BRANCH  26  29
ATOM     29  C   UNL     1      47.139   1.199   7.266  0.00  0.00    +0.000 C 
ATOM     30  N   UNL     1      48.189   1.732   6.570  0.00  0.00    +0.000 N 
ATOM     31  O   UNL     1      46.951  -0.009   7.322  0.00  0.00    +0.000 OA
ATOM     32  H   UNL     1      48.290   2.741   6.520  0.00  0.00    +0.000 HD
ATOM     33  H   UNL     1      48.811   1.123   6.060  0.00  0.00    +0.000 HD
ENDBRANCH  26  29
ENDBRANCH  21  23
ENDBRANCH  20  21
ENDBRANCH  19  20
ENDBRANCH   5  19
TORSDOF 8
ENDMDL
MODEL 6
REMARK VINA RESULT:    -7.467      5.346      8.278
REMARK INTER + INTRA:         -12.070
REMARK INTER:                 -11.087
REMARK INTRA:                  -0.983
REMARK UNBOUND:                -1.111
REMARK  Name = 
REMARK  9 active torsions:
REMARK  status: ('A' for Active; 'I' for Inactive)
REMARK    1  A    between atoms: C_1  and  C_2
REMARK    2  A    between atoms: C_2  and  C_3
REMARK    3  A    between atoms: C_7  and  C_8
REMARK    4  A    between atoms: C_8  and  C_9
REMARK    5  A    between atoms: C_9  and  N_10
REMARK    6  A    between atoms: N_10  and  C_11
REMARK    7  A    between atoms: C_14  and  C_15
REMARK    8  A    between atoms: N_24  and  C_25
REMARK    9  A    between atoms: C_25  and  C_26
REMARK                            x       y       z     vdW  Elec       q    Type
REMARK                         _______ _______ _______ _____ _____    ______ ____
ROOT
ATOM      1  C   UNL     1      47.011   6.051  12.779  0.00  0.00    +0.000 A 
ATOM      2  C   UNL     1      47.542   7.039  11.935  0.00  0.00    +0.000 A 
ATOM      3  C   UNL     1      48.597   7.857  12.354  0.00  0.00    +0.000 A 
ATOM      4  C   UNL     1      49.138   7.717  13.632  0.00  0.00    +0.000 A 
ATOM      5  C   UNL     1      48.642   6.746  14.503  0.00  0.00    +0.000 A 
ATOM      6  C   UNL     1      47.601   5.914  14.044  0.00  0.00    +0.000 A 
ENDROOT
BRANCH   1   8
ATOM      7  C   UNL     1      45.977   3.795  12.934  0.00  0.00    +0.000 C 
ATOM      8  C   UNL     1      45.772   5.220  12.365  0.00  0.00    +0.000 C 
ATOM      9  C   UNL     1      44.482   5.869  12.929  0.00  0.00    +0.000 C 
ATOM     10  C   UNL     1      43.217   5.147  12.464  0.00  0.00    +0.000 C 
ATOM     11  C   UNL     1      43.156   5.013  10.943  0.00  0.00    +0.000 C 
ATOM     12  N   UNL     1      44.369   4.387  10.404  0.00  0.00    +0.000 NA
ATOM     13  C   UNL     1      45.582   5.113  10.813  0.00  0.00    +0.000 C 
BRANCH  12  14
ATOM     14  C   UNL     1      44.297   4.243   8.921  0.00  0.00    +0.000 C 
BRANCH  14  15
ATOM     15  C   UNL     1      45.424   3.549   8.115  0.00  0.00    +0.000 C 
ATOM     16  F   UNL     1      45.040   3.163   6.879  0.00  0.00    +0.000 F 
ATOM     17  F   UNL     1      46.482   4.380   7.956  0.00  0.00    +0.000 F 
ATOM     18  F   UNL     1      45.866   2.444   8.760  0.00  0.00    +0.000 F 
ENDBRANCH  14  15
ENDBRANCH  12  14
ENDBRANCH   1   8
BRANCH   5  19
ATOM     19  C   UNL     1      49.194   6.644  15.918  0.00  0.00    +0.000 C 
BRANCH  19  20
ATOM     20  C   UNL     1      48.479   5.594  16.776  0.00  0.00    +0.000 C 
BRANCH  20  21
ATOM     21  N   UNL     1      49.157   5.290  18.037  0.00  0.00    +0.000 N 
ATOM     22  H   UNL     1      48.501   5.183  18.810  0.00  0.00    +0.000 HD
BRANCH  21  23
ATOM     23  C   UNL     1      50.055   4.201  17.973  0.00  0.00    +0.000 A 
ATOM     24  C   UNL     1      49.712   2.955  17.432  0.00  0.00    +0.000 A 
ATOM     25  C   UNL     1      50.658   1.935  17.326  0.00  0.00    +0.000 A 
ATOM     26  C   UNL     1      51.954   2.201  17.734  0.00  0.00    +0.000 A 
ATOM     27  N   UNL     1      52.358   3.399  18.232  0.00  0.00    +0.000 NA
ATOM     28  C   UNL     1      51.402   4.361  18.319  0.00  0.00    +0.000 A 
BRANCH  26  29
ATOM     29  C   UNL     1      52.994   1.132  17.604  0.00  0.00    +0.000 C 
ATOM     30  N   UNL     1      52.631  -0.098  18.083  0.00  0.00    +0.000 N 
ATOM     31  O   UNL     1      54.097   1.331  17.112  0.00  0.00    +0.000 OA
ATOM     32  H   UNL     1      51.719  -0.212  18.514  0.00  0.00    +0.000 HD
ATOM     33  H   UNL     1      53.295  -0.856  18.064  0.00  0.00    +0.000 HD
ENDBRANCH  26  29
ENDBRANCH  21  23
ENDBRANCH  20  21
ENDBRANCH  19  20
ENDBRANCH   5  19
TORSDOF 8
ENDMDL
MODEL 7
REMARK VINA RESULT:    -7.400      4.054      7.733
REMARK INTER + INTRA:         -11.973
REMARK INTER:                 -10.525
REMARK INTRA:                  -1.448
REMARK UNBOUND:                -1.111
REMARK  Name = 
REMARK  9 active torsions:
REMARK  status: ('A' for Active; 'I' for Inactive)
REMARK    1  A    between atoms: C_1  and  C_2
REMARK    2  A    between atoms: C_2  and  C_3
REMARK    3  A    between atoms: C_7  and  C_8
REMARK    4  A    between atoms: C_8  and  C_9
REMARK    5  A    between atoms: C_9  and  N_10
REMARK    6  A    between atoms: N_10  and  C_11
REMARK    7  A    between atoms: C_14  and  C_15
REMARK    8  A    between atoms: N_24  and  C_25
REMARK    9  A    between atoms: C_25  and  C_26
REMARK                            x       y       z     vdW  Elec       q    Type
REMARK                         _______ _______ _______ _____ _____    ______ ____
ROOT
ATOM      1  C   UNL     1      46.150   7.309  11.937  0.00  0.00    +0.000 A 
ATOM      2  C   UNL     1      45.336   8.452  11.983  0.00  0.00    +0.000 A 
ATOM      3  C   UNL     1      45.877   9.713  12.258  0.00  0.00    +0.000 A 
ATOM      4  C   UNL     1      47.241   9.861  12.509  0.00  0.00    +0.000 A 
ATOM      5  C   UNL     1      48.087   8.751  12.471  0.00  0.00    +0.000 A 
ATOM      6  C   UNL     1      47.522   7.499  12.159  0.00  0.00    +0.000 A 
ENDROOT
BRANCH   1   8
ATOM      7  C   UNL     1      46.536   4.893  12.382  0.00  0.00    +0.000 C 
ATOM      8  C   UNL     1      45.545   5.898  11.746  0.00  0.00    +0.000 C 
ATOM      9  C   UNL     1      44.153   5.817  12.424  0.00  0.00    +0.000 C 
ATOM     10  C   UNL     1      43.462   4.476  12.177  0.00  0.00    +0.000 C 
ATOM     11  C   UNL     1      43.379   4.135  10.689  0.00  0.00    +0.000 C 
ATOM     12  N   UNL     1      44.696   4.196  10.044  0.00  0.00    +0.000 NA
ATOM     13  C   UNL     1      45.338   5.506  10.242  0.00  0.00    +0.000 C 
BRANCH  12  14
ATOM     14  C   UNL     1      44.612   3.847   8.597  0.00  0.00    +0.000 C 
BRANCH  14  15
ATOM     15  C   UNL     1      45.858   3.390   7.796  0.00  0.00    +0.000 C 
ATOM     16  F   UNL     1      45.582   3.064   6.515  0.00  0.00    +0.000 F 
ATOM     17  F   UNL     1      46.791   4.371   7.760  0.00  0.00    +0.000 F 
ATOM     18  F   UNL     1      46.428   2.306   8.371  0.00  0.00    +0.000 F 
ENDBRANCH  14  15
ENDBRANCH  12  14
ENDBRANCH   1   8
BRANCH   5  19
ATOM     19  C   UNL     1      49.562   8.912  12.810  0.00  0.00    +0.000 C 
BRANCH  19  20
ATOM     20  C   UNL     1      50.096   7.813  13.736  0.00  0.00    +0.000 C 
BRANCH  20  21
ATOM     21  N   UNL     1      49.799   8.030  15.153  0.00  0.00    +0.000 N 
ATOM     22  H   UNL     1      49.282   8.894  15.310  0.00  0.00    +0.000 HD
BRANCH  21  23
ATOM     23  C   UNL     1      49.176   6.937  15.795  0.00  0.00    +0.000 A 
ATOM     24  C   UNL     1      48.262   6.089  15.155  0.00  0.00    +0.000 A 
ATOM     25  C   UNL     1      47.731   4.980  15.812  0.00  0.00    +0.000 A 
ATOM     26  C   UNL     1      48.159   4.718  17.102  0.00  0.00    +0.000 A 
ATOM     27  N   UNL     1      49.069   5.480  17.765  0.00  0.00    +0.000 NA
ATOM     28  C   UNL     1      49.557   6.551  17.085  0.00  0.00    +0.000 A 
BRANCH  26  29
ATOM     29  C   UNL     1      47.625   3.517  17.820  0.00  0.00    +0.000 C 
ATOM     30  N   UNL     1      48.307   3.163  18.952  0.00  0.00    +0.000 N 
ATOM     31  O   UNL     1      46.652   2.886  17.430  0.00  0.00    +0.000 OA
ATOM     32  H   UNL     1      49.129   3.693  19.223  0.00  0.00    +0.000 HD
ATOM     33  H   UNL     1      48.027   2.341  19.466  0.00  0.00    +0.000 HD
ENDBRANCH  26  29
ENDBRANCH  21  23
ENDBRANCH  20  21
ENDBRANCH  19  20
ENDBRANCH   5  19
TORSDOF 8
ENDMDL
MODEL 8
REMARK VINA RESULT:    -7.014      1.533      2.090
REMARK INTER + INTRA:         -11.406
REMARK INTER:                 -10.419
REMARK INTRA:                  -0.987
REMARK UNBOUND:                -1.111
REMARK  Name = 
REMARK  9 active torsions:
REMARK  status: ('A' for Active; 'I' for Inactive)
REMARK    1  A    between atoms: C_1  and  C_2
REMARK    2  A    between atoms: C_2  and  C_3
REMARK    3  A    between atoms: C_7  and  C_8
REMARK    4  A    between atoms: C_8  and  C_9
REMARK    5  A    between atoms: C_9  and  N_10
REMARK    6  A    between atoms: N_10  and  C_11
REMARK    7  A    between atoms: C_14  and  C_15
REMARK    8  A    between atoms: N_24  and  C_25
REMARK    9  A    between atoms: C_25  and  C_26
REMARK                            x       y       z     vdW  Elec       q    Type
REMARK                         _______ _______ _______ _____ _____    ______ ____
ROOT
ATOM      1  C   UNL     1      46.218   7.517  12.814  0.00  0.00    +0.000 A 
ATOM      2  C   UNL     1      45.544   8.270  11.840  0.00  0.00    +0.000 A 
ATOM      3  C   UNL     1      44.376   7.791  11.236  0.00  0.00    +0.000 A 
ATOM      4  C   UNL     1      43.862   6.540  11.580  0.00  0.00    +0.000 A 
ATOM      5  C   UNL     1      44.499   5.759  12.545  0.00  0.00    +0.000 A 
ATOM      6  C   UNL     1      45.654   6.280  13.161  0.00  0.00    +0.000 A 
ENDROOT
BRANCH   1   8
ATOM      7  C   UNL     1      47.261   9.200  14.317  0.00  0.00    +0.000 C 
ATOM      8  C   UNL     1      47.568   7.990  13.403  0.00  0.00    +0.000 C 
ATOM      9  C   UNL     1      48.234   6.839  14.201  0.00  0.00    +0.000 C 
ATOM     10  C   UNL     1      49.622   7.217  14.720  0.00  0.00    +0.000 C 
ATOM     11  C   UNL     1      50.535   7.725  13.604  0.00  0.00    +0.000 C 
ATOM     12  N   UNL     1      49.916   8.824  12.853  0.00  0.00    +0.000 NA
ATOM     13  C   UNL     1      48.602   8.440  12.314  0.00  0.00    +0.000 C 
BRANCH  12  14
ATOM     14  C   UNL     1      50.818   9.326  11.778  0.00  0.00    +0.000 C 
BRANCH  14  15
ATOM     15  C   UNL     1      51.626   8.359  10.874  0.00  0.00    +0.000 C 
ATOM     16  F   UNL     1      50.933   7.257  10.514  0.00  0.00    +0.000 F 
ATOM     17  F   UNL     1      52.004   8.977   9.729  0.00  0.00    +0.000 F 
ATOM     18  F   UNL     1      52.748   7.939  11.502  0.00  0.00    +0.000 F 
ENDBRANCH  14  15
ENDBRANCH  12  14
ENDBRANCH   1   8
BRANCH   5  19
ATOM     19  C   UNL     1      43.967   4.369  12.867  0.00  0.00    +0.000 C 
BRANCH  19  20
ATOM     20  C   UNL     1      44.537   3.276  11.955  0.00  0.00    +0.000 C 
BRANCH  20  21
ATOM     21  N   UNL     1      43.909   3.213  10.634  0.00  0.00    +0.000 N 
ATOM     22  H   UNL     1      43.268   3.989  10.475  0.00  0.00    +0.000 HD
BRANCH  21  23
ATOM     23  C   UNL     1      44.817   3.071   9.560  0.00  0.00    +0.000 A 
ATOM     24  C   UNL     1      45.276   1.829   9.102  0.00  0.00    +0.000 A 
ATOM     25  C   UNL     1      46.115   1.740   7.992  0.00  0.00    +0.000 A 
ATOM     26  C   UNL     1      46.452   2.909   7.332  0.00  0.00    +0.000 A 
ATOM     27  N   UNL     1      46.011   4.140   7.704  0.00  0.00    +0.000 NA
ATOM     28  C   UNL     1      45.198   4.177   8.792  0.00  0.00    +0.000 A 
BRANCH  26  29
ATOM     29  C   UNL     1      47.329   2.838   6.121  0.00  0.00    +0.000 C 
ATOM     30  N   UNL     1      48.659   2.641   6.374  0.00  0.00    +0.000 N 
ATOM     31  O   UNL     1      46.901   2.953   4.980  0.00  0.00    +0.000 OA
ATOM     32  H   UNL     1      48.978   2.584   7.336  0.00  0.00    +0.000 HD
ATOM     33  H   UNL     1      49.315   2.621   5.608  0.00  0.00    +0.000 HD
ENDBRANCH  26  29
ENDBRANCH  21  23
ENDBRANCH  20  21
ENDBRANCH  19  20
ENDBRANCH   5  19
TORSDOF 8
ENDMDL
MODEL 9
REMARK VINA RESULT:    -6.527      3.947      7.494
REMARK INTER + INTRA:         -10.690
REMARK INTER:                  -9.612
REMARK INTRA:                  -1.079
REMARK UNBOUND:                -1.111
REMARK  Name = 
REMARK  9 active torsions:
REMARK  status: ('A' for Active; 'I' for Inactive)
REMARK    1  A    between atoms: C_1  and  C_2
REMARK    2  A    between atoms: C_2  and  C_3
REMARK    3  A    between atoms: C_7  and  C_8
REMARK    4  A    between atoms: C_8  and  C_9
REMARK    5  A    between atoms: C_9  and  N_10
REMARK    6  A    between atoms: N_10  and  C_11
REMARK    7  A    between atoms: C_14  and  C_15
REMARK    8  A    between atoms: N_24  and  C_25
REMARK    9  A    between atoms: C_25  and  C_26
REMARK                            x       y       z     vdW  Elec       q    Type
REMARK                         _______ _______ _______ _____ _____    ______ ____
ROOT
ATOM      1  C   UNL     1      46.923   6.016  12.940  0.00  0.00    +0.000 A 
ATOM      2  C   UNL     1      47.432   5.860  14.239  0.00  0.00    +0.000 A 
ATOM      3  C   UNL     1      48.558   6.573  14.664  0.00  0.00    +0.000 A 
ATOM      4  C   UNL     1      49.213   7.448  13.797  0.00  0.00    +0.000 A 
ATOM      5  C   UNL     1      48.739   7.634  12.497  0.00  0.00    +0.000 A 
ATOM      6  C   UNL     1      47.584   6.930  12.105  0.00  0.00    +0.000 A 
ENDROOT
BRANCH   1   8
ATOM      7  C   UNL     1      46.007   3.704  12.918  0.00  0.00    +0.000 C 
ATOM      8  C   UNL     1      45.748   5.149  12.427  0.00  0.00    +0.000 C 
ATOM      9  C   UNL     1      44.404   5.694  12.974  0.00  0.00    +0.000 C 
ATOM     10  C   UNL     1      43.198   4.938  12.414  0.00  0.00    +0.000 C 
ATOM     11  C   UNL     1      43.204   4.894  10.887  0.00  0.00    +0.000 C 
ATOM     12  N   UNL     1      44.469   4.366  10.363  0.00  0.00    +0.000 NA
ATOM     13  C   UNL     1      45.624   5.127  10.864  0.00  0.00    +0.000 C 
BRANCH  12  14
ATOM     14  C   UNL     1      44.462   4.310   8.873  0.00  0.00    +0.000 C 
BRANCH  14  15
ATOM     15  C   UNL     1      45.600   3.619   8.078  0.00  0.00    +0.000 C 
ATOM     16  F   UNL     1      46.679   4.408   7.891  0.00  0.00    +0.000 F 
ATOM     17  F   UNL     1      46.031   2.510   8.725  0.00  0.00    +0.000 F 
ATOM     18  F   UNL     1      45.167   3.236   6.854  0.00  0.00    +0.000 F 
ENDBRANCH  14  15
ENDBRANCH  12  14
ENDBRANCH   1   8
BRANCH   5  19
ATOM     19  C   UNL     1      49.498   8.541  11.538  0.00  0.00    +0.000 C 
BRANCH  19  20
ATOM     20  C   UNL     1      50.998   8.627  11.842  0.00  0.00    +0.000 C 
BRANCH  20  21
ATOM     21  N   UNL     1      51.781   7.512  11.305  0.00  0.00    +0.000 N 
ATOM     22  H   UNL     1      51.287   6.623  11.382  0.00  0.00    +0.000 HD
BRANCH  21  23
ATOM     23  C   UNL     1      52.269   7.715   9.995  0.00  0.00    +0.000 A 
ATOM     24  C   UNL     1      52.642   8.972   9.501  0.00  0.00    +0.000 A 
ATOM     25  C   UNL     1      53.186   9.108   8.224  0.00  0.00    +0.000 A 
ATOM     26  C   UNL     1      53.382   7.962   7.472  0.00  0.00    +0.000 A 
ATOM     27  N   UNL     1      53.075   6.711   7.908  0.00  0.00    +0.000 NA
ATOM     28  C   UNL     1      52.546   6.629   9.157  0.00  0.00    +0.000 A 
BRANCH  26  29
ATOM     29  C   UNL     1      53.991   8.078   6.109  0.00  0.00    +0.000 C 
ATOM     30  N   UNL     1      54.934   9.061   5.973  0.00  0.00    +0.000 N 
ATOM     31  O   UNL     1      53.673   7.356   5.174  0.00  0.00    +0.000 OA
ATOM     32  H   UNL     1      55.144   9.659   6.765  0.00  0.00    +0.000 HD
ATOM     33  H   UNL     1      55.359   9.223   5.073  0.00  0.00    +0.000 HD
ENDBRANCH  26  29
ENDBRANCH  21  23
ENDBRANCH  20  21
ENDBRANCH  19  20
ENDBRANCH   5  19
TORSDOF 8
ENDMDL
