MODEL 1
REMARK VINA RESULT:    -7.468      0.000      0.000
REMARK INTER + INTRA:          -9.128
REMARK INTER:                  -8.778
REMARK INTRA:                  -0.350
REMARK UNBOUND:                -0.350
REMARK  Name = 
REMARK  3 active torsions:
REMARK  status: ('A' for Active; 'I' for Inactive)
REMARK    1  A    between atoms: C_2  and  C_4
REMARK    2  A    between atoms: N_8  and  C_9
REMARK    3  A    between atoms: C_9  and  C_10
REMARK                            x       y       z     vdW  Elec       q    Type
REMARK                         _______ _______ _______ _____ _____    ______ ____
ROOT
ATOM      1  C   UNL     1      45.548   6.416  12.467  0.00  0.00    +0.000 A 
ATOM      2  C   UNL     1      46.071   5.297  13.106  0.00  0.00    +0.000 A 
ATOM      3  C   UNL     1      45.782   4.029  12.593  0.00  0.00    +0.000 A 
ATOM      4  C   UNL     1      45.018   3.903  11.432  0.00  0.00    +0.000 A 
ATOM      5  N   UNL     1      44.836   2.626  10.903  0.00  0.00    +0.000 N 
ATOM      6  N   UNL     1      44.508   4.986  10.814  0.00  0.00    +0.000 NA
ATOM      7  C   UNL     1      44.748   6.208  11.357  0.00  0.00    +0.000 A 
ATOM      8  H   UNL     1      44.296   2.037  11.529  0.00  0.00    +0.000 HD
ENDROOT
BRANCH   1  10
ATOM      9  N   UNL     1      44.870   8.745  12.582  0.00  0.00    +0.000 N 
ATOM     10  C   UNL     1      45.806   7.803  12.908  0.00  0.00    +0.000 C 
ATOM     11  O   UNL     1      46.787   8.090  13.579  0.00  0.00    +0.000 OA
ATOM     12  H   UNL     1      44.992   9.656  13.005  0.00  0.00    +0.000 HD
ATOM     13  H   UNL     1      43.938   8.496  12.282  0.00  0.00    +0.000 HD
ENDBRANCH   1  10
BRANCH   5  14
ATOM     14  C   UNL     1      44.373   2.526   9.521  0.00  0.00    +0.000 C 
BRANCH  14  15
ATOM     15  C   UNL     1      45.462   2.353   8.479  0.00  0.00    +0.000 A 
ATOM     16  C   UNL     1      45.911   3.453   7.744  0.00  0.00    +0.000 A 
ATOM     17  C   UNL     1      46.990   3.302   6.880  0.00  0.00    +0.000 A 
ATOM     18  C   UNL     1      47.603   2.061   6.772  0.00  0.00    +0.000 A 
ATOM     19  C   UNL     1      47.093   1.014   7.521  0.00  0.00    +0.000 A 
ATOM     20  N   UNL     1      46.039   1.124   8.362  0.00  0.00    +0.000 NA
ENDBRANCH  14  15
ENDBRANCH   5  14
TORSDOF 3
ENDMDL
MODEL 2
REMARK VINA RESULT:    -7.396      2.739      6.462
REMARK INTER + INTRA:          -9.043
REMARK INTER:                  -8.763
REMARK INTRA:                  -0.280
REMARK UNBOUND:                -0.350
REMARK  Name = 
REMARK  3 active torsions:
REMARK  status: ('A' for Active; 'I' for Inactive)
REMARK    1  A    between atoms: C_2  and  C_4
REMARK    2  A    between atoms: N_8  and  C_9
REMARK    3  A    between atoms: C_9  and  C_10
REMARK                            x       y       z     vdW  Elec       q    Type
REMARK                         _______ _______ _______ _____ _____    ______ ____
ROOT
ATOM      1  C   UNL     1      46.343   2.109   7.853  0.00  0.00    +0.000 A 
ATOM      2  C   UNL     1      46.342   3.396   7.328  0.00  0.00    +0.000 A 
ATOM      3  C   UNL     1      45.608   4.391   7.980  0.00  0.00    +0.000 A 
ATOM      4  C   UNL     1      44.930   4.097   9.164  0.00  0.00    +0.000 A 
ATOM      5  N   UNL     1      44.293   5.142   9.832  0.00  0.00    +0.000 N 
ATOM      6  N   UNL     1      44.929   2.849   9.672  0.00  0.00    +0.000 NA
ATOM      7  C   UNL     1      45.596   1.879   8.995  0.00  0.00    +0.000 A 
ATOM      8  H   UNL     1      43.527   5.521   9.284  0.00  0.00    +0.000 HD
ENDROOT
BRANCH   1  10
ATOM      9  N   UNL     1      46.748  -0.277   7.648  0.00  0.00    +0.000 N 
ATOM     10  C   UNL     1      47.099   0.986   7.259  0.00  0.00    +0.000 C 
ATOM     11  O   UNL     1      47.968   1.171   6.418  0.00  0.00    +0.000 OA
ATOM     12  H   UNL     1      47.179  -1.035   7.135  0.00  0.00    +0.000 HD
ATOM     13  H   UNL     1      45.872  -0.472   8.114  0.00  0.00    +0.000 HD
ENDBRANCH   1  10
BRANCH   5  14
ATOM     14  C   UNL     1      43.915   4.923  11.225  0.00  0.00    +0.000 C 
BRANCH  14  15
ATOM     15  C   UNL     1      45.021   5.134  12.243  0.00  0.00    +0.000 A 
ATOM     16  C   UNL     1      45.577   4.041  12.911  0.00  0.00    +0.000 A 
ATOM     17  C   UNL     1      46.669   4.237  13.749  0.00  0.00    +0.000 A 
ATOM     18  C   UNL     1      47.187   5.516  13.898  0.00  0.00    +0.000 A 
ATOM     19  C   UNL     1      46.574   6.553  13.215  0.00  0.00    +0.000 A 
ATOM     20  N   UNL     1      45.505   6.398  12.400  0.00  0.00    +0.000 NA
ENDBRANCH  14  15
ENDBRANCH   5  14
TORSDOF 3
ENDMDL
MODEL 3
REMARK VINA RESULT:    -6.837      2.822      6.322
REMARK INTER + INTRA:          -8.386
REMARK INTER:                  -8.245
REMARK INTRA:                  -0.141
REMARK UNBOUND:                -0.350
REMARK  Name = 
REMARK  3 active torsions:
REMARK  status: ('A' for Active; 'I' for Inactive)
REMARK    1  A    between atoms: C_2  and  C_4
REMARK    2  A    between atoms: N_8  and  C_9
REMARK    3  A    between atoms: C_9  and  C_10
REMARK                            x       y       z     vdW  Elec       q    Type
REMARK                         _______ _______ _______ _____ _____    ______ ____
ROOT
ATOM      1  C   UNL     1      46.504   2.782   7.340  0.00  0.00    +0.000 A 
ATOM      2  C   UNL     1      45.991   1.656   7.975  0.00  0.00    +0.000 A 
ATOM      3  C   UNL     1      45.191   1.824   9.108  0.00  0.00    +0.000 A 
ATOM      4  C   UNL     1      44.880   3.108   9.560  0.00  0.00    +0.000 A 
ATOM      5  N   UNL     1      44.000   3.229  10.634  0.00  0.00    +0.000 N 
ATOM      6  N   UNL     1      45.379   4.199   8.948  0.00  0.00    +0.000 NA
ATOM      7  C   UNL     1      46.203   4.019   7.884  0.00  0.00    +0.000 A 
ATOM      8  H   UNL     1      44.395   2.838  11.485  0.00  0.00    +0.000 HD
ENDROOT
BRANCH   1  10
ATOM      9  N   UNL     1      48.667   2.427   6.294  0.00  0.00    +0.000 N 
ATOM     10  C   UNL     1      47.342   2.723   6.125  0.00  0.00    +0.000 C 
ATOM     11  O   UNL     1      46.866   2.881   5.009  0.00  0.00    +0.000 OA
ATOM     12  H   UNL     1      49.195   2.258   5.448  0.00  0.00    +0.000 HD
ATOM     13  H   UNL     1      49.023   2.025   7.151  0.00  0.00    +0.000 HD
ENDBRANCH   1  10
BRANCH   5  14
ATOM     14  C   UNL     1      43.390   4.536  10.864  0.00  0.00    +0.000 C 
BRANCH  14  15
ATOM     15  C   UNL     1      44.238   5.524  11.644  0.00  0.00    +0.000 A 
ATOM     16  C   UNL     1      45.128   5.067  12.619  0.00  0.00    +0.000 A 
ATOM     17  C   UNL     1      45.983   5.971  13.240  0.00  0.00    +0.000 A 
ATOM     18  C   UNL     1      45.937   7.309  12.871  0.00  0.00    +0.000 A 
ATOM     19  C   UNL     1      45.019   7.690  11.908  0.00  0.00    +0.000 A 
ATOM     20  N   UNL     1      44.166   6.839  11.292  0.00  0.00    +0.000 NA
ENDBRANCH  14  15
ENDBRANCH   5  14
TORSDOF 3
ENDMDL
MODEL 4
REMARK VINA RESULT:    -6.819      2.176      2.669
REMARK INTER + INTRA:          -8.364
REMARK INTER:                  -8.144
REMARK INTRA:                  -0.221
REMARK UNBOUND:                -0.350
REMARK  Name = 
REMARK  3 active torsions:
REMARK  status: ('A' for Active; 'I' for Inactive)
REMARK    1  A    between atoms: C_2  and  C_4
REMARK    2  A    between atoms: N_8  and  C_9
REMARK    3  A    between atoms: C_9  and  C_10
REMARK                            x       y       z     vdW  Elec       q    Type
REMARK                         _______ _______ _______ _____ _____    ______ ____
ROOT
ATOM      1  C   UNL     1      46.601   4.730  13.974  0.00  0.00    +0.000 A 
ATOM      2  C   UNL     1      46.305   6.011  13.524  0.00  0.00    +0.000 A 
ATOM      3  C   UNL     1      45.750   6.169  12.250  0.00  0.00    +0.000 A 
ATOM      4  C   UNL     1      45.460   5.048  11.471  0.00  0.00    +0.000 A 
ATOM      5  N   UNL     1      44.819   5.247  10.249  0.00  0.00    +0.000 N 
ATOM      6  N   UNL     1      45.749   3.806  11.906  0.00  0.00    +0.000 NA
ATOM      7  C   UNL     1      46.342   3.672  13.120  0.00  0.00    +0.000 A 
ATOM      8  H   UNL     1      45.407   5.761   9.600  0.00  0.00    +0.000 HD
ENDROOT
BRANCH   1  10
ATOM      9  N   UNL     1      47.597   5.515  16.045  0.00  0.00    +0.000 N 
ATOM     10  C   UNL     1      47.168   4.445  15.309  0.00  0.00    +0.000 C 
ATOM     11  O   UNL     1      47.206   3.309  15.761  0.00  0.00    +0.000 OA
ATOM     12  H   UNL     1      47.855   5.319  17.003  0.00  0.00    +0.000 HD
ATOM     13  H   UNL     1      47.328   6.463  15.823  0.00  0.00    +0.000 HD
ENDBRANCH   1  10
BRANCH   5  14
ATOM     14  C   UNL     1      44.188   4.089   9.620  0.00  0.00    +0.000 C 
BRANCH  14  15
ATOM     15  C   UNL     1      45.085   3.273   8.707  0.00  0.00    +0.000 A 
ATOM     16  C   UNL     1      45.848   3.908   7.724  0.00  0.00    +0.000 A 
ATOM     17  C   UNL     1      46.754   3.164   6.977  0.00  0.00    +0.000 A 
ATOM     18  C   UNL     1      46.885   1.805   7.230  0.00  0.00    +0.000 A 
ATOM     19  C   UNL     1      46.085   1.243   8.210  0.00  0.00    +0.000 A 
ATOM     20  N   UNL     1      45.187   1.936   8.948  0.00  0.00    +0.000 NA
ENDBRANCH  14  15
ENDBRANCH   5  14
TORSDOF 3
ENDMDL
MODEL 5
REMARK VINA RESULT:    -6.118      4.370      6.854
REMARK INTER + INTRA:          -7.540
REMARK INTER:                  -7.315
REMARK INTRA:                  -0.225
REMARK UNBOUND:                -0.350
REMARK  Name = 
REMARK  3 active torsions:
REMARK  status: ('A' for Active; 'I' for Inactive)
REMARK    1  A    between atoms: C_2  and  C_4
REMARK    2  A    between atoms: N_8  and  C_9
REMARK    3  A    between atoms: C_9  and  C_10
REMARK                            x       y       z     vdW  Elec       q    Type
REMARK                         _______ _______ _______ _____ _____    ______ ____
ROOT
ATOM      1  C   UNL     1      45.659   5.119  11.344  0.00  0.00    +0.000 A 
ATOM      2  C   UNL     1      46.425   6.188  11.794  0.00  0.00    +0.000 A 
ATOM      3  C   UNL     1      46.902   6.173  13.108  0.00  0.00    +0.000 A 
ATOM      4  C   UNL     1      46.646   5.075  13.932  0.00  0.00    +0.000 A 
ATOM      5  N   UNL     1      47.223   5.059  15.200  0.00  0.00    +0.000 N 
ATOM      6  N   UNL     1      45.902   4.040  13.497  0.00  0.00    +0.000 NA
ATOM      7  C   UNL     1      45.395   4.095  12.239  0.00  0.00    +0.000 A 
ATOM      8  H   UNL     1      46.855   5.803  15.786  0.00  0.00    +0.000 HD
ENDROOT
BRANCH   1  10
ATOM      9  N   UNL     1      43.781   4.786   9.841  0.00  0.00    +0.000 N 
ATOM     10  C   UNL     1      45.122   5.020   9.971  0.00  0.00    +0.000 C 
ATOM     11  O   UNL     1      45.833   5.190   8.991  0.00  0.00    +0.000 OA
ATOM     12  H   UNL     1      43.407   4.855   8.904  0.00  0.00    +0.000 HD
ATOM     13  H   UNL     1      43.135   4.917  10.608  0.00  0.00    +0.000 HD
ENDBRANCH   1  10
BRANCH   5  14
ATOM     14  C   UNL     1      47.273   3.781  15.905  0.00  0.00    +0.000 C 
BRANCH  14  15
ATOM     15  C   UNL     1      48.634   3.389  16.450  0.00  0.00    +0.000 A 
ATOM     16  C   UNL     1      49.317   4.249  17.313  0.00  0.00    +0.000 A 
ATOM     17  C   UNL     1      50.505   3.826  17.899  0.00  0.00    +0.000 A 
ATOM     18  C   UNL     1      50.983   2.553  17.617  0.00  0.00    +0.000 A 
ATOM     19  C   UNL     1      50.258   1.763  16.741  0.00  0.00    +0.000 A 
ATOM     20  N   UNL     1      49.106   2.147  16.146  0.00  0.00    +0.000 NA
ENDBRANCH  14  15
ENDBRANCH   5  14
TORSDOF 3
ENDMDL
MODEL 6
REMARK VINA RESULT:    -5.405      3.808      7.247
REMARK INTER + INTRA:          -6.702
REMARK INTER:                  -6.415
REMARK INTRA:                  -0.288
REMARK UNBOUND:                -0.350
REMARK  Name = 
REMARK  3 active torsions:
REMARK  status: ('A' for Active; 'I' for Inactive)
REMARK    1  A    between atoms: C_2  and  C_4
REMARK    2  A    between atoms: N_8  and  C_9
REMARK    3  A    between atoms: C_9  and  C_10
REMARK                            x       y       z     vdW  Elec       q    Type
REMARK                         _______ _______ _______ _____ _____    ______ ____
ROOT
ATOM      1  C   UNL     1      44.601   5.057  11.485  0.00  0.00    +0.000 A 
ATOM      2  C   UNL     1      44.418   6.430  11.606  0.00  0.00    +0.000 A 
ATOM      3  C   UNL     1      45.262   7.152  12.454  0.00  0.00    +0.000 A 
ATOM      4  C   UNL     1      46.298   6.503  13.127  0.00  0.00    +0.000 A 
ATOM      5  N   UNL     1      47.175   7.278  13.885  0.00  0.00    +0.000 N 
ATOM      6  N   UNL     1      46.475   5.172  13.013  0.00  0.00    +0.000 NA
ATOM      7  C   UNL     1      45.610   4.474  12.232  0.00  0.00    +0.000 A 
ATOM      8  H   UNL     1      46.703   7.712  14.672  0.00  0.00    +0.000 HD
ENDROOT
BRANCH   1  10
ATOM      9  N   UNL     1      43.868   4.427   9.257  0.00  0.00    +0.000 N 
ATOM     10  C   UNL     1      43.782   4.199  10.603  0.00  0.00    +0.000 C 
ATOM     11  O   UNL     1      43.095   3.291  11.049  0.00  0.00    +0.000 OA
ATOM     12  H   UNL     1      43.410   3.748   8.662  0.00  0.00    +0.000 HD
ATOM     13  H   UNL     1      44.619   4.967   8.850  0.00  0.00    +0.000 HD
ENDBRANCH   1  10
BRANCH   5  14
ATOM     14  C   UNL     1      48.448   6.676  14.273  0.00  0.00    +0.000 C 
BRANCH  14  15
ATOM     15  C   UNL     1      48.559   6.268  15.731  0.00  0.00    +0.000 A 
ATOM     16  C   UNL     1      48.838   7.227  16.707  0.00  0.00    +0.000 A 
ATOM     17  C   UNL     1      48.818   6.861  18.048  0.00  0.00    +0.000 A 
ATOM     18  C   UNL     1      48.514   5.550  18.388  0.00  0.00    +0.000 A 
ATOM     19  C   UNL     1      48.262   4.652  17.364  0.00  0.00    +0.000 A 
ATOM     20  N   UNL     1      48.283   4.972  16.050  0.00  0.00    +0.000 NA
ENDBRANCH  14  15
ENDBRANCH   5  14
TORSDOF 3
ENDMDL
MODEL 7
REMARK VINA RESULT:    -5.348      2.975      6.385
REMARK INTER + INTRA:          -6.636
REMARK INTER:                  -6.482
REMARK INTRA:                  -0.154
REMARK UNBOUND:                -0.350
REMARK  Name = 
REMARK  3 active torsions:
REMARK  status: ('A' for Active; 'I' for Inactive)
REMARK    1  A    between atoms: C_2  and  C_4
REMARK    2  A    between atoms: N_8  and  C_9
REMARK    3  A    between atoms: C_9  and  C_10
REMARK                            x       y       z     vdW  Elec       q    Type
REMARK                         _______ _______ _______ _____ _____    ______ ____
ROOT
ATOM      1  C   UNL     1      44.941   3.707  10.219  0.00  0.00    +0.000 A 
ATOM      2  C   UNL     1      44.942   3.321  11.555  0.00  0.00    +0.000 A 
ATOM      3  C   UNL     1      45.278   4.263  12.531  0.00  0.00    +0.000 A 
ATOM      4  C   UNL     1      45.561   5.580  12.163  0.00  0.00    +0.000 A 
ATOM      5  N   UNL     1      45.795   6.507  13.177  0.00  0.00    +0.000 N 
ATOM      6  N   UNL     1      45.563   5.954  10.869  0.00  0.00    +0.000 NA
ATOM      7  C   UNL     1      45.293   5.014   9.928  0.00  0.00    +0.000 A 
ATOM      8  H   UNL     1      46.640   6.287  13.695  0.00  0.00    +0.000 HD
ENDROOT
BRANCH   1  10
ATOM      9  N   UNL     1      44.199   3.381   7.930  0.00  0.00    +0.000 N 
ATOM     10  C   UNL     1      44.582   2.801   9.108  0.00  0.00    +0.000 C 
ATOM     11  O   UNL     1      44.672   1.586   9.216  0.00  0.00    +0.000 OA
ATOM     12  H   UNL     1      44.088   2.756   7.143  0.00  0.00    +0.000 HD
ATOM     13  H   UNL     1      44.381   4.354   7.726  0.00  0.00    +0.000 HD
ENDBRANCH   1  10
BRANCH   5  14
ATOM     14  C   UNL     1      45.718   7.924  12.828  0.00  0.00    +0.000 C 
BRANCH  14  15
ATOM     15  C   UNL     1      47.036   8.574  12.450  0.00  0.00    +0.000 A 
ATOM     16  C   UNL     1      48.208   7.815  12.415  0.00  0.00    +0.000 A 
ATOM     17  C   UNL     1      49.384   8.395  11.951  0.00  0.00    +0.000 A 
ATOM     18  C   UNL     1      49.364   9.717  11.527  0.00  0.00    +0.000 A 
ATOM     19  C   UNL     1      48.169  10.411  11.605  0.00  0.00    +0.000 A 
ATOM     20  N   UNL     1      47.010   9.880  12.060  0.00  0.00    +0.000 NA
ENDBRANCH  14  15
ENDBRANCH   5  14
TORSDOF 3
ENDMDL
MODEL 8
REMARK VINA RESULT:    -5.153      3.572      6.312
REMARK INTER + INTRA:          -6.407
REMARK INTER:                  -6.084
REMARK INTRA:                  -0.323
REMARK UNBOUND:                -0.350
REMARK  Name = 
REMARK  3 active torsions:
REMARK  status: ('A' for Active; 'I' for Inactive)
REMARK    1  A    between atoms: C_2  and  C_4
REMARK    2  A    between atoms: N_8  and  C_9
REMARK    3  A    between atoms: C_9  and  C_10
REMARK                            x       y       z     vdW  Elec       q    Type
REMARK                         _______ _______ _______ _____ _____    ______ ____
ROOT
ATOM      1  C   UNL     1      44.194   4.391  11.975  0.00  0.00    +0.000 A 
ATOM      2  C   UNL     1      43.704   5.414  11.170  0.00  0.00    +0.000 A 
ATOM      3  C   UNL     1      44.112   6.727  11.423  0.00  0.00    +0.000 A 
ATOM      4  C   UNL     1      45.031   6.990  12.440  0.00  0.00    +0.000 A 
ATOM      5  N   UNL     1      45.482   8.299  12.593  0.00  0.00    +0.000 N 
ATOM      6  N   UNL     1      45.504   6.000  13.222  0.00  0.00    +0.000 NA
ATOM      7  C   UNL     1      45.054   4.737  13.003  0.00  0.00    +0.000 A 
ATOM      8  H   UNL     1      44.731   8.922  12.875  0.00  0.00    +0.000 HD
ENDROOT
BRANCH   1  10
ATOM      9  N   UNL     1      44.122   2.417  10.562  0.00  0.00    +0.000 N 
ATOM     10  C   UNL     1      43.849   2.967  11.784  0.00  0.00    +0.000 C 
ATOM     11  O   UNL     1      43.386   2.292  12.693  0.00  0.00    +0.000 OA
ATOM     12  H   UNL     1      44.007   1.414  10.491  0.00  0.00    +0.000 HD
ATOM     13  H   UNL     1      44.746   2.859   9.901  0.00  0.00    +0.000 HD
ENDBRANCH   1  10
BRANCH   5  14
ATOM     14  C   UNL     1      46.693   8.510  13.382  0.00  0.00    +0.000 C 
BRANCH  14  15
ATOM     15  C   UNL     1      47.977   8.648  12.584  0.00  0.00    +0.000 A 
ATOM     16  C   UNL     1      48.301   9.868  11.985  0.00  0.00    +0.000 A 
ATOM     17  C   UNL     1      49.535  10.014  11.360  0.00  0.00    +0.000 A 
ATOM     18  C   UNL     1      50.419   8.944  11.349  0.00  0.00    +0.000 A 
ATOM     19  C   UNL     1      50.022   7.762  11.951  0.00  0.00    +0.000 A 
ATOM     20  N   UNL     1      48.826   7.583  12.558  0.00  0.00    +0.000 NA
ENDBRANCH  14  15
ENDBRANCH   5  14
TORSDOF 3
ENDMDL
MODEL 9
REMARK VINA RESULT:    -5.112      3.958      6.980
REMARK INTER + INTRA:          -6.358
REMARK INTER:                  -6.092
REMARK INTRA:                  -0.266
REMARK UNBOUND:                -0.350
REMARK  Name = 
REMARK  3 active torsions:
REMARK  status: ('A' for Active; 'I' for Inactive)
REMARK    1  A    between atoms: C_2  and  C_4
REMARK    2  A    between atoms: N_8  and  C_9
REMARK    3  A    between atoms: C_9  and  C_10
REMARK                            x       y       z     vdW  Elec       q    Type
REMARK                         _______ _______ _______ _____ _____    ______ ____
ROOT
ATOM      1  C   UNL     1      44.849   4.754  11.109  0.00  0.00    +0.000 A 
ATOM      2  C   UNL     1      44.915   6.136  10.978  0.00  0.00    +0.000 A 
ATOM      3  C   UNL     1      45.614   6.874  11.939  0.00  0.00    +0.000 A 
ATOM      4  C   UNL     1      46.269   6.219  12.982  0.00  0.00    +0.000 A 
ATOM      5  N   UNL     1      47.033   6.985  13.861  0.00  0.00    +0.000 N 
ATOM      6  N   UNL     1      46.203   4.880  13.112  0.00  0.00    +0.000 NA
ATOM      7  C   UNL     1      45.472   4.181  12.205  0.00  0.00    +0.000 A 
ATOM      8  H   UNL     1      46.454   7.626  14.396  0.00  0.00    +0.000 HD
ENDROOT
BRANCH   1  10
ATOM      9  N   UNL     1      44.128   4.285   8.839  0.00  0.00    +0.000 N 
ATOM     10  C   UNL     1      44.158   3.875  10.143  0.00  0.00    +0.000 C 
ATOM     11  O   UNL     1      43.678   2.802  10.481  0.00  0.00    +0.000 OA
ATOM     12  H   UNL     1      43.772   3.613   8.171  0.00  0.00    +0.000 HD
ATOM     13  H   UNL     1      44.742   5.006   8.487  0.00  0.00    +0.000 HD
ENDBRANCH   1  10
BRANCH   5  14
ATOM     14  C   UNL     1      48.000   6.287  14.703  0.00  0.00    +0.000 C 
BRANCH  14  15
ATOM     15  C   UNL     1      49.387   6.901  14.751  0.00  0.00    +0.000 A 
ATOM     16  C   UNL     1      49.770   7.842  13.793  0.00  0.00    +0.000 A 
ATOM     17  C   UNL     1      50.997   8.485  13.919  0.00  0.00    +0.000 A 
ATOM     18  C   UNL     1      51.813   8.179  15.000  0.00  0.00    +0.000 A 
ATOM     19  C   UNL     1      51.372   7.224  15.902  0.00  0.00    +0.000 A 
ATOM     20  N   UNL     1      50.190   6.574  15.803  0.00  0.00    +0.000 NA
ENDBRANCH  14  15
ENDBRANCH   5  14
TORSDOF 3
ENDMDL
