MODEL 1
REMARK VINA RESULT:    -6.743      0.000      0.000
REMARK INTER + INTRA:          -9.510
REMARK INTER:                  -8.714
REMARK INTRA:                  -0.796
REMARK UNBOUND:                -0.796
REMARK  Name = 
REMARK  8 active torsions:
REMARK  status: ('A' for Active; 'I' for Inactive)
REMARK    1  A    between atoms: C_1  and  C_2
REMARK    2  A    between atoms: C_2  and  C_3
REMARK    3  A    between atoms: C_2  and  C_4
REMARK    4  A    between atoms: C_2  and  C_5
REMARK    5  A    between atoms: C_9  and  C_10
REMARK    6  A    between atoms: N_16  and  C_17
REMARK    7  A    between atoms: C_17  and  C_18
REMARK    8  A    between atoms: C_22  and  C_23
REMARK                            x       y       z     vdW  Elec       q    Type
REMARK                         _______ _______ _______ _____ _____    ______ ____
ROOT
ATOM      1  C   UNL     1      45.445   4.722  12.613  0.00  0.00    +0.000 A 
ATOM      2  N   UNL     1      45.520   3.961  13.699  0.00  0.00    +0.000 NA
ATOM      3  C   UNL     1      46.532   4.470  14.469  0.00  0.00    +0.000 A 
ATOM      4  C   UNL     1      47.043   4.062  15.710  0.00  0.00    +0.000 A 
ATOM      5  C   UNL     1      48.083   4.826  16.258  0.00  0.00    +0.000 A 
ATOM      6  C   UNL     1      48.547   5.933  15.535  0.00  0.00    +0.000 A 
ATOM      7  N   UNL     1      48.105   6.339  14.316  0.00  0.00    +0.000 NA
ATOM      8  C   UNL     1      47.102   5.568  13.853  0.00  0.00    +0.000 A 
ATOM      9  N   UNL     1      46.429   5.706  12.662  0.00  0.00    +0.000 N 
ENDROOT
BRANCH   5  10
ATOM     10  C   UNL     1      48.734   4.534  17.560  0.00  0.00    +0.000 C 
ATOM     11  N   UNL     1      47.952   4.320  18.655  0.00  0.00    +0.000 N 
ATOM     12  O   UNL     1      49.956   4.483  17.658  0.00  0.00    +0.000 OA
ATOM     13  H   UNL     1      46.942   4.341  18.671  0.00  0.00    +0.000 HD
ATOM     14  H   UNL     1      48.433   4.122  19.526  0.00  0.00    +0.000 HD
ENDBRANCH   5  10
BRANCH   1  16
ATOM     15  C   UNL     1      43.857   3.075  11.576  0.00  0.00    +0.000 C 
ATOM     16  C   UNL     1      44.416   4.518  11.499  0.00  0.00    +0.000 C 
ATOM     17  C   UNL     1      45.050   4.660  10.102  0.00  0.00    +0.000 C 
ATOM     18  C   UNL     1      43.218   5.473  11.655  0.00  0.00    +0.000 C 
ENDBRANCH   1  16
BRANCH   9  19
ATOM     19  C   UNL     1      46.818   6.655  11.634  0.00  0.00    +0.000 C 
BRANCH  19  20
ATOM     20  C   UNL     1      46.212   8.032  11.748  0.00  0.00    +0.000 A 
ATOM     21  C   UNL     1      47.037   9.093  12.151  0.00  0.00    +0.000 A 
ATOM     22  C   UNL     1      46.568  10.405  12.133  0.00  0.00    +0.000 A 
ATOM     23  C   UNL     1      45.271  10.676  11.705  0.00  0.00    +0.000 A 
ATOM     24  C   UNL     1      44.424   9.637  11.302  0.00  0.00    +0.000 A 
ATOM     25  C   UNL     1      44.904   8.318  11.328  0.00  0.00    +0.000 A 
BRANCH  24  26
ATOM     26  C   UNL     1      43.021   9.902  10.814  0.00  0.00    +0.000 C 
ATOM     27  F   UNL     1      42.332  10.783  11.589  0.00  0.00    +0.000 F 
ATOM     28  F   UNL     1      43.005  10.423   9.554  0.00  0.00    +0.000 F 
ATOM     29  F   UNL     1      42.262   8.774  10.761  0.00  0.00    +0.000 F 
ENDBRANCH  24  26
ENDBRANCH  19  20
ENDBRANCH   9  19
TORSDOF 5
ENDMDL
MODEL 2
REMARK VINA RESULT:    -6.325      2.531      4.690
REMARK INTER + INTRA:          -8.969
REMARK INTER:                  -8.295
REMARK INTRA:                  -0.674
REMARK UNBOUND:                -0.796
REMARK  Name = 
REMARK  8 active torsions:
REMARK  status: ('A' for Active; 'I' for Inactive)
REMARK    1  A    between atoms: C_1  and  C_2
REMARK    2  A    between atoms: C_2  and  C_3
REMARK    3  A    between atoms: C_2  and  C_4
REMARK    4  A    between atoms: C_2  and  C_5
REMARK    5  A    between atoms: C_9  and  C_10
REMARK    6  A    between atoms: N_16  and  C_17
REMARK    7  A    between atoms: C_17  and  C_18
REMARK    8  A    between atoms: C_22  and  C_23
REMARK                            x       y       z     vdW  Elec       q    Type
REMARK                         _______ _______ _______ _____ _____    ______ ____
ROOT
ATOM      1  C   UNL     1      49.145   7.848  14.416  0.00  0.00    +0.000 A 
ATOM      2  N   UNL     1      49.185   7.529  15.706  0.00  0.00    +0.000 NA
ATOM      3  C   UNL     1      48.606   6.293  15.825  0.00  0.00    +0.000 A 
ATOM      4  C   UNL     1      48.381   5.483  16.948  0.00  0.00    +0.000 A 
ATOM      5  C   UNL     1      47.781   4.236  16.728  0.00  0.00    +0.000 A 
ATOM      6  C   UNL     1      47.440   3.883  15.415  0.00  0.00    +0.000 A 
ATOM      7  N   UNL     1      47.607   4.652  14.308  0.00  0.00    +0.000 NA
ATOM      8  C   UNL     1      48.195   5.831  14.588  0.00  0.00    +0.000 A 
ATOM      9  N   UNL     1      48.513   6.834  13.703  0.00  0.00    +0.000 N 
ENDROOT
BRANCH   5  10
ATOM     10  C   UNL     1      47.475   3.258  17.804  0.00  0.00    +0.000 C 
ATOM     11  N   UNL     1      48.269   3.226  18.910  0.00  0.00    +0.000 N 
ATOM     12  O   UNL     1      46.524   2.489  17.707  0.00  0.00    +0.000 OA
ATOM     13  H   UNL     1      49.070   3.818  19.079  0.00  0.00    +0.000 HD
ATOM     14  H   UNL     1      48.028   2.546  19.624  0.00  0.00    +0.000 HD
ENDBRANCH   5  10
BRANCH   1  16
ATOM     15  C   UNL     1      50.580   9.846  14.922  0.00  0.00    +0.000 C 
ATOM     16  C   UNL     1      49.722   9.143  13.841  0.00  0.00    +0.000 C 
ATOM     17  C   UNL     1      48.613  10.140  13.456  0.00  0.00    +0.000 C 
ATOM     18  C   UNL     1      50.647   8.865  12.642  0.00  0.00    +0.000 C 
ENDBRANCH   1  16
BRANCH   9  19
ATOM     19  C   UNL     1      48.111   6.817  12.307  0.00  0.00    +0.000 C 
BRANCH  19  20
ATOM     20  C   UNL     1      46.624   6.811  12.051  0.00  0.00    +0.000 A 
ATOM     21  C   UNL     1      45.926   8.025  12.145  0.00  0.00    +0.000 A 
ATOM     22  C   UNL     1      44.584   8.104  11.778  0.00  0.00    +0.000 A 
ATOM     23  C   UNL     1      43.922   6.973  11.308  0.00  0.00    +0.000 A 
ATOM     24  C   UNL     1      44.591   5.748  11.209  0.00  0.00    +0.000 A 
ATOM     25  C   UNL     1      45.943   5.678  11.585  0.00  0.00    +0.000 A 
BRANCH  24  26
ATOM     26  C   UNL     1      43.906   4.511  10.684  0.00  0.00    +0.000 C 
ATOM     27  F   UNL     1      43.718   4.522   9.336  0.00  0.00    +0.000 F 
ATOM     28  F   UNL     1      44.617   3.377  10.951  0.00  0.00    +0.000 F 
ATOM     29  F   UNL     1      42.676   4.317  11.234  0.00  0.00    +0.000 F 
ENDBRANCH  24  26
ENDBRANCH  19  20
ENDBRANCH   9  19
TORSDOF 5
ENDMDL
MODEL 3
REMARK VINA RESULT:    -6.295      4.262      6.306
REMARK INTER + INTRA:          -8.930
REMARK INTER:                  -8.163
REMARK INTRA:                  -0.768
REMARK UNBOUND:                -0.796
REMARK  Name = 
REMARK  8 active torsions:
REMARK  status: ('A' for Active; 'I' for Inactive)
REMARK    1  A    between atoms: C_1  and  C_2
REMARK    2  A    between atoms: C_2  and  C_3
REMARK    3  A    between atoms: C_2  and  C_4
REMARK    4  A    between atoms: C_2  and  C_5
REMARK    5  A    between atoms: C_9  and  C_10
REMARK    6  A    between atoms: N_16  and  C_17
REMARK    7  A    between atoms: C_17  and  C_18
REMARK    8  A    between atoms: C_22  and  C_23
REMARK                            x       y       z     vdW  Elec       q    Type
REMARK                         _______ _______ _______ _____ _____    ______ ____
ROOT
ATOM      1  C   UNL     1      47.907   6.585  14.417  0.00  0.00    +0.000 A 
ATOM      2  N   UNL     1      47.516   5.316  14.380  0.00  0.00    +0.000 NA
ATOM      3  C   UNL     1      46.656   5.198  13.321  0.00  0.00    +0.000 A 
ATOM      4  C   UNL     1      45.950   4.093  12.823  0.00  0.00    +0.000 A 
ATOM      5  C   UNL     1      45.160   4.299  11.683  0.00  0.00    +0.000 A 
ATOM      6  C   UNL     1      45.120   5.583  11.123  0.00  0.00    +0.000 A 
ATOM      7  N   UNL     1      45.758   6.685  11.596  0.00  0.00    +0.000 NA
ATOM      8  C   UNL     1      46.505   6.416  12.685  0.00  0.00    +0.000 A 
ATOM      9  N   UNL     1      47.277   7.298  13.402  0.00  0.00    +0.000 N 
ENDROOT
BRANCH   5  10
ATOM     10  C   UNL     1      44.351   3.238  11.028  0.00  0.00    +0.000 C 
ATOM     11  N   UNL     1      44.949   2.425  10.112  0.00  0.00    +0.000 N 
ATOM     12  O   UNL     1      43.165   3.089  11.301  0.00  0.00    +0.000 OA
ATOM     13  H   UNL     1      45.916   2.472   9.824  0.00  0.00    +0.000 HD
ATOM     14  H   UNL     1      44.365   1.712   9.687  0.00  0.00    +0.000 HD
ENDBRANCH   5  10
BRANCH   1  16
ATOM     15  C   UNL     1      49.053   6.135  16.606  0.00  0.00    +0.000 C 
ATOM     16  C   UNL     1      48.904   7.140  15.437  0.00  0.00    +0.000 C 
ATOM     17  C   UNL     1      48.409   8.457  16.062  0.00  0.00    +0.000 C 
ATOM     18  C   UNL     1      50.302   7.321  14.818  0.00  0.00    +0.000 C 
ENDBRANCH   1  16
BRANCH   9  19
ATOM     19  C   UNL     1      47.282   8.730  13.158  0.00  0.00    +0.000 C 
BRANCH  19  20
ATOM     20  C   UNL     1      48.361   9.235  12.232  0.00  0.00    +0.000 A 
ATOM     21  C   UNL     1      48.295  10.567  11.795  0.00  0.00    +0.000 A 
ATOM     22  C   UNL     1      49.338  11.127  11.059  0.00  0.00    +0.000 A 
ATOM     23  C   UNL     1      50.464  10.366  10.755  0.00  0.00    +0.000 A 
ATOM     24  C   UNL     1      50.555   9.033  11.174  0.00  0.00    +0.000 A 
ATOM     25  C   UNL     1      49.496   8.477  11.912  0.00  0.00    +0.000 A 
BRANCH  24  26
ATOM     26  C   UNL     1      51.770   8.191  10.878  0.00  0.00    +0.000 C 
ATOM     27  F   UNL     1      52.565   8.704   9.900  0.00  0.00    +0.000 F 
ATOM     28  F   UNL     1      52.573   8.045  11.972  0.00  0.00    +0.000 F 
ATOM     29  F   UNL     1      51.451   6.929  10.480  0.00  0.00    +0.000 F 
ENDBRANCH  24  26
ENDBRANCH  19  20
ENDBRANCH   9  19
TORSDOF 5
ENDMDL
MODEL 4
REMARK VINA RESULT:    -6.239      2.795      4.928
REMARK INTER + INTRA:          -8.859
REMARK INTER:                  -8.097
REMARK INTRA:                  -0.762
REMARK UNBOUND:                -0.796
REMARK  Name = 
REMARK  8 active torsions:
REMARK  status: ('A' for Active; 'I' for Inactive)
REMARK    1  A    between atoms: C_1  and  C_2
REMARK    2  A    between atoms: C_2  and  C_3
REMARK    3  A    between atoms: C_2  and  C_4
REMARK    4  A    between atoms: C_2  and  C_5
REMARK    5  A    between atoms: C_9  and  C_10
REMARK    6  A    between atoms: N_16  and  C_17
REMARK    7  A    between atoms: C_17  and  C_18
REMARK    8  A    between atoms: C_22  and  C_23
REMARK                            x       y       z     vdW  Elec       q    Type
REMARK                         _______ _______ _______ _____ _____    ______ ____
ROOT
ATOM      1  C   UNL     1      49.218   8.148  14.356  0.00  0.00    +0.000 A 
ATOM      2  N   UNL     1      49.314   8.359  15.665  0.00  0.00    +0.000 NA
ATOM      3  C   UNL     1      48.898   7.209  16.282  0.00  0.00    +0.000 A 
ATOM      4  C   UNL     1      48.792   6.876  17.640  0.00  0.00    +0.000 A 
ATOM      5  C   UNL     1      48.353   5.581  17.950  0.00  0.00    +0.000 A 
ATOM      6  C   UNL     1      48.043   4.713  16.895  0.00  0.00    +0.000 A 
ATOM      7  N   UNL     1      48.097   5.008  15.571  0.00  0.00    +0.000 NA
ATOM      8  C   UNL     1      48.534   6.262  15.343  0.00  0.00    +0.000 A 
ATOM      9  N   UNL     1      48.710   6.873  14.124  0.00  0.00    +0.000 N 
ENDROOT
BRANCH   5  10
ATOM     10  C   UNL     1      48.187   5.068  19.335  0.00  0.00    +0.000 C 
ATOM     11  N   UNL     1      48.584   3.795  19.617  0.00  0.00    +0.000 N 
ATOM     12  O   UNL     1      47.701   5.770  20.215  0.00  0.00    +0.000 OA
ATOM     13  H   UNL     1      48.993   3.146  18.961  0.00  0.00    +0.000 HD
ATOM     14  H   UNL     1      48.456   3.481  20.573  0.00  0.00    +0.000 HD
ENDBRANCH   5  10
BRANCH   1  16
ATOM     15  C   UNL     1      50.641  10.167  13.905  0.00  0.00    +0.000 C 
ATOM     16  C   UNL     1      49.618   9.176  13.296  0.00  0.00    +0.000 C 
ATOM     17  C   UNL     1      48.415  10.024  12.841  0.00  0.00    +0.000 C 
ATOM     18  C   UNL     1      50.302   8.507  12.091  0.00  0.00    +0.000 C 
ENDBRANCH   1  16
BRANCH   9  19
ATOM     19  C   UNL     1      48.297   6.273  12.868  0.00  0.00    +0.000 C 
BRANCH  19  20
ATOM     20  C   UNL     1      46.817   6.315  12.576  0.00  0.00    +0.000 A 
ATOM     21  C   UNL     1      46.282   7.479  12.003  0.00  0.00    +0.000 A 
ATOM     22  C   UNL     1      44.955   7.519  11.580  0.00  0.00    +0.000 A 
ATOM     23  C   UNL     1      44.145   6.394  11.718  0.00  0.00    +0.000 A 
ATOM     24  C   UNL     1      44.650   5.221  12.289  0.00  0.00    +0.000 A 
ATOM     25  C   UNL     1      45.988   5.192  12.717  0.00  0.00    +0.000 A 
BRANCH  24  26
ATOM     26  C   UNL     1      43.804   3.981  12.432  0.00  0.00    +0.000 C 
ATOM     27  F   UNL     1      43.060   3.956  13.572  0.00  0.00    +0.000 F 
ATOM     28  F   UNL     1      42.916   3.844  11.406  0.00  0.00    +0.000 F 
ATOM     29  F   UNL     1      44.543   2.838  12.441  0.00  0.00    +0.000 F 
ENDBRANCH  24  26
ENDBRANCH  19  20
ENDBRANCH   9  19
TORSDOF 5
ENDMDL
MODEL 5
REMARK VINA RESULT:    -6.213      3.019      5.104
REMARK INTER + INTRA:          -8.825
REMARK INTER:                  -9.508
REMARK INTRA:                   0.683
REMARK UNBOUND:                -0.796
REMARK  Name = 
REMARK  8 active torsions:
REMARK  status: ('A' for Active; 'I' for Inactive)
REMARK    1  A    between atoms: C_1  and  C_2
REMARK    2  A    between atoms: C_2  and  C_3
REMARK    3  A    between atoms: C_2  and  C_4
REMARK    4  A    between atoms: C_2  and  C_5
REMARK    5  A    between atoms: C_9  and  C_10
REMARK    6  A    between atoms: N_16  and  C_17
REMARK    7  A    between atoms: C_17  and  C_18
REMARK    8  A    between atoms: C_22  and  C_23
REMARK                            x       y       z     vdW  Elec       q    Type
REMARK                         _______ _______ _______ _____ _____    ______ ____
ROOT
ATOM      1  C   UNL     1      48.043   8.159  13.161  0.00  0.00    +0.000 A 
ATOM      2  N   UNL     1      48.644   7.646  14.230  0.00  0.00    +0.000 NA
ATOM      3  C   UNL     1      48.002   6.471  14.518  0.00  0.00    +0.000 A 
ATOM      4  C   UNL     1      48.216   5.527  15.534  0.00  0.00    +0.000 A 
ATOM      5  C   UNL     1      47.392   4.393  15.538  0.00  0.00    +0.000 A 
ATOM      6  C   UNL     1      46.411   4.279  14.544  0.00  0.00    +0.000 A 
ATOM      7  N   UNL     1      46.149   5.186  13.568  0.00  0.00    +0.000 NA
ATOM      8  C   UNL     1      46.981   6.244  13.615  0.00  0.00    +0.000 A 
ATOM      9  N   UNL     1      46.992   7.332  12.775  0.00  0.00    +0.000 N 
ENDROOT
BRANCH   5  10
ATOM     10  C   UNL     1      47.486   3.300  16.540  0.00  0.00    +0.000 C 
ATOM     11  N   UNL     1      48.605   2.523  16.565  0.00  0.00    +0.000 N 
ATOM     12  O   UNL     1      46.576   3.092  17.336  0.00  0.00    +0.000 OA
ATOM     13  H   UNL     1      49.403   2.619  15.953  0.00  0.00    +0.000 HD
ATOM     14  H   UNL     1      48.633   1.788  17.263  0.00  0.00    +0.000 HD
ENDBRANCH   5  10
BRANCH   1  16
ATOM     15  C   UNL     1      49.316  10.300  13.478  0.00  0.00    +0.000 C 
ATOM     16  C   UNL     1      48.473   9.462  12.485  0.00  0.00    +0.000 C 
ATOM     17  C   UNL     1      47.262  10.334  12.103  0.00  0.00    +0.000 C 
ATOM     18  C   UNL     1      49.362   9.193  11.257  0.00  0.00    +0.000 C 
ENDBRANCH   1  16
BRANCH   9  19
ATOM     19  C   UNL     1      45.974   7.567  11.766  0.00  0.00    +0.000 C 
BRANCH  19  20
ATOM     20  C   UNL     1      45.302   6.334  11.211  0.00  0.00    +0.000 A 
ATOM     21  C   UNL     1      44.031   5.992  11.696  0.00  0.00    +0.000 A 
ATOM     22  C   UNL     1      43.305   4.952  11.118  0.00  0.00    +0.000 A 
ATOM     23  C   UNL     1      43.837   4.243  10.044  0.00  0.00    +0.000 A 
ATOM     24  C   UNL     1      45.105   4.560   9.542  0.00  0.00    +0.000 A 
ATOM     25  C   UNL     1      45.830   5.607  10.134  0.00  0.00    +0.000 A 
BRANCH  24  26
ATOM     26  C   UNL     1      45.698   3.824   8.366  0.00  0.00    +0.000 C 
ATOM     27  F   UNL     1      44.830   3.660   7.331  0.00  0.00    +0.000 F 
ATOM     28  F   UNL     1      46.779   4.474   7.846  0.00  0.00    +0.000 F 
ATOM     29  F   UNL     1      46.134   2.577   8.693  0.00  0.00    +0.000 F 
ENDBRANCH  24  26
ENDBRANCH  19  20
ENDBRANCH   9  19
TORSDOF 5
ENDMDL
MODEL 6
REMARK VINA RESULT:    -6.042      4.479      6.868
REMARK INTER + INTRA:          -8.604
REMARK INTER:                  -7.870
REMARK INTRA:                  -0.734
REMARK UNBOUND:                -0.796
REMARK  Name = 
REMARK  8 active torsions:
REMARK  status: ('A' for Active; 'I' for Inactive)
REMARK    1  A    between atoms: C_1  and  C_2
REMARK    2  A    between atoms: C_2  and  C_3
REMARK    3  A    between atoms: C_2  and  C_4
REMARK    4  A    between atoms: C_2  and  C_5
REMARK    5  A    between atoms: C_9  and  C_10
REMARK    6  A    between atoms: N_16  and  C_17
REMARK    7  A    between atoms: C_17  and  C_18
REMARK    8  A    between atoms: C_22  and  C_23
REMARK                            x       y       z     vdW  Elec       q    Type
REMARK                         _______ _______ _______ _____ _____    ______ ____
ROOT
ATOM      1  C   UNL     1      47.802   4.711  16.153  0.00  0.00    +0.000 A 
ATOM      2  N   UNL     1      46.784   4.266  15.423  0.00  0.00    +0.000 NA
ATOM      3  C   UNL     1      46.775   5.004  14.269  0.00  0.00    +0.000 A 
ATOM      4  C   UNL     1      45.924   4.962  13.154  0.00  0.00    +0.000 A 
ATOM      5  C   UNL     1      46.204   5.846  12.102  0.00  0.00    +0.000 A 
ATOM      6  C   UNL     1      47.299   6.712  12.233  0.00  0.00    +0.000 A 
ATOM      7  N   UNL     1      48.121   6.808  13.309  0.00  0.00    +0.000 NA
ATOM      8  C   UNL     1      47.803   5.927  14.277  0.00  0.00    +0.000 A 
ATOM      9  N   UNL     1      48.433   5.757  15.487  0.00  0.00    +0.000 N 
ENDROOT
BRANCH   5  10
ATOM     10  C   UNL     1      45.407   5.931  10.852  0.00  0.00    +0.000 C 
ATOM     11  N   UNL     1      44.150   6.456  10.906  0.00  0.00    +0.000 N 
ATOM     12  O   UNL     1      45.863   5.538   9.783  0.00  0.00    +0.000 OA
ATOM     13  H   UNL     1      43.692   6.804  11.736  0.00  0.00    +0.000 HD
ATOM     14  H   UNL     1      43.637   6.498  10.032  0.00  0.00    +0.000 HD
ENDBRANCH   5  10
BRANCH   1  16
ATOM     15  C   UNL     1      47.508   2.752  17.698  0.00  0.00    +0.000 C 
ATOM     16  C   UNL     1      48.190   4.131  17.515  0.00  0.00    +0.000 C 
ATOM     17  C   UNL     1      47.694   5.014  18.675  0.00  0.00    +0.000 C 
ATOM     18  C   UNL     1      49.709   3.898  17.616  0.00  0.00    +0.000 C 
ENDBRANCH   1  16
BRANCH   9  19
ATOM     19  C   UNL     1      49.484   6.637  15.966  0.00  0.00    +0.000 C 
BRANCH  19  20
ATOM     20  C   UNL     1      49.022   7.918  16.618  0.00  0.00    +0.000 A 
ATOM     21  C   UNL     1      48.961   9.081  15.834  0.00  0.00    +0.000 A 
ATOM     22  C   UNL     1      48.406  10.253  16.343  0.00  0.00    +0.000 A 
ATOM     23  C   UNL     1      47.898  10.279  17.639  0.00  0.00    +0.000 A 
ATOM     24  C   UNL     1      47.949   9.135  18.445  0.00  0.00    +0.000 A 
ATOM     25  C   UNL     1      48.515   7.960  17.924  0.00  0.00    +0.000 A 
BRANCH  24  26
ATOM     26  C   UNL     1      47.388   9.127  19.845  0.00  0.00    +0.000 C 
ATOM     27  F   UNL     1      48.215   9.691  20.767  0.00  0.00    +0.000 F 
ATOM     28  F   UNL     1      46.212   9.812  19.932  0.00  0.00    +0.000 F 
ATOM     29  F   UNL     1      47.122   7.871  20.298  0.00  0.00    +0.000 F 
ENDBRANCH  24  26
ENDBRANCH  19  20
ENDBRANCH   9  19
TORSDOF 5
ENDMDL
MODEL 7
REMARK VINA RESULT:    -6.027      4.625      7.234
REMARK INTER + INTRA:          -8.585
REMARK INTER:                  -8.017
REMARK INTRA:                  -0.568
REMARK UNBOUND:                -0.796
REMARK  Name = 
REMARK  8 active torsions:
REMARK  status: ('A' for Active; 'I' for Inactive)
REMARK    1  A    between atoms: C_1  and  C_2
REMARK    2  A    between atoms: C_2  and  C_3
REMARK    3  A    between atoms: C_2  and  C_4
REMARK    4  A    between atoms: C_2  and  C_5
REMARK    5  A    between atoms: C_9  and  C_10
REMARK    6  A    between atoms: N_16  and  C_17
REMARK    7  A    between atoms: C_17  and  C_18
REMARK    8  A    between atoms: C_22  and  C_23
REMARK                            x       y       z     vdW  Elec       q    Type
REMARK                         _______ _______ _______ _____ _____    ______ ____
ROOT
ATOM      1  C   UNL     1      48.092   8.186  12.721  0.00  0.00    +0.000 A 
ATOM      2  N   UNL     1      47.079   7.791  11.957  0.00  0.00    +0.000 NA
ATOM      3  C   UNL     1      46.752   6.523  12.359  0.00  0.00    +0.000 A 
ATOM      4  C   UNL     1      45.768   5.634  11.902  0.00  0.00    +0.000 A 
ATOM      5  C   UNL     1      45.668   4.398  12.556  0.00  0.00    +0.000 A 
ATOM      6  C   UNL     1      46.553   4.127  13.608  0.00  0.00    +0.000 A 
ATOM      7  N   UNL     1      47.541   4.944  14.055  0.00  0.00    +0.000 NA
ATOM      8  C   UNL     1      47.576   6.117  13.392  0.00  0.00    +0.000 A 
ATOM      9  N   UNL     1      48.443   7.163  13.597  0.00  0.00    +0.000 N 
ENDROOT
BRANCH   5  10
ATOM     10  C   UNL     1      44.682   3.345  12.199  0.00  0.00    +0.000 C 
ATOM     11  N   UNL     1      44.791   2.723  10.991  0.00  0.00    +0.000 N 
ATOM     12  O   UNL     1      43.782   3.034  12.972  0.00  0.00    +0.000 OA
ATOM     13  H   UNL     1      45.495   2.910  10.293  0.00  0.00    +0.000 HD
ATOM     14  H   UNL     1      44.100   2.009  10.784  0.00  0.00    +0.000 HD
ENDBRANCH   5  10
BRANCH   1  16
ATOM     15  C   UNL     1      47.994  10.413  11.565  0.00  0.00    +0.000 C 
ATOM     16  C   UNL     1      48.745   9.566  12.623  0.00  0.00    +0.000 C 
ATOM     17  C   UNL     1      50.206   9.474  12.143  0.00  0.00    +0.000 C 
ATOM     18  C   UNL     1      48.655  10.329  13.957  0.00  0.00    +0.000 C 
ENDBRANCH   1  16
BRANCH   9  19
ATOM     19  C   UNL     1      49.579   7.089  14.500  0.00  0.00    +0.000 C 
BRANCH  19  20
ATOM     20  C   UNL     1      49.245   6.988  15.968  0.00  0.00    +0.000 A 
ATOM     21  C   UNL     1      48.714   8.118  16.610  0.00  0.00    +0.000 A 
ATOM     22  C   UNL     1      48.254   8.038  17.924  0.00  0.00    +0.000 A 
ATOM     23  C   UNL     1      48.312   6.829  18.611  0.00  0.00    +0.000 A 
ATOM     24  C   UNL     1      48.841   5.687  17.997  0.00  0.00    +0.000 A 
ATOM     25  C   UNL     1      49.306   5.778  16.675  0.00  0.00    +0.000 A 
BRANCH  24  26
ATOM     26  C   UNL     1      48.897   4.359  18.709  0.00  0.00    +0.000 C 
ATOM     27  F   UNL     1      50.084   3.710  18.559  0.00  0.00    +0.000 F 
ATOM     28  F   UNL     1      48.711   4.489  20.055  0.00  0.00    +0.000 F 
ATOM     29  F   UNL     1      47.938   3.492  18.283  0.00  0.00    +0.000 F 
ENDBRANCH  24  26
ENDBRANCH  19  20
ENDBRANCH   9  19
TORSDOF 5
ENDMDL
MODEL 8
REMARK VINA RESULT:    -5.921      4.005      6.724
REMARK INTER + INTRA:          -8.447
REMARK INTER:                  -7.667
REMARK INTRA:                  -0.781
REMARK UNBOUND:                -0.796
REMARK  Name = 
REMARK  8 active torsions:
REMARK  status: ('A' for Active; 'I' for Inactive)
REMARK    1  A    between atoms: C_1  and  C_2
REMARK    2  A    between atoms: C_2  and  C_3
REMARK    3  A    between atoms: C_2  and  C_4
REMARK    4  A    between atoms: C_2  and  C_5
REMARK    5  A    between atoms: C_9  and  C_10
REMARK    6  A    between atoms: N_16  and  C_17
REMARK    7  A    between atoms: C_17  and  C_18
REMARK    8  A    between atoms: C_22  and  C_23
REMARK                            x       y       z     vdW  Elec       q    Type
REMARK                         _______ _______ _______ _____ _____    ______ ____
ROOT
ATOM      1  C   UNL     1      48.299   8.051  12.797  0.00  0.00    +0.000 A 
ATOM      2  N   UNL     1      47.381   7.652  11.921  0.00  0.00    +0.000 NA
ATOM      3  C   UNL     1      46.942   6.425  12.341  0.00  0.00    +0.000 A 
ATOM      4  C   UNL     1      45.987   5.551  11.799  0.00  0.00    +0.000 A 
ATOM      5  C   UNL     1      45.739   4.361  12.497  0.00  0.00    +0.000 A 
ATOM      6  C   UNL     1      46.458   4.118  13.676  0.00  0.00    +0.000 A 
ATOM      7  N   UNL     1      47.414   4.920  14.212  0.00  0.00    +0.000 NA
ATOM      8  C   UNL     1      47.596   6.048  13.499  0.00  0.00    +0.000 A 
ATOM      9  N   UNL     1      48.476   7.069  13.767  0.00  0.00    +0.000 N 
ENDROOT
BRANCH   5  10
ATOM     10  C   UNL     1      44.762   3.329  12.063  0.00  0.00    +0.000 C 
ATOM     11  N   UNL     1      44.905   2.764  10.832  0.00  0.00    +0.000 N 
ATOM     12  O   UNL     1      43.839   2.986  12.794  0.00  0.00    +0.000 OA
ATOM     13  H   UNL     1      45.630   2.981  10.163  0.00  0.00    +0.000 HD
ATOM     14  H   UNL     1      44.219   2.063  10.571  0.00  0.00    +0.000 HD
ENDBRANCH   5  10
BRANCH   1  16
ATOM     15  C   UNL     1      48.614  10.122  11.412  0.00  0.00    +0.000 C 
ATOM     16  C   UNL     1      49.025   9.395  12.717  0.00  0.00    +0.000 C 
ATOM     17  C   UNL     1      50.553   9.216  12.648  0.00  0.00    +0.000 C 
ATOM     18  C   UNL     1      48.635  10.317  13.887  0.00  0.00    +0.000 C 
ENDBRANCH   1  16
BRANCH   9  19
ATOM     19  C   UNL     1      49.473   7.002  14.821  0.00  0.00    +0.000 C 
BRANCH  19  20
ATOM     20  C   UNL     1      48.945   7.116  16.231  0.00  0.00    +0.000 A 
ATOM     21  C   UNL     1      49.020   5.989  17.064  0.00  0.00    +0.000 A 
ATOM     22  C   UNL     1      48.683   6.079  18.414  0.00  0.00    +0.000 A 
ATOM     23  C   UNL     1      48.274   7.297  18.951  0.00  0.00    +0.000 A 
ATOM     24  C   UNL     1      48.186   8.436  18.142  0.00  0.00    +0.000 A 
ATOM     25  C   UNL     1      48.523   8.334  16.783  0.00  0.00    +0.000 A 
BRANCH  24  26
ATOM     26  C   UNL     1      47.766   9.773  18.700  0.00  0.00    +0.000 C 
ATOM     27  F   UNL     1      48.746  10.404  19.402  0.00  0.00    +0.000 F 
ATOM     28  F   UNL     1      47.391  10.644  17.720  0.00  0.00    +0.000 F 
ATOM     29  F   UNL     1      46.701   9.680  19.543  0.00  0.00    +0.000 F 
ENDBRANCH  24  26
ENDBRANCH  19  20
ENDBRANCH   9  19
TORSDOF 5
ENDMDL
MODEL 9
REMARK VINA RESULT:    -5.828      4.262      6.661
REMARK INTER + INTRA:          -8.327
REMARK INTER:                  -7.224
REMARK INTRA:                  -1.104
REMARK UNBOUND:                -0.796
REMARK  Name = 
REMARK  8 active torsions:
REMARK  status: ('A' for Active; 'I' for Inactive)
REMARK    1  A    between atoms: C_1  and  C_2
REMARK    2  A    between atoms: C_2  and  C_3
REMARK    3  A    between atoms: C_2  and  C_4
REMARK    4  A    between atoms: C_2  and  C_5
REMARK    5  A    between atoms: C_9  and  C_10
REMARK    6  A    between atoms: N_16  and  C_17
REMARK    7  A    between atoms: C_17  and  C_18
REMARK    8  A    between atoms: C_22  and  C_23
REMARK                            x       y       z     vdW  Elec       q    Type
REMARK                         _______ _______ _______ _____ _____    ______ ____
ROOT
ATOM      1  C   UNL     1      47.559   8.663  12.453  0.00  0.00    +0.000 A 
ATOM      2  N   UNL     1      46.275   8.437  12.196  0.00  0.00    +0.000 NA
ATOM      3  C   UNL     1      46.023   7.139  12.551  0.00  0.00    +0.000 A 
ATOM      4  C   UNL     1      44.846   6.377  12.492  0.00  0.00    +0.000 A 
ATOM      5  C   UNL     1      44.912   5.060  12.969  0.00  0.00    +0.000 A 
ATOM      6  C   UNL     1      46.137   4.590  13.462  0.00  0.00    +0.000 A 
ATOM      7  N   UNL     1      47.305   5.282  13.501  0.00  0.00    +0.000 NA
ATOM      8  C   UNL     1      47.170   6.540  13.038  0.00  0.00    +0.000 A 
ATOM      9  N   UNL     1      48.148   7.502  12.946  0.00  0.00    +0.000 N 
ENDROOT
BRANCH   5  10
ATOM     10  C   UNL     1      43.761   4.121  12.981  0.00  0.00    +0.000 C 
ATOM     11  N   UNL     1      43.973   2.814  12.658  0.00  0.00    +0.000 N 
ATOM     12  O   UNL     1      42.634   4.506  13.274  0.00  0.00    +0.000 OA
ATOM     13  H   UNL     1      44.862   2.406  12.405  0.00  0.00    +0.000 HD
ATOM     14  H   UNL     1      43.164   2.203  12.678  0.00  0.00    +0.000 HD
ENDBRANCH   5  10
BRANCH   1  16
ATOM     15  C   UNL     1      47.271  10.972  11.509  0.00  0.00    +0.000 C 
ATOM     16  C   UNL     1      48.248  10.011  12.231  0.00  0.00    +0.000 C 
ATOM     17  C   UNL     1      49.479   9.878  11.314  0.00  0.00    +0.000 C 
ATOM     18  C   UNL     1      48.630  10.676  13.566  0.00  0.00    +0.000 C 
ENDBRANCH   1  16
BRANCH   9  19
ATOM     19  C   UNL     1      49.550   7.237  13.215  0.00  0.00    +0.000 C 
BRANCH  19  20
ATOM     20  C   UNL     1      50.024   7.559  14.611  0.00  0.00    +0.000 A 
ATOM     21  C   UNL     1      51.250   8.225  14.763  0.00  0.00    +0.000 A 
ATOM     22  C   UNL     1      51.665   8.674  16.015  0.00  0.00    +0.000 A 
ATOM     23  C   UNL     1      50.858   8.471  17.132  0.00  0.00    +0.000 A 
ATOM     24  C   UNL     1      49.632   7.807  17.011  0.00  0.00    +0.000 A 
ATOM     25  C   UNL     1      49.225   7.353  15.745  0.00  0.00    +0.000 A 
BRANCH  24  26
ATOM     26  C   UNL     1      48.727   7.590  18.198  0.00  0.00    +0.000 C 
ATOM     27  F   UNL     1      49.380   7.610  19.392  0.00  0.00    +0.000 F 
ATOM     28  F   UNL     1      47.759   8.547  18.287  0.00  0.00    +0.000 F 
ATOM     29  F   UNL     1      48.071   6.399  18.149  0.00  0.00    +0.000 F 
ENDBRANCH  24  26
ENDBRANCH  19  20
ENDBRANCH   9  19
TORSDOF 5
ENDMDL
