MODEL 1
REMARK VINA RESULT:    -9.043      0.000      0.000
REMARK INTER + INTRA:         -13.195
REMARK INTER:                 -12.214
REMARK INTRA:                  -0.981
REMARK UNBOUND:                -0.981
REMARK  Name = 
REMARK  6 active torsions:
REMARK  status: ('A' for Active; 'I' for Inactive)
REMARK    1  A    between atoms: C_2  and  C_3
REMARK    2  A    between atoms: C_6  and  C_7
REMARK    3  A    between atoms: C_11  and  C_12
REMARK    4  A    between atoms: C_12  and  N_13
REMARK    5  A    between atoms: N_13  and  C_14
REMARK    6  A    between atoms: C_17  and  C_18
REMARK                            x       y       z     vdW  Elec       q    Type
REMARK                         _______ _______ _______ _____ _____    ______ ____
ROOT
ATOM      1  C   UNL     1      43.735   5.450  11.130  0.00  0.00    +0.000 C 
ATOM      2  C   UNL     1      43.002   6.762  11.330  0.00  0.00    +0.000 C 
ATOM      3  C   UNL     1      42.403   5.520  11.890  0.00  0.00    +0.000 C 
ENDROOT
BRANCH   1   8
ATOM      4  C   UNL     1      47.182   5.907  12.788  0.00  0.00    +0.000 A 
ATOM      5  C   UNL     1      47.136   4.792  13.625  0.00  0.00    +0.000 A 
ATOM      6  N   UNL     1      46.156   3.866  13.618  0.00  0.00    +0.000 NA
ATOM      7  C   UNL     1      45.129   4.096  12.772  0.00  0.00    +0.000 A 
ATOM      8  C   UNL     1      44.990   5.213  11.951  0.00  0.00    +0.000 A 
ATOM      9  C   UNL     1      46.073   6.100  11.948  0.00  0.00    +0.000 A 
BRANCH   4  13
ATOM     10  C   UNL     1      50.468   8.534  12.873  0.00  0.00    +0.000 A 
ATOM     11  C   UNL     1      49.800   8.391  11.675  0.00  0.00    +0.000 A 
ATOM     12  C   UNL     1      48.714   7.531  11.635  0.00  0.00    +0.000 A 
ATOM     13  C   UNL     1      48.324   6.825  12.789  0.00  0.00    +0.000 A 
ATOM     14  C   UNL     1      49.082   7.055  13.938  0.00  0.00    +0.000 A 
ATOM     15  N   UNL     1      50.138   7.890  14.012  0.00  0.00    +0.000 NA
BRANCH  10  17
ATOM     16  N   UNL     1      52.498  10.134  13.011  0.00  0.00    +0.000 NA
ATOM     17  C   UNL     1      51.593   9.415  12.958  0.00  0.00    +0.000 C 
ENDBRANCH  10  17
ENDBRANCH   4  13
ENDBRANCH   1   8
BRANCH   1  18
ATOM     18  N   UNL     1      43.639   4.618   9.936  0.00  0.00    +0.000 N 
ATOM     19  H   UNL     1      42.701   4.424   9.604  0.00  0.00    +0.000 HD
BRANCH  18  20
ATOM     20  C   UNL     1      44.640   3.945   9.226  0.00  0.00    +0.000 A 
ATOM     21  C   UNL     1      45.556   4.537   8.361  0.00  0.00    +0.000 A 
ATOM     22  C   UNL     1      46.454   3.740   7.627  0.00  0.00    +0.000 A 
ATOM     23  C   UNL     1      46.464   2.346   7.778  0.00  0.00    +0.000 A 
ATOM     24  C   UNL     1      45.584   1.750   8.679  0.00  0.00    +0.000 A 
ATOM     25  C   UNL     1      44.685   2.548   9.386  0.00  0.00    +0.000 A 
BRANCH  23  26
ATOM     26  C   UNL     1      47.366   1.529   6.927  0.00  0.00    +0.000 C 
ATOM     27  N   UNL     1      48.515   2.115   6.471  0.00  0.00    +0.000 N 
ATOM     28  O   UNL     1      47.098   0.370   6.644  0.00  0.00    +0.000 OA
ATOM     29  H   UNL     1      48.771   3.077   6.631  0.00  0.00    +0.000 HD
ATOM     30  H   UNL     1      49.120   1.547   5.890  0.00  0.00    +0.000 HD
ENDBRANCH  23  26
ENDBRANCH  18  20
ENDBRANCH   1  18
TORSDOF 6
ENDMDL
MODEL 2
REMARK VINA RESULT:    -8.460      2.270      3.544
REMARK INTER + INTRA:         -12.408
REMARK INTER:                 -12.099
REMARK INTRA:                  -0.309
REMARK UNBOUND:                -0.981
REMARK  Name = 
REMARK  6 active torsions:
REMARK  status: ('A' for Active; 'I' for Inactive)
REMARK    1  A    between atoms: C_2  and  C_3
REMARK    2  A    between atoms: C_6  and  C_7
REMARK    3  A    between atoms: C_11  and  C_12
REMARK    4  A    between atoms: C_12  and  N_13
REMARK    5  A    between atoms: N_13  and  C_14
REMARK    6  A    between atoms: C_17  and  C_18
REMARK                            x       y       z     vdW  Elec       q    Type
REMARK                         _______ _______ _______ _____ _____    ______ ____
ROOT
ATOM      1  C   UNL     1      43.801   5.144  11.369  0.00  0.00    +0.000 C 
ATOM      2  C   UNL     1      42.569   5.462  12.194  0.00  0.00    +0.000 C 
ATOM      3  C   UNL     1      43.113   4.077  12.234  0.00  0.00    +0.000 C 
ENDROOT
BRANCH   1   8
ATOM      4  C   UNL     1      46.963   5.757  13.482  0.00  0.00    +0.000 A 
ATOM      5  C   UNL     1      47.648   6.553  12.565  0.00  0.00    +0.000 A 
ATOM      6  N   UNL     1      47.140   6.990  11.395  0.00  0.00    +0.000 NA
ATOM      7  C   UNL     1      45.898   6.556  11.089  0.00  0.00    +0.000 A 
ATOM      8  C   UNL     1      45.134   5.680  11.858  0.00  0.00    +0.000 A 
ATOM      9  C   UNL     1      45.685   5.322  13.094  0.00  0.00    +0.000 A 
BRANCH   4  13
ATOM     10  C   UNL     1      48.697   4.772  17.187  0.00  0.00    +0.000 A 
ATOM     11  C   UNL     1      47.685   3.957  16.722  0.00  0.00    +0.000 A 
ATOM     12  C   UNL     1      47.108   4.270  15.502  0.00  0.00    +0.000 A 
ATOM     13  C   UNL     1      47.547   5.393  14.775  0.00  0.00    +0.000 A 
ATOM     14  C   UNL     1      48.576   6.138  15.353  0.00  0.00    +0.000 A 
ATOM     15  N   UNL     1      49.164   5.856  16.534  0.00  0.00    +0.000 NA
BRANCH  10  17
ATOM     16  N   UNL     1      49.830   4.266  19.459  0.00  0.00    +0.000 NA
ATOM     17  C   UNL     1      49.322   4.483  18.442  0.00  0.00    +0.000 C 
ENDBRANCH  10  17
ENDBRANCH   4  13
ENDBRANCH   1   8
BRANCH   1  18
ATOM     18  N   UNL     1      43.784   4.792   9.954  0.00  0.00    +0.000 N 
ATOM     19  H   UNL     1      43.034   5.197   9.404  0.00  0.00    +0.000 HD
BRANCH  18  20
ATOM     20  C   UNL     1      44.580   3.887   9.242  0.00  0.00    +0.000 A 
ATOM     21  C   UNL     1      44.586   2.504   9.415  0.00  0.00    +0.000 A 
ATOM     22  C   UNL     1      45.504   1.707   8.707  0.00  0.00    +0.000 A 
ATOM     23  C   UNL     1      46.401   2.282   7.797  0.00  0.00    +0.000 A 
ATOM     24  C   UNL     1      46.367   3.658   7.582  0.00  0.00    +0.000 A 
ATOM     25  C   UNL     1      45.468   4.442   8.303  0.00  0.00    +0.000 A 
BRANCH  23  26
ATOM     26  C   UNL     1      47.411   1.422   7.130  0.00  0.00    +0.000 C 
ATOM     27  N   UNL     1      48.432   2.040   6.460  0.00  0.00    +0.000 N 
ATOM     28  O   UNL     1      47.340   0.203   7.177  0.00  0.00    +0.000 OA
ATOM     29  H   UNL     1      48.523   3.038   6.346  0.00  0.00    +0.000 HD
ATOM     30  H   UNL     1      49.112   1.440   6.009  0.00  0.00    +0.000 HD
ENDBRANCH  23  26
ENDBRANCH  18  20
ENDBRANCH   1  18
TORSDOF 6
ENDMDL
MODEL 3
REMARK VINA RESULT:    -7.271      1.854      2.486
REMARK INTER + INTRA:         -10.802
REMARK INTER:                  -9.908
REMARK INTRA:                  -0.894
REMARK UNBOUND:                -0.981
REMARK  Name = 
REMARK  6 active torsions:
REMARK  status: ('A' for Active; 'I' for Inactive)
REMARK    1  A    between atoms: C_2  and  C_3
REMARK    2  A    between atoms: C_6  and  C_7
REMARK    3  A    between atoms: C_11  and  C_12
REMARK    4  A    between atoms: C_12  and  N_13
REMARK    5  A    between atoms: N_13  and  C_14
REMARK    6  A    between atoms: C_17  and  C_18
REMARK                            x       y       z     vdW  Elec       q    Type
REMARK                         _______ _______ _______ _____ _____    ______ ____
ROOT
ATOM      1  C   UNL     1      43.968   5.402  11.751  0.00  0.00    +0.000 C 
ATOM      2  C   UNL     1      42.515   5.665  11.405  0.00  0.00    +0.000 C 
ATOM      3  C   UNL     1      42.839   5.137  12.758  0.00  0.00    +0.000 C 
ENDROOT
BRANCH   1   8
ATOM      4  C   UNL     1      46.920   7.618  12.851  0.00  0.00    +0.000 A 
ATOM      5  C   UNL     1      46.497   8.803  12.251  0.00  0.00    +0.000 A 
ATOM      6  N   UNL     1      45.312   8.971  11.629  0.00  0.00    +0.000 NA
ATOM      7  C   UNL     1      44.527   7.875  11.545  0.00  0.00    +0.000 A 
ATOM      8  C   UNL     1      44.859   6.603  12.009  0.00  0.00    +0.000 A 
ATOM      9  C   UNL     1      46.068   6.511  12.708  0.00  0.00    +0.000 A 
BRANCH   4  13
ATOM     10  C   UNL     1      50.517   7.328  15.016  0.00  0.00    +0.000 A 
ATOM     11  C   UNL     1      50.476   8.224  13.968  0.00  0.00    +0.000 A 
ATOM     12  C   UNL     1      49.296   8.331  13.249  0.00  0.00    +0.000 A 
ATOM     13  C   UNL     1      48.185   7.535  13.586  0.00  0.00    +0.000 A 
ATOM     14  C   UNL     1      48.353   6.666  14.665  0.00  0.00    +0.000 A 
ATOM     15  N   UNL     1      49.484   6.544  15.389  0.00  0.00    +0.000 NA
BRANCH  10  17
ATOM     16  N   UNL     1      52.675   7.082  16.423  0.00  0.00    +0.000 NA
ATOM     17  C   UNL     1      51.715   7.189  15.786  0.00  0.00    +0.000 C 
ENDBRANCH  10  17
ENDBRANCH   4  13
ENDBRANCH   1   8
BRANCH   1  18
ATOM     18  N   UNL     1      44.694   4.183  11.413  0.00  0.00    +0.000 N 
ATOM     19  H   UNL     1      45.020   3.627  12.197  0.00  0.00    +0.000 HD
BRANCH  18  20
ATOM     20  C   UNL     1      45.115   3.703  10.168  0.00  0.00    +0.000 A 
ATOM     21  C   UNL     1      45.095   2.369   9.766  0.00  0.00    +0.000 A 
ATOM     22  C   UNL     1      45.637   1.997   8.522  0.00  0.00    +0.000 A 
ATOM     23  C   UNL     1      46.176   2.961   7.657  0.00  0.00    +0.000 A 
ATOM     24  C   UNL     1      46.154   4.302   8.031  0.00  0.00    +0.000 A 
ATOM     25  C   UNL     1      45.632   4.658   9.274  0.00  0.00    +0.000 A 
BRANCH  23  26
ATOM     26  C   UNL     1      46.815   2.523   6.390  0.00  0.00    +0.000 C 
ATOM     27  N   UNL     1      47.016   3.466   5.419  0.00  0.00    +0.000 N 
ATOM     28  O   UNL     1      47.155   1.362   6.216  0.00  0.00    +0.000 OA
ATOM     29  H   UNL     1      46.718   4.427   5.482  0.00  0.00    +0.000 HD
ATOM     30  H   UNL     1      47.451   3.153   4.560  0.00  0.00    +0.000 HD
ENDBRANCH  23  26
ENDBRANCH  18  20
ENDBRANCH   1  18
TORSDOF 6
ENDMDL
MODEL 4
REMARK VINA RESULT:    -6.491      4.552      8.835
REMARK INTER + INTRA:          -9.748
REMARK INTER:                  -8.851
REMARK INTRA:                  -0.897
REMARK UNBOUND:                -0.981
REMARK  Name = 
REMARK  6 active torsions:
REMARK  status: ('A' for Active; 'I' for Inactive)
REMARK    1  A    between atoms: C_2  and  C_3
REMARK    2  A    between atoms: C_6  and  C_7
REMARK    3  A    between atoms: C_11  and  C_12
REMARK    4  A    between atoms: C_12  and  N_13
REMARK    5  A    between atoms: N_13  and  C_14
REMARK    6  A    between atoms: C_17  and  C_18
REMARK                            x       y       z     vdW  Elec       q    Type
REMARK                         _______ _______ _______ _____ _____    ______ ____
ROOT
ATOM      1  C   UNL     1      49.823   7.212  17.085  0.00  0.00    +0.000 C 
ATOM      2  C   UNL     1      48.651   7.406  18.027  0.00  0.00    +0.000 C 
ATOM      3  C   UNL     1      49.539   8.567  17.748  0.00  0.00    +0.000 C 
ENDROOT
BRANCH   1   8
ATOM      4  C   UNL     1      48.138   6.311  13.741  0.00  0.00    +0.000 A 
ATOM      5  C   UNL     1      48.945   7.088  12.910  0.00  0.00    +0.000 A 
ATOM      6  N   UNL     1      50.031   7.776  13.317  0.00  0.00    +0.000 NA
ATOM      7  C   UNL     1      50.294   7.738  14.641  0.00  0.00    +0.000 A 
ATOM      8  C   UNL     1      49.522   7.088  15.603  0.00  0.00    +0.000 A 
ATOM      9  C   UNL     1      48.453   6.333  15.109  0.00  0.00    +0.000 A 
BRANCH   4  13
ATOM     10  C   UNL     1      44.958   3.976  12.277  0.00  0.00    +0.000 A 
ATOM     11  C   UNL     1      45.238   5.154  11.616  0.00  0.00    +0.000 A 
ATOM     12  C   UNL     1      46.285   5.930  12.087  0.00  0.00    +0.000 A 
ATOM     13  C   UNL     1      47.024   5.519  13.213  0.00  0.00    +0.000 A 
ATOM     14  C   UNL     1      46.641   4.309  13.793  0.00  0.00    +0.000 A 
ATOM     15  N   UNL     1      45.633   3.528  13.355  0.00  0.00    +0.000 NA
BRANCH  10  17
ATOM     16  N   UNL     1      43.024   2.459  11.466  0.00  0.00    +0.000 NA
ATOM     17  C   UNL     1      43.886   3.144  11.822  0.00  0.00    +0.000 C 
ENDBRANCH  10  17
ENDBRANCH   4  13
ENDBRANCH   1   8
BRANCH   1  18
ATOM     18  N   UNL     1      51.122   6.677  17.475  0.00  0.00    +0.000 N 
ATOM     19  H   UNL     1      51.871   7.354  17.577  0.00  0.00    +0.000 HD
BRANCH  18  20
ATOM     20  C   UNL     1      51.538   5.349  17.629  0.00  0.00    +0.000 A 
ATOM     21  C   UNL     1      52.851   4.931  17.835  0.00  0.00    +0.000 A 
ATOM     22  C   UNL     1      53.159   3.559  17.877  0.00  0.00    +0.000 A 
ATOM     23  C   UNL     1      52.151   2.593  17.745  0.00  0.00    +0.000 A 
ATOM     24  C   UNL     1      50.829   3.004  17.588  0.00  0.00    +0.000 A 
ATOM     25  C   UNL     1      50.538   4.366  17.528  0.00  0.00    +0.000 A 
BRANCH  23  26
ATOM     26  C   UNL     1      52.521   1.156  17.710  0.00  0.00    +0.000 C 
ATOM     27  N   UNL     1      51.583   0.245  18.114  0.00  0.00    +0.000 N 
ATOM     28  O   UNL     1      53.625   0.792  17.330  0.00  0.00    +0.000 OA
ATOM     29  H   UNL     1      50.674   0.483  18.479  0.00  0.00    +0.000 HD
ATOM     30  H   UNL     1      51.851  -0.731  18.086  0.00  0.00    +0.000 HD
ENDBRANCH  23  26
ENDBRANCH  18  20
ENDBRANCH   1  18
TORSDOF 6
ENDMDL
MODEL 5
REMARK VINA RESULT:    -6.456      3.368      7.542
REMARK INTER + INTRA:          -9.701
REMARK INTER:                  -8.853
REMARK INTRA:                  -0.848
REMARK UNBOUND:                -0.981
REMARK  Name = 
REMARK  6 active torsions:
REMARK  status: ('A' for Active; 'I' for Inactive)
REMARK    1  A    between atoms: C_2  and  C_3
REMARK    2  A    between atoms: C_6  and  C_7
REMARK    3  A    between atoms: C_11  and  C_12
REMARK    4  A    between atoms: C_12  and  N_13
REMARK    5  A    between atoms: N_13  and  C_14
REMARK    6  A    between atoms: C_17  and  C_18
REMARK                            x       y       z     vdW  Elec       q    Type
REMARK                         _______ _______ _______ _____ _____    ______ ____
ROOT
ATOM      1  C   UNL     1      46.232   7.714  12.736  0.00  0.00    +0.000 C 
ATOM      2  C   UNL     1      45.538   8.967  13.234  0.00  0.00    +0.000 C 
ATOM      3  C   UNL     1      46.495   9.087  12.100  0.00  0.00    +0.000 C 
ENDROOT
BRANCH   1   8
ATOM      4  C   UNL     1      45.185   4.997  10.214  0.00  0.00    +0.000 A 
ATOM      5  C   UNL     1      43.880   4.813  10.670  0.00  0.00    +0.000 A 
ATOM      6  N   UNL     1      43.288   5.554  11.629  0.00  0.00    +0.000 NA
ATOM      7  C   UNL     1      44.062   6.494  12.214  0.00  0.00    +0.000 A 
ATOM      8  C   UNL     1      45.408   6.724  11.933  0.00  0.00    +0.000 A 
ATOM      9  C   UNL     1      45.942   5.975  10.879  0.00  0.00    +0.000 A 
BRANCH   4  13
ATOM     10  C   UNL     1      46.778   2.810   6.992  0.00  0.00    +0.000 A 
ATOM     11  C   UNL     1      46.122   2.102   7.978  0.00  0.00    +0.000 A 
ATOM     12  C   UNL     1      45.590   2.812   9.043  0.00  0.00    +0.000 A 
ATOM     13  C   UNL     1      45.732   4.211   9.106  0.00  0.00    +0.000 A 
ATOM     14  C   UNL     1      46.418   4.810   8.048  0.00  0.00    +0.000 A 
ATOM     15  N   UNL     1      46.940   4.149   6.995  0.00  0.00    +0.000 NA
BRANCH  10  17
ATOM     16  N   UNL     1      47.809   1.560   4.973  0.00  0.00    +0.000 NA
ATOM     17  C   UNL     1      47.339   2.115   5.873  0.00  0.00    +0.000 C 
ENDBRANCH  10  17
ENDBRANCH   4  13
ENDBRANCH   1   8
BRANCH   1  18
ATOM     18  N   UNL     1      47.440   7.146  13.323  0.00  0.00    +0.000 N 
ATOM     19  H   UNL     1      48.318   7.445  12.912  0.00  0.00    +0.000 HD
BRANCH  18  20
ATOM     20  C   UNL     1      47.584   6.157  14.303  0.00  0.00    +0.000 A 
ATOM     21  C   UNL     1      46.977   4.903  14.282  0.00  0.00    +0.000 A 
ATOM     22  C   UNL     1      47.121   4.030  15.376  0.00  0.00    +0.000 A 
ATOM     23  C   UNL     1      47.899   4.391  16.485  0.00  0.00    +0.000 A 
ATOM     24  C   UNL     1      48.549   5.623  16.491  0.00  0.00    +0.000 A 
ATOM     25  C   UNL     1      48.384   6.488  15.411  0.00  0.00    +0.000 A 
BRANCH  23  26
ATOM     26  C   UNL     1      47.960   3.480  17.657  0.00  0.00    +0.000 C 
ATOM     27  N   UNL     1      46.957   2.561  17.804  0.00  0.00    +0.000 N 
ATOM     28  O   UNL     1      48.876   3.543  18.465  0.00  0.00    +0.000 OA
ATOM     29  H   UNL     1      46.153   2.489  17.200  0.00  0.00    +0.000 HD
ATOM     30  H   UNL     1      47.012   1.949  18.608  0.00  0.00    +0.000 HD
ENDBRANCH  23  26
ENDBRANCH  18  20
ENDBRANCH   1  18
TORSDOF 6
ENDMDL
MODEL 6
REMARK VINA RESULT:    -6.164      3.806      5.912
REMARK INTER + INTRA:          -9.306
REMARK INTER:                  -8.638
REMARK INTRA:                  -0.668
REMARK UNBOUND:                -0.981
REMARK  Name = 
REMARK  6 active torsions:
REMARK  status: ('A' for Active; 'I' for Inactive)
REMARK    1  A    between atoms: C_2  and  C_3
REMARK    2  A    between atoms: C_6  and  C_7
REMARK    3  A    between atoms: C_11  and  C_12
REMARK    4  A    between atoms: C_12  and  N_13
REMARK    5  A    between atoms: N_13  and  C_14
REMARK    6  A    between atoms: C_17  and  C_18
REMARK                            x       y       z     vdW  Elec       q    Type
REMARK                         _______ _______ _______ _____ _____    ______ ____
ROOT
ATOM      1  C   UNL     1      47.881   7.945  13.217  0.00  0.00    +0.000 C 
ATOM      2  C   UNL     1      48.863   7.952  12.061  0.00  0.00    +0.000 C 
ATOM      3  C   UNL     1      48.138   9.210  12.385  0.00  0.00    +0.000 C 
ENDROOT
BRANCH   1   8
ATOM      4  C   UNL     1      49.778   6.861  16.389  0.00  0.00    +0.000 A 
ATOM      5  C   UNL     1      49.603   8.035  17.121  0.00  0.00    +0.000 A 
ATOM      6  N   UNL     1      48.848   9.080  16.729  0.00  0.00    +0.000 NA
ATOM      7  C   UNL     1      48.283   8.978  15.506  0.00  0.00    +0.000 A 
ATOM      8  C   UNL     1      48.449   7.912  14.623  0.00  0.00    +0.000 A 
ATOM      9  C   UNL     1      49.183   6.827  15.118  0.00  0.00    +0.000 A 
BRANCH   4  13
ATOM     10  C   UNL     1      52.044   3.648  17.888  0.00  0.00    +0.000 A 
ATOM     11  C   UNL     1      50.673   3.497  17.853  0.00  0.00    +0.000 A 
ATOM     12  C   UNL     1      49.916   4.547  17.358  0.00  0.00    +0.000 A 
ATOM     13  C   UNL     1      50.543   5.729  16.918  0.00  0.00    +0.000 A 
ATOM     14  C   UNL     1      51.935   5.759  17.007  0.00  0.00    +0.000 A 
ATOM     15  N   UNL     1      52.700   4.752  17.476  0.00  0.00    +0.000 NA
BRANCH  10  17
ATOM     16  N   UNL     1      53.522   1.733  18.811  0.00  0.00    +0.000 NA
ATOM     17  C   UNL     1      52.863   2.586  18.389  0.00  0.00    +0.000 C 
ENDBRANCH  10  17
ENDBRANCH   4  13
ENDBRANCH   1   8
BRANCH   1  18
ATOM     18  N   UNL     1      46.494   7.504  13.124  0.00  0.00    +0.000 N 
ATOM     19  H   UNL     1      45.819   8.046  13.652  0.00  0.00    +0.000 HD
BRANCH  18  20
ATOM     20  C   UNL     1      45.949   6.374  12.504  0.00  0.00    +0.000 A 
ATOM     21  C   UNL     1      45.642   6.262  11.150  0.00  0.00    +0.000 A 
ATOM     22  C   UNL     1      45.006   5.107  10.661  0.00  0.00    +0.000 A 
ATOM     23  C   UNL     1      44.699   4.040  11.518  0.00  0.00    +0.000 A 
ATOM     24  C   UNL     1      45.048   4.123  12.864  0.00  0.00    +0.000 A 
ATOM     25  C   UNL     1      45.661   5.281  13.341  0.00  0.00    +0.000 A 
BRANCH  23  26
ATOM     26  C   UNL     1      43.953   2.872  10.985  0.00  0.00    +0.000 C 
ATOM     27  N   UNL     1      44.425   2.279   9.846  0.00  0.00    +0.000 N 
ATOM     28  O   UNL     1      42.951   2.448  11.543  0.00  0.00    +0.000 OA
ATOM     29  H   UNL     1      45.217   2.606   9.315  0.00  0.00    +0.000 HD
ATOM     30  H   UNL     1      43.904   1.485   9.494  0.00  0.00    +0.000 HD
ENDBRANCH  23  26
ENDBRANCH  18  20
ENDBRANCH   1  18
TORSDOF 6
ENDMDL
