MODEL 1
REMARK VINA RESULT:    -6.808      0.000      0.000
REMARK INTER + INTRA:          -9.929
REMARK INTER:                  -9.196
REMARK INTRA:                  -0.733
REMARK UNBOUND:                -0.733
REMARK  Name = 
REMARK  7 active torsions:
REMARK  status: ('A' for Active; 'I' for Inactive)
REMARK    1  A    between atoms: C_1  and  C_2
REMARK    2  A    between atoms: C_2  and  C_3
REMARK    3  A    between atoms: C_7  and  C_8
REMARK    4  A    between atoms: C_14  and  C_15
REMARK    5  A    between atoms: C_14  and  N_20
REMARK    6  A    between atoms: C_15  and  C_16
REMARK    7  A    between atoms: C_24  and  C_25
REMARK                            x       y       z     vdW  Elec       q    Type
REMARK                         _______ _______ _______ _____ _____    ______ ____
ROOT
ATOM      1  C   UNL     1      43.582   5.844  11.095  0.00  0.00    +0.000 C 
ATOM      2  C   UNL     1      44.459   4.762  11.717  0.00  0.00    +0.000 C 
ATOM      3  C   UNL     1      44.109   4.345  13.127  0.00  0.00    +0.000 C 
ATOM      4  C   UNL     1      45.367   5.157  12.931  0.00  0.00    +0.000 C 
ENDROOT
BRANCH   4   5
ATOM      5  N   UNL     1      45.369   6.619  13.291  0.00  0.00    +0.000 N 
ATOM      6  C   UNL     1      46.478   7.380  12.865  0.00  0.00    +0.000 A 
ATOM      7  C   UNL     1      46.504   8.752  13.096  0.00  0.00    +0.000 A 
ATOM      8  C   UNL     1      47.562   9.507  12.581  0.00  0.00    +0.000 A 
ATOM      9  C   UNL     1      48.568   8.891  11.837  0.00  0.00    +0.000 A 
ATOM     10  C   UNL     1      48.465   7.524  11.656  0.00  0.00    +0.000 A 
ATOM     11  N   UNL     1      47.452   6.777  12.150  0.00  0.00    +0.000 NA
ATOM     12  H   UNL     1      45.093   6.860  14.236  0.00  0.00    +0.000 HD
BRANCH   9  13
ATOM     13  C   UNL     1      49.670   9.692  11.262  0.00  0.00    +0.000 C 
ATOM     14  N   UNL     1      49.454  11.002  10.936  0.00  0.00    +0.000 N 
ATOM     15  O   UNL     1      50.778   9.193  11.072  0.00  0.00    +0.000 OA
ATOM     16  H   UNL     1      48.594  11.513  11.066  0.00  0.00    +0.000 HD
ATOM     17  H   UNL     1      50.237  11.510  10.556  0.00  0.00    +0.000 HD
ENDBRANCH   9  13
ENDBRANCH   4   5
BRANCH   2  18
ATOM     18  C   UNL     1      44.816   3.706  10.676  0.00  0.00    +0.000 A 
ATOM     19  C   UNL     1      44.048   2.534  10.544  0.00  0.00    +0.000 A 
ATOM     20  C   UNL     1      44.132   1.718   9.414  0.00  0.00    +0.000 A 
ATOM     21  C   UNL     1      44.998   2.054   8.377  0.00  0.00    +0.000 A 
ATOM     22  C   UNL     1      45.805   3.194   8.477  0.00  0.00    +0.000 A 
ATOM     23  C   UNL     1      45.722   3.991   9.638  0.00  0.00    +0.000 A 
BRANCH  22  24
ATOM     24  C   UNL     1      46.694   3.615   7.337  0.00  0.00    +0.000 C 
ATOM     25  F   UNL     1      46.077   3.614   6.125  0.00  0.00    +0.000 F 
ATOM     26  F   UNL     1      47.187   4.879   7.498  0.00  0.00    +0.000 F 
ATOM     27  F   UNL     1      47.790   2.814   7.198  0.00  0.00    +0.000 F 
ENDBRANCH  22  24
ENDBRANCH   2  18
BRANCH   4  28
ATOM     28  C   UNL     1      46.675   4.443  13.251  0.00  0.00    +0.000 C 
BRANCH  28  29
ATOM     29  C   UNL     1      47.006   4.380  14.738  0.00  0.00    +0.000 C 
ATOM     30  F   UNL     1      45.923   4.510  15.535  0.00  0.00    +0.000 F 
ATOM     31  F   UNL     1      47.596   3.200  15.055  0.00  0.00    +0.000 F 
ATOM     32  F   UNL     1      47.872   5.361  15.090  0.00  0.00    +0.000 F 
ENDBRANCH  28  29
ENDBRANCH   4  28
TORSDOF 6
ENDMDL
MODEL 2
REMARK VINA RESULT:    -6.220      3.659      7.514
REMARK INTER + INTRA:          -9.135
REMARK INTER:                  -8.236
REMARK INTRA:                  -0.899
REMARK UNBOUND:                -0.733
REMARK  Name = 
REMARK  7 active torsions:
REMARK  status: ('A' for Active; 'I' for Inactive)
REMARK    1  A    between atoms: C_1  and  C_2
REMARK    2  A    between atoms: C_2  and  C_3
REMARK    3  A    between atoms: C_7  and  C_8
REMARK    4  A    between atoms: C_14  and  C_15
REMARK    5  A    between atoms: C_14  and  N_20
REMARK    6  A    between atoms: C_15  and  C_16
REMARK    7  A    between atoms: C_24  and  C_25
REMARK                            x       y       z     vdW  Elec       q    Type
REMARK                         _______ _______ _______ _____ _____    ______ ____
ROOT
ATOM      1  C   UNL     1      47.898   8.831  15.677  0.00  0.00    +0.000 C 
ATOM      2  C   UNL     1      49.016   8.183  14.867  0.00  0.00    +0.000 C 
ATOM      3  C   UNL     1      49.995   9.125  14.205  0.00  0.00    +0.000 C 
ATOM      4  C   UNL     1      49.018   8.392  13.315  0.00  0.00    +0.000 C 
ENDROOT
BRANCH   4   5
ATOM      5  N   UNL     1      47.828   9.128  12.758  0.00  0.00    +0.000 N 
ATOM      6  C   UNL     1      46.746   8.342  12.307  0.00  0.00    +0.000 A 
ATOM      7  C   UNL     1      45.584   8.962  11.855  0.00  0.00    +0.000 A 
ATOM      8  C   UNL     1      44.486   8.171  11.504  0.00  0.00    +0.000 A 
ATOM      9  C   UNL     1      44.555   6.783  11.621  0.00  0.00    +0.000 A 
ATOM     10  C   UNL     1      45.747   6.250  12.076  0.00  0.00    +0.000 A 
ATOM     11  N   UNL     1      46.820   6.999  12.415  0.00  0.00    +0.000 NA
ATOM     12  H   UNL     1      48.018   9.899  12.127  0.00  0.00    +0.000 HD
BRANCH   9  13
ATOM     13  C   UNL     1      43.383   5.946  11.284  0.00  0.00    +0.000 C 
ATOM     14  N   UNL     1      42.149   6.287  11.763  0.00  0.00    +0.000 N 
ATOM     15  O   UNL     1      43.507   4.945  10.580  0.00  0.00    +0.000 OA
ATOM     16  H   UNL     1      41.934   7.092  12.331  0.00  0.00    +0.000 HD
ATOM     17  H   UNL     1      41.379   5.692  11.500  0.00  0.00    +0.000 HD
ENDBRANCH   9  13
ENDBRANCH   4   5
BRANCH   2  18
ATOM     18  C   UNL     1      49.523   6.929  15.572  0.00  0.00    +0.000 A 
ATOM     19  C   UNL     1      50.848   6.850  16.042  0.00  0.00    +0.000 A 
ATOM     20  C   UNL     1      51.249   5.882  16.964  0.00  0.00    +0.000 A 
ATOM     21  C   UNL     1      50.328   4.955  17.444  0.00  0.00    +0.000 A 
ATOM     22  C   UNL     1      49.006   4.974  16.982  0.00  0.00    +0.000 A 
ATOM     23  C   UNL     1      48.628   5.945  16.032  0.00  0.00    +0.000 A 
BRANCH  22  24
ATOM     24  C   UNL     1      47.978   4.027  17.541  0.00  0.00    +0.000 C 
ATOM     25  F   UNL     1      48.349   3.434  18.708  0.00  0.00    +0.000 F 
ATOM     26  F   UNL     1      46.788   4.645  17.805  0.00  0.00    +0.000 F 
ATOM     27  F   UNL     1      47.676   3.010  16.685  0.00  0.00    +0.000 F 
ENDBRANCH  22  24
ENDBRANCH   2  18
BRANCH   4  28
ATOM     28  C   UNL     1      49.628   7.387  12.346  0.00  0.00    +0.000 C 
BRANCH  28  29
ATOM     29  C   UNL     1      50.720   7.963  11.451  0.00  0.00    +0.000 C 
ATOM     30  F   UNL     1      51.920   8.063  12.063  0.00  0.00    +0.000 F 
ATOM     31  F   UNL     1      50.897   7.195  10.346  0.00  0.00    +0.000 F 
ATOM     32  F   UNL     1      50.396   9.206  11.019  0.00  0.00    +0.000 F 
ENDBRANCH  28  29
ENDBRANCH   4  28
TORSDOF 6
ENDMDL
MODEL 3
REMARK VINA RESULT:    -5.910      3.884      7.018
REMARK INTER + INTRA:          -8.717
REMARK INTER:                  -8.143
REMARK INTRA:                  -0.573
REMARK UNBOUND:                -0.733
REMARK  Name = 
REMARK  7 active torsions:
REMARK  status: ('A' for Active; 'I' for Inactive)
REMARK    1  A    between atoms: C_1  and  C_2
REMARK    2  A    between atoms: C_2  and  C_3
REMARK    3  A    between atoms: C_7  and  C_8
REMARK    4  A    between atoms: C_14  and  C_15
REMARK    5  A    between atoms: C_14  and  N_20
REMARK    6  A    between atoms: C_15  and  C_16
REMARK    7  A    between atoms: C_24  and  C_25
REMARK                            x       y       z     vdW  Elec       q    Type
REMARK                         _______ _______ _______ _____ _____    ______ ____
ROOT
ATOM      1  C   UNL     1      49.100   6.868  13.706  0.00  0.00    +0.000 C 
ATOM      2  C   UNL     1      48.455   8.040  12.973  0.00  0.00    +0.000 C 
ATOM      3  C   UNL     1      47.555   8.932  13.798  0.00  0.00    +0.000 C 
ATOM      4  C   UNL     1      46.900   8.025  12.782  0.00  0.00    +0.000 C 
ENDROOT
BRANCH   4   5
ATOM      5  N   UNL     1      46.202   6.774  13.247  0.00  0.00    +0.000 N 
ATOM      6  C   UNL     1      45.736   5.895  12.247  0.00  0.00    +0.000 A 
ATOM      7  C   UNL     1      45.154   4.683  12.610  0.00  0.00    +0.000 A 
ATOM      8  C   UNL     1      44.787   3.780  11.607  0.00  0.00    +0.000 A 
ATOM      9  C   UNL     1      45.016   4.088  10.266  0.00  0.00    +0.000 A 
ATOM     10  C   UNL     1      45.597   5.312   9.995  0.00  0.00    +0.000 A 
ATOM     11  N   UNL     1      45.955   6.200  10.950  0.00  0.00    +0.000 NA
ATOM     12  H   UNL     1      45.529   6.875  13.998  0.00  0.00    +0.000 HD
BRANCH   9  13
ATOM     13  C   UNL     1      44.661   3.120   9.206  0.00  0.00    +0.000 C 
ATOM     14  N   UNL     1      44.491   1.801   9.525  0.00  0.00    +0.000 N 
ATOM     15  O   UNL     1      44.518   3.487   8.041  0.00  0.00    +0.000 OA
ATOM     16  H   UNL     1      44.565   1.398  10.446  0.00  0.00    +0.000 HD
ATOM     17  H   UNL     1      44.240   1.180   8.771  0.00  0.00    +0.000 HD
ENDBRANCH   9  13
ENDBRANCH   4   5
BRANCH   2  18
ATOM     18  C   UNL     1      49.442   8.658  11.988  0.00  0.00    +0.000 A 
ATOM     19  C   UNL     1      49.599  10.054  11.901  0.00  0.00    +0.000 A 
ATOM     20  C   UNL     1      50.700  10.636  11.270  0.00  0.00    +0.000 A 
ATOM     21  C   UNL     1      51.682   9.831  10.702  0.00  0.00    +0.000 A 
ATOM     22  C   UNL     1      51.555   8.437  10.736  0.00  0.00    +0.000 A 
ATOM     23  C   UNL     1      50.422   7.869  11.356  0.00  0.00    +0.000 A 
BRANCH  22  24
ATOM     24  C   UNL     1      52.640   7.547  10.192  0.00  0.00    +0.000 C 
ATOM     25  F   UNL     1      52.327   6.223  10.200  0.00  0.00    +0.000 F 
ATOM     26  F   UNL     1      52.955   7.842   8.895  0.00  0.00    +0.000 F 
ATOM     27  F   UNL     1      53.810   7.658  10.884  0.00  0.00    +0.000 F 
ENDBRANCH  22  24
ENDBRANCH   2  18
BRANCH   4  28
ATOM     28  C   UNL     1      46.204   8.723  11.621  0.00  0.00    +0.000 C 
BRANCH  28  29
ATOM     29  C   UNL     1      45.103   9.690  12.042  0.00  0.00    +0.000 C 
ATOM     30  F   UNL     1      44.573   9.408  13.251  0.00  0.00    +0.000 F 
ATOM     31  F   UNL     1      45.572  10.963  12.097  0.00  0.00    +0.000 F 
ATOM     32  F   UNL     1      44.079   9.686  11.154  0.00  0.00    +0.000 F 
ENDBRANCH  28  29
ENDBRANCH   4  28
TORSDOF 6
ENDMDL
MODEL 4
REMARK VINA RESULT:    -5.432      4.136      7.551
REMARK INTER + INTRA:          -8.071
REMARK INTER:                  -6.939
REMARK INTRA:                  -1.132
REMARK UNBOUND:                -0.733
REMARK  Name = 
REMARK  7 active torsions:
REMARK  status: ('A' for Active; 'I' for Inactive)
REMARK    1  A    between atoms: C_1  and  C_2
REMARK    2  A    between atoms: C_2  and  C_3
REMARK    3  A    between atoms: C_7  and  C_8
REMARK    4  A    between atoms: C_14  and  C_15
REMARK    5  A    between atoms: C_14  and  N_20
REMARK    6  A    between atoms: C_15  and  C_16
REMARK    7  A    between atoms: C_24  and  C_25
REMARK                            x       y       z     vdW  Elec       q    Type
REMARK                         _______ _______ _______ _____ _____    ______ ____
ROOT
ATOM      1  C   UNL     1      47.128   9.914  12.035  0.00  0.00    +0.000 C 
ATOM      2  C   UNL     1      48.202   8.919  12.461  0.00  0.00    +0.000 C 
ATOM      3  C   UNL     1      48.271   7.631  11.673  0.00  0.00    +0.000 C 
ATOM      4  C   UNL     1      47.739   7.558  13.085  0.00  0.00    +0.000 C 
ENDROOT
BRANCH   4   5
ATOM      5  N   UNL     1      46.257   7.419  13.312  0.00  0.00    +0.000 N 
ATOM      6  C   UNL     1      45.618   6.319  12.702  0.00  0.00    +0.000 A 
ATOM      7  C   UNL     1      44.265   6.089  12.937  0.00  0.00    +0.000 A 
ATOM      8  C   UNL     1      43.670   4.941  12.405  0.00  0.00    +0.000 A 
ATOM      9  C   UNL     1      44.429   4.037  11.662  0.00  0.00    +0.000 A 
ATOM     10  C   UNL     1      45.764   4.344  11.475  0.00  0.00    +0.000 A 
ATOM     11  N   UNL     1      46.355   5.451  11.978  0.00  0.00    +0.000 NA
ATOM     12  H   UNL     1      45.699   8.263  13.238  0.00  0.00    +0.000 HD
BRANCH   9  13
ATOM     13  C   UNL     1      43.810   2.805  11.128  0.00  0.00    +0.000 C 
ATOM     14  N   UNL     1      44.235   2.300   9.930  0.00  0.00    +0.000 N 
ATOM     15  O   UNL     1      42.917   2.230  11.748  0.00  0.00    +0.000 OA
ATOM     16  H   UNL     1      44.969   2.680   9.352  0.00  0.00    +0.000 HD
ATOM     17  H   UNL     1      43.791   1.453   9.611  0.00  0.00    +0.000 HD
ENDBRANCH   9  13
ENDBRANCH   4   5
BRANCH   2  18
ATOM     18  C   UNL     1      49.485   9.651  12.836  0.00  0.00    +0.000 A 
ATOM     19  C   UNL     1      49.465  10.723  13.748  0.00  0.00    +0.000 A 
ATOM     20  C   UNL     1      50.627  11.194  14.362  0.00  0.00    +0.000 A 
ATOM     21  C   UNL     1      51.854  10.602  14.075  0.00  0.00    +0.000 A 
ATOM     22  C   UNL     1      51.929   9.552  13.150  0.00  0.00    +0.000 A 
ATOM     23  C   UNL     1      50.745   9.109  12.523  0.00  0.00    +0.000 A 
BRANCH  22  24
ATOM     24  C   UNL     1      53.233   8.851  12.880  0.00  0.00    +0.000 C 
ATOM     25  F   UNL     1      53.529   7.869  13.775  0.00  0.00    +0.000 F 
ATOM     26  F   UNL     1      53.258   8.251  11.653  0.00  0.00    +0.000 F 
ATOM     27  F   UNL     1      54.301   9.699  12.891  0.00  0.00    +0.000 F 
ENDBRANCH  22  24
ENDBRANCH   2  18
BRANCH   4  28
ATOM     28  C   UNL     1      48.590   6.772  14.075  0.00  0.00    +0.000 C 
BRANCH  28  29
ATOM     29  C   UNL     1      48.752   7.445  15.433  0.00  0.00    +0.000 C 
ATOM     30  F   UNL     1      50.003   7.902  15.660  0.00  0.00    +0.000 F 
ATOM     31  F   UNL     1      47.911   8.503  15.554  0.00  0.00    +0.000 F 
ATOM     32  F   UNL     1      48.458   6.591  16.443  0.00  0.00    +0.000 F 
ENDBRANCH  28  29
ENDBRANCH   4  28
TORSDOF 6
ENDMDL
MODEL 5
REMARK VINA RESULT:    -5.401      4.519      8.075
REMARK INTER + INTRA:          -8.028
REMARK INTER:                  -7.255
REMARK INTRA:                  -0.773
REMARK UNBOUND:                -0.733
REMARK  Name = 
REMARK  7 active torsions:
REMARK  status: ('A' for Active; 'I' for Inactive)
REMARK    1  A    between atoms: C_1  and  C_2
REMARK    2  A    between atoms: C_2  and  C_3
REMARK    3  A    between atoms: C_7  and  C_8
REMARK    4  A    between atoms: C_14  and  C_15
REMARK    5  A    between atoms: C_14  and  N_20
REMARK    6  A    between atoms: C_15  and  C_16
REMARK    7  A    between atoms: C_24  and  C_25
REMARK                            x       y       z     vdW  Elec       q    Type
REMARK                         _______ _______ _______ _____ _____    ______ ____
ROOT
ATOM      1  C   UNL     1      48.126   8.936  16.199  0.00  0.00    +0.000 C 
ATOM      2  C   UNL     1      49.282   8.468  15.322  0.00  0.00    +0.000 C 
ATOM      3  C   UNL     1      49.855   9.491  14.368  0.00  0.00    +0.000 C 
ATOM      4  C   UNL     1      49.040   8.364  13.777  0.00  0.00    +0.000 C 
ENDROOT
BRANCH   4   5
ATOM      5  N   UNL     1      47.629   8.630  13.323  0.00  0.00    +0.000 N 
ATOM      6  C   UNL     1      46.802   7.505  13.119  0.00  0.00    +0.000 A 
ATOM      7  C   UNL     1      45.465   7.685  12.776  0.00  0.00    +0.000 A 
ATOM      8  C   UNL     1      44.635   6.564  12.674  0.00  0.00    +0.000 A 
ATOM      9  C   UNL     1      45.141   5.290  12.926  0.00  0.00    +0.000 A 
ATOM     10  C   UNL     1      46.480   5.202  13.259  0.00  0.00    +0.000 A 
ATOM     11  N   UNL     1      47.299   6.273  13.358  0.00  0.00    +0.000 NA
ATOM     12  H   UNL     1      47.504   9.322  12.593  0.00  0.00    +0.000 HD
BRANCH   9  13
ATOM     13  C   UNL     1      44.257   4.106  12.853  0.00  0.00    +0.000 C 
ATOM     14  N   UNL     1      44.783   2.891  12.514  0.00  0.00    +0.000 N 
ATOM     15  O   UNL     1      43.054   4.204  13.091  0.00  0.00    +0.000 OA
ATOM     16  H   UNL     1      45.753   2.696  12.318  0.00  0.00    +0.000 HD
ATOM     17  H   UNL     1      44.144   2.111  12.486  0.00  0.00    +0.000 HD
ENDBRANCH   9  13
ENDBRANCH   4   5
BRANCH   2  18
ATOM     18  C   UNL     1      50.216   7.559  16.114  0.00  0.00    +0.000 A 
ATOM     19  C   UNL     1      49.728   6.407  16.758  0.00  0.00    +0.000 A 
ATOM     20  C   UNL     1      50.577   5.391  17.202  0.00  0.00    +0.000 A 
ATOM     21  C   UNL     1      51.952   5.503  17.015  0.00  0.00    +0.000 A 
ATOM     22  C   UNL     1      52.487   6.646  16.406  0.00  0.00    +0.000 A 
ATOM     23  C   UNL     1      51.613   7.670  15.988  0.00  0.00    +0.000 A 
BRANCH  22  24
ATOM     24  C   UNL     1      53.963   6.754  16.129  0.00  0.00    +0.000 C 
ATOM     25  F   UNL     1      54.418   8.034  16.051  0.00  0.00    +0.000 F 
ATOM     26  F   UNL     1      54.721   6.151  17.092  0.00  0.00    +0.000 F 
ATOM     27  F   UNL     1      54.325   6.158  14.957  0.00  0.00    +0.000 F 
ENDBRANCH  22  24
ENDBRANCH   2  18
BRANCH   4  28
ATOM     28  C   UNL     1      49.801   7.391  12.885  0.00  0.00    +0.000 C 
BRANCH  28  29
ATOM     29  C   UNL     1      49.959   7.858  11.442  0.00  0.00    +0.000 C 
ATOM     30  F   UNL     1      49.964   9.202  11.310  0.00  0.00    +0.000 F 
ATOM     31  F   UNL     1      51.120   7.400  10.909  0.00  0.00    +0.000 F 
ATOM     32  F   UNL     1      48.956   7.391  10.661  0.00  0.00    +0.000 F 
ENDBRANCH  28  29
ENDBRANCH   4  28
TORSDOF 6
ENDMDL
MODEL 6
REMARK VINA RESULT:    -4.965      5.543      8.398
REMARK INTER + INTRA:          -7.439
REMARK INTER:                  -7.030
REMARK INTRA:                  -0.409
REMARK UNBOUND:                -0.733
REMARK  Name = 
REMARK  7 active torsions:
REMARK  status: ('A' for Active; 'I' for Inactive)
REMARK    1  A    between atoms: C_1  and  C_2
REMARK    2  A    between atoms: C_2  and  C_3
REMARK    3  A    between atoms: C_7  and  C_8
REMARK    4  A    between atoms: C_14  and  C_15
REMARK    5  A    between atoms: C_14  and  N_20
REMARK    6  A    between atoms: C_15  and  C_16
REMARK    7  A    between atoms: C_24  and  C_25
REMARK                            x       y       z     vdW  Elec       q    Type
REMARK                         _______ _______ _______ _____ _____    ______ ____
ROOT
ATOM      1  C   UNL     1      49.310   2.754  16.826  0.00  0.00    +0.000 C 
ATOM      2  C   UNL     1      49.443   3.941  17.774  0.00  0.00    +0.000 C 
ATOM      3  C   UNL     1      48.256   4.222  18.667  0.00  0.00    +0.000 C 
ATOM      4  C   UNL     1      48.521   5.185  17.533  0.00  0.00    +0.000 C 
ENDROOT
BRANCH   4   5
ATOM      5  N   UNL     1      47.664   5.126  16.296  0.00  0.00    +0.000 N 
ATOM      6  C   UNL     1      48.100   5.875  15.182  0.00  0.00    +0.000 A 
ATOM      7  C   UNL     1      47.396   5.801  13.983  0.00  0.00    +0.000 A 
ATOM      8  C   UNL     1      47.896   6.470  12.862  0.00  0.00    +0.000 A 
ATOM      9  C   UNL     1      49.089   7.188  12.946  0.00  0.00    +0.000 A 
ATOM     10  C   UNL     1      49.722   7.210  14.175  0.00  0.00    +0.000 A 
ATOM     11  N   UNL     1      49.252   6.573  15.271  0.00  0.00    +0.000 NA
ATOM     12  H   UNL     1      46.661   5.203  16.428  0.00  0.00    +0.000 HD
BRANCH   9  13
ATOM     13  C   UNL     1      49.638   7.868  11.752  0.00  0.00    +0.000 C 
ATOM     14  N   UNL     1      50.798   7.413  11.190  0.00  0.00    +0.000 N 
ATOM     15  O   UNL     1      49.063   8.838  11.261  0.00  0.00    +0.000 OA
ATOM     16  H   UNL     1      51.337   6.619  11.500  0.00  0.00    +0.000 HD
ATOM     17  H   UNL     1      51.129   7.902  10.373  0.00  0.00    +0.000 HD
ENDBRANCH   9  13
ENDBRANCH   4   5
BRANCH   2  18
ATOM     18  C   UNL     1      50.857   4.009  18.343  0.00  0.00    +0.000 A 
ATOM     19  C   UNL     1      51.103   4.595  19.599  0.00  0.00    +0.000 A 
ATOM     20  C   UNL     1      52.297   4.386  20.291  0.00  0.00    +0.000 A 
ATOM     21  C   UNL     1      53.289   3.580  19.739  0.00  0.00    +0.000 A 
ATOM     22  C   UNL     1      53.102   3.001  18.477  0.00  0.00    +0.000 A 
ATOM     23  C   UNL     1      51.898   3.245  17.785  0.00  0.00    +0.000 A 
BRANCH  22  24
ATOM     24  C   UNL     1      54.131   2.069  17.895  0.00  0.00    +0.000 C 
ATOM     25  F   UNL     1      54.894   1.435  18.826  0.00  0.00    +0.000 F 
ATOM     26  F   UNL     1      53.570   1.077  17.142  0.00  0.00    +0.000 F 
ATOM     27  F   UNL     1      55.008   2.703  17.064  0.00  0.00    +0.000 F 
ENDBRANCH  22  24
ENDBRANCH   2  18
BRANCH   4  28
ATOM     28  C   UNL     1      48.916   6.598  17.942  0.00  0.00    +0.000 C 
BRANCH  28  29
ATOM     29  C   UNL     1      48.000   7.227  18.985  0.00  0.00    +0.000 C 
ATOM     30  F   UNL     1      46.744   6.731  18.966  0.00  0.00    +0.000 F 
ATOM     31  F   UNL     1      48.487   7.035  20.238  0.00  0.00    +0.000 F 
ATOM     32  F   UNL     1      47.895   8.566  18.805  0.00  0.00    +0.000 F 
ENDBRANCH  28  29
ENDBRANCH   4  28
TORSDOF 6
ENDMDL
MODEL 7
REMARK VINA RESULT:    -4.804      4.893      8.617
REMARK INTER + INTRA:          -7.223
REMARK INTER:                  -6.063
REMARK INTRA:                  -1.160
REMARK UNBOUND:                -0.733
REMARK  Name = 
REMARK  7 active torsions:
REMARK  status: ('A' for Active; 'I' for Inactive)
REMARK    1  A    between atoms: C_1  and  C_2
REMARK    2  A    between atoms: C_2  and  C_3
REMARK    3  A    between atoms: C_7  and  C_8
REMARK    4  A    between atoms: C_14  and  C_15
REMARK    5  A    between atoms: C_14  and  N_20
REMARK    6  A    between atoms: C_15  and  C_16
REMARK    7  A    between atoms: C_24  and  C_25
REMARK                            x       y       z     vdW  Elec       q    Type
REMARK                         _______ _______ _______ _____ _____    ______ ____
ROOT
ATOM      1  C   UNL     1      50.727   9.217  16.856  0.00  0.00    +0.000 C 
ATOM      2  C   UNL     1      50.616   7.696  16.829  0.00  0.00    +0.000 C 
ATOM      3  C   UNL     1      50.830   7.032  15.488  0.00  0.00    +0.000 C 
ATOM      4  C   UNL     1      49.423   7.058  16.038  0.00  0.00    +0.000 C 
ENDROOT
BRANCH   4   5
ATOM      5  N   UNL     1      48.425   8.033  15.472  0.00  0.00    +0.000 N 
ATOM      6  C   UNL     1      47.738   7.637  14.305  0.00  0.00    +0.000 A 
ATOM      7  C   UNL     1      46.745   8.458  13.777  0.00  0.00    +0.000 A 
ATOM      8  C   UNL     1      46.006   8.007  12.679  0.00  0.00    +0.000 A 
ATOM      9  C   UNL     1      46.255   6.748  12.134  0.00  0.00    +0.000 A 
ATOM     10  C   UNL     1      47.259   5.999  12.718  0.00  0.00    +0.000 A 
ATOM     11  N   UNL     1      47.987   6.420  13.777  0.00  0.00    +0.000 NA
ATOM     12  H   UNL     1      48.707   9.005  15.427  0.00  0.00    +0.000 HD
BRANCH   9  13
ATOM     13  C   UNL     1      45.451   6.255  10.994  0.00  0.00    +0.000 C 
ATOM     14  N   UNL     1      44.099   6.457  10.984  0.00  0.00    +0.000 N 
ATOM     15  O   UNL     1      45.985   5.664  10.057  0.00  0.00    +0.000 OA
ATOM     16  H   UNL     1      43.565   6.942  11.689  0.00  0.00    +0.000 HD
ATOM     17  H   UNL     1      43.594   6.111  10.183  0.00  0.00    +0.000 HD
ENDBRANCH   9  13
ENDBRANCH   4   5
BRANCH   2  18
ATOM     18  C   UNL     1      51.241   7.096  18.084  0.00  0.00    +0.000 A 
ATOM     19  C   UNL     1      50.866   7.546  19.364  0.00  0.00    +0.000 A 
ATOM     20  C   UNL     1      51.155   6.817  20.519  0.00  0.00    +0.000 A 
ATOM     21  C   UNL     1      51.836   5.607  20.424  0.00  0.00    +0.000 A 
ATOM     22  C   UNL     1      52.258   5.133  19.175  0.00  0.00    +0.000 A 
ATOM     23  C   UNL     1      51.977   5.898  18.024  0.00  0.00    +0.000 A 
BRANCH  22  24
ATOM     24  C   UNL     1      52.932   3.794  19.043  0.00  0.00    +0.000 C 
ATOM     25  F   UNL     1      54.124   3.836  18.389  0.00  0.00    +0.000 F 
ATOM     26  F   UNL     1      53.198   3.222  20.255  0.00  0.00    +0.000 F 
ATOM     27  F   UNL     1      52.170   2.883  18.371  0.00  0.00    +0.000 F 
ENDBRANCH  22  24
ENDBRANCH   2  18
BRANCH   4  28
ATOM     28  C   UNL     1      48.826   5.702  16.395  0.00  0.00    +0.000 C 
BRANCH  28  29
ATOM     29  C   UNL     1      48.085   5.677  17.728  0.00  0.00    +0.000 C 
ATOM     30  F   UNL     1      47.834   6.906  18.226  0.00  0.00    +0.000 F 
ATOM     31  F   UNL     1      46.891   5.042  17.607  0.00  0.00    +0.000 F 
ATOM     32  F   UNL     1      48.793   5.009  18.670  0.00  0.00    +0.000 F 
ENDBRANCH  28  29
ENDBRANCH   4  28
TORSDOF 6
ENDMDL
MODEL 8
REMARK VINA RESULT:    -4.766     10.727     12.636
REMARK INTER + INTRA:          -7.171
REMARK INTER:                  -6.201
REMARK INTRA:                  -0.970
REMARK UNBOUND:                -0.733
REMARK  Name = 
REMARK  7 active torsions:
REMARK  status: ('A' for Active; 'I' for Inactive)
REMARK    1  A    between atoms: C_1  and  C_2
REMARK    2  A    between atoms: C_2  and  C_3
REMARK    3  A    between atoms: C_7  and  C_8
REMARK    4  A    between atoms: C_14  and  C_15
REMARK    5  A    between atoms: C_14  and  N_20
REMARK    6  A    between atoms: C_15  and  C_16
REMARK    7  A    between atoms: C_24  and  C_25
REMARK                            x       y       z     vdW  Elec       q    Type
REMARK                         _______ _______ _______ _____ _____    ______ ____
ROOT
ATOM      1  C   UNL     1      38.755  -4.381  18.105  0.00  0.00    +0.000 C 
ATOM      2  C   UNL     1      40.004  -3.733  17.518  0.00  0.00    +0.000 C 
ATOM      3  C   UNL     1      40.267  -2.300  17.919  0.00  0.00    +0.000 C 
ATOM      4  C   UNL     1      39.816  -2.556  16.500  0.00  0.00    +0.000 C 
ENDROOT
BRANCH   4   5
ATOM      5  N   UNL     1      38.392  -2.258  16.111  0.00  0.00    +0.000 N 
ATOM      6  C   UNL     1      37.962  -0.921  16.244  0.00  0.00    +0.000 A 
ATOM      7  C   UNL     1      36.683  -0.563  15.826  0.00  0.00    +0.000 A 
ATOM      8  C   UNL     1      36.306   0.782  15.873  0.00  0.00    +0.000 A 
ATOM      9  C   UNL     1      37.206   1.749  16.320  0.00  0.00    +0.000 A 
ATOM     10  C   UNL     1      38.455   1.307  16.717  0.00  0.00    +0.000 A 
ATOM     11  N   UNL     1      38.835   0.010  16.683  0.00  0.00    +0.000 NA
ATOM     12  H   UNL     1      37.683  -2.911  16.424  0.00  0.00    +0.000 HD
BRANCH   9  13
ATOM     13  C   UNL     1      36.822   3.177  16.337  0.00  0.00    +0.000 C 
ATOM     14  N   UNL     1      35.541   3.536  16.023  0.00  0.00    +0.000 N 
ATOM     15  O   UNL     1      37.643   4.045  16.630  0.00  0.00    +0.000 OA
ATOM     16  H   UNL     1      34.789   2.907  15.788  0.00  0.00    +0.000 HD
ATOM     17  H   UNL     1      35.323   4.519  16.057  0.00  0.00    +0.000 HD
ENDBRANCH   9  13
ENDBRANCH   4   5
BRANCH   2  18
ATOM     18  C   UNL     1      41.153  -4.736  17.478  0.00  0.00    +0.000 A 
ATOM     19  C   UNL     1      41.226  -5.711  16.466  0.00  0.00    +0.000 A 
ATOM     20  C   UNL     1      42.402  -6.416  16.202  0.00  0.00    +0.000 A 
ATOM     21  C   UNL     1      43.547  -6.164  16.952  0.00  0.00    +0.000 A 
ATOM     22  C   UNL     1      43.514  -5.225  17.991  0.00  0.00    +0.000 A 
ATOM     23  C   UNL     1      42.309  -4.542  18.256  0.00  0.00    +0.000 A 
BRANCH  22  24
ATOM     24  C   UNL     1      44.759  -4.886  18.766  0.00  0.00    +0.000 C 
ATOM     25  F   UNL     1      45.654  -5.907  18.849  0.00  0.00    +0.000 F 
ATOM     26  F   UNL     1      45.445  -3.838  18.220  0.00  0.00    +0.000 F 
ATOM     27  F   UNL     1      44.496  -4.516  20.052  0.00  0.00    +0.000 F 
ENDBRANCH  22  24
ENDBRANCH   2  18
BRANCH   4  28
ATOM     28  C   UNL     1      40.833  -2.234  15.412  0.00  0.00    +0.000 C 
BRANCH  28  29
ATOM     29  C   UNL     1      40.525  -2.869  14.061  0.00  0.00    +0.000 C 
ATOM     30  F   UNL     1      41.598  -2.943  13.244  0.00  0.00    +0.000 F 
ATOM     31  F   UNL     1      40.052  -4.133  14.214  0.00  0.00    +0.000 F 
ATOM     32  F   UNL     1      39.573  -2.171  13.395  0.00  0.00    +0.000 F 
ENDBRANCH  28  29
ENDBRANCH   4  28
TORSDOF 6
ENDMDL
MODEL 9
REMARK VINA RESULT:    -4.654     11.154     12.893
REMARK INTER + INTRA:          -7.020
REMARK INTER:                  -6.571
REMARK INTRA:                  -0.448
REMARK UNBOUND:                -0.733
REMARK  Name = 
REMARK  7 active torsions:
REMARK  status: ('A' for Active; 'I' for Inactive)
REMARK    1  A    between atoms: C_1  and  C_2
REMARK    2  A    between atoms: C_2  and  C_3
REMARK    3  A    between atoms: C_7  and  C_8
REMARK    4  A    between atoms: C_14  and  C_15
REMARK    5  A    between atoms: C_14  and  N_20
REMARK    6  A    between atoms: C_15  and  C_16
REMARK    7  A    between atoms: C_24  and  C_25
REMARK                            x       y       z     vdW  Elec       q    Type
REMARK                         _______ _______ _______ _____ _____    ______ ____
ROOT
ATOM      1  C   UNL     1      40.774  -1.963  16.197  0.00  0.00    +0.000 C 
ATOM      2  C   UNL     1      40.715  -3.182  15.283  0.00  0.00    +0.000 C 
ATOM      3  C   UNL     1      40.854  -2.915  13.801  0.00  0.00    +0.000 C 
ATOM      4  C   UNL     1      39.491  -3.318  14.314  0.00  0.00    +0.000 C 
ENDROOT
BRANCH   4   5
ATOM      5  N   UNL     1      38.419  -2.272  14.472  0.00  0.00    +0.000 N 
ATOM      6  C   UNL     1      38.162  -1.449  13.355  0.00  0.00    +0.000 A 
ATOM      7  C   UNL     1      37.130  -0.516  13.409  0.00  0.00    +0.000 A 
ATOM      8  C   UNL     1      36.824   0.223  12.262  0.00  0.00    +0.000 A 
ATOM      9  C   UNL     1      37.536   0.014  11.081  0.00  0.00    +0.000 A 
ATOM     10  C   UNL     1      38.546  -0.930  11.116  0.00  0.00    +0.000 A 
ATOM     11  N   UNL     1      38.859  -1.650  12.217  0.00  0.00    +0.000 NA
ATOM     12  H   UNL     1      38.419  -1.741  15.335  0.00  0.00    +0.000 HD
BRANCH   9  13
ATOM     13  C   UNL     1      37.192   0.770   9.857  0.00  0.00    +0.000 C 
ATOM     14  N   UNL     1      36.507   0.148   8.851  0.00  0.00    +0.000 N 
ATOM     15  O   UNL     1      37.515   1.950   9.734  0.00  0.00    +0.000 OA
ATOM     16  H   UNL     1      36.179  -0.806   8.856  0.00  0.00    +0.000 HD
ATOM     17  H   UNL     1      36.286   0.705   8.040  0.00  0.00    +0.000 HD
ENDBRANCH   9  13
ENDBRANCH   4   5
BRANCH   2  18
ATOM     18  C   UNL     1      41.452  -4.356  15.917  0.00  0.00    +0.000 A 
ATOM     19  C   UNL     1      41.661  -5.550  15.201  0.00  0.00    +0.000 A 
ATOM     20  C   UNL     1      42.597  -6.503  15.608  0.00  0.00    +0.000 A 
ATOM     21  C   UNL     1      43.354  -6.287  16.756  0.00  0.00    +0.000 A 
ATOM     22  C   UNL     1      43.160  -5.128  17.519  0.00  0.00    +0.000 A 
ATOM     23  C   UNL     1      42.192  -4.191  17.102  0.00  0.00    +0.000 A 
BRANCH  22  24
ATOM     24  C   UNL     1      44.018  -4.842  18.722  0.00  0.00    +0.000 C 
ATOM     25  F   UNL     1      45.129  -4.106  18.446  0.00  0.00    +0.000 F 
ATOM     26  F   UNL     1      43.347  -4.147  19.688  0.00  0.00    +0.000 F 
ATOM     27  F   UNL     1      44.465  -5.976  19.334  0.00  0.00    +0.000 F 
ENDBRANCH  22  24
ENDBRANCH   2  18
BRANCH   4  28
ATOM     28  C   UNL     1      38.970  -4.664  13.826  0.00  0.00    +0.000 C 
BRANCH  28  29
ATOM     29  C   UNL     1      37.957  -5.319  14.758  0.00  0.00    +0.000 C 
ATOM     30  F   UNL     1      38.142  -5.004  16.058  0.00  0.00    +0.000 F 
ATOM     31  F   UNL     1      36.691  -4.952  14.434  0.00  0.00    +0.000 F 
ATOM     32  F   UNL     1      38.010  -6.670  14.671  0.00  0.00    +0.000 F 
ENDBRANCH  28  29
ENDBRANCH   4  28
TORSDOF 6
ENDMDL
