MODEL 1
REMARK VINA RESULT:    -7.267      0.000      0.000
REMARK INTER + INTRA:         -11.628
REMARK INTER:                 -10.241
REMARK INTRA:                  -1.387
REMARK UNBOUND:                -1.387
REMARK  Name = 
REMARK  8 active torsions:
REMARK  status: ('A' for Active; 'I' for Inactive)
REMARK    1  A    between atoms: C_1  and  C_2
REMARK    2  A    between atoms: C_2  and  N_3
REMARK    3  A    between atoms: N_3  and  C_4
REMARK    4  A    between atoms: C_4  and  C_5
REMARK    5  A    between atoms: C_8  and  C_9
REMARK    6  A    between atoms: C_9  and  N_10
REMARK    7  A    between atoms: C_11  and  C_13
REMARK    8  A    between atoms: C_20  and  C_22
REMARK                            x       y       z     vdW  Elec       q    Type
REMARK                         _______ _______ _______ _____ _____    ______ ____
ROOT
ATOM      1  C   UNL     1      47.304   7.858  13.829  0.00  0.00    +0.000 C 
ENDROOT
BRANCH   1   2
ATOM      2  C   UNL     1      46.267   6.954  13.207  0.00  0.00    +0.000 A 
ATOM      3  C   UNL     1      46.219   5.591  13.537  0.00  0.00    +0.000 A 
ATOM      4  C   UNL     1      45.487   4.702  12.751  0.00  0.00    +0.000 A 
ATOM      5  C   UNL     1      44.790   5.171  11.631  0.00  0.00    +0.000 A 
ATOM      6  C   UNL     1      44.685   6.552  11.421  0.00  0.00    +0.000 A 
ATOM      7  C   UNL     1      45.425   7.439  12.201  0.00  0.00    +0.000 A 
BRANCH   5   8
ATOM      8  C   UNL     1      44.269   4.209  10.601  0.00  0.00    +0.000 C 
BRANCH   8   9
ATOM      9  N   UNL     1      45.248   3.840   9.619  0.00  0.00    +0.000 N 
ATOM     10  C   UNL     1      45.196   2.593   9.032  0.00  0.00    +0.000 C 
ATOM     11  O   UNL     1      44.348   1.766   9.353  0.00  0.00    +0.000 OA
ATOM     12  H   UNL     1      45.891   4.534   9.265  0.00  0.00    +0.000 HD
BRANCH  10  13
ATOM     13  C   UNL     1      46.198   2.333   8.018  0.00  0.00    +0.000 A 
ATOM     14  C   UNL     1      46.781   1.117   7.711  0.00  0.00    +0.000 A 
ATOM     15  N   UNL     1      47.728   1.138   6.703  0.00  0.00    +0.000 NA
ATOM     16  C   UNL     1      47.855   2.368   6.260  0.00  0.00    +0.000 A 
ATOM     17  S   UNL     1      46.858   3.549   7.002  0.00  0.00    +0.000 S 
ENDBRANCH  10  13
ENDBRANCH   8   9
ENDBRANCH   5   8
ENDBRANCH   1   2
BRANCH   1  18
ATOM     18  N   UNL     1      48.714   7.452  13.647  0.00  0.00    +0.000 N 
ATOM     19  C   UNL     1      49.669   7.446  14.680  0.00  0.00    +0.000 C 
ATOM     20  O   UNL     1      50.835   7.112  14.477  0.00  0.00    +0.000 OA
BRANCH  19  21
ATOM     21  C   UNL     1      49.271   7.795  16.044  0.00  0.00    +0.000 A 
ATOM     22  C   UNL     1      49.331   9.072  16.578  0.00  0.00    +0.000 A 
ATOM     23  S   UNL     1      48.669   9.179  18.148  0.00  0.00    +0.000 S 
ATOM     24  C   UNL     1      48.177   7.551  18.112  0.00  0.00    +0.000 A 
ATOM     25  N   UNL     1      47.451   7.009  19.124  0.00  0.00    +0.000 NA
ATOM     26  C   UNL     1      47.090   5.785  18.919  0.00  0.00    +0.000 A 
ATOM     27  N   UNL     1      47.425   5.042  17.815  0.00  0.00    +0.000 N 
ATOM     28  C   UNL     1      48.275   5.502  16.832  0.00  0.00    +0.000 A 
ATOM     29  O   UNL     1      48.750   4.745  15.994  0.00  0.00    +0.000 OA
ATOM     30  C   UNL     1      48.597   6.912  16.958  0.00  0.00    +0.000 A 
ATOM     31  H   UNL     1      47.170   4.067  17.752  0.00  0.00    +0.000 HD
ENDBRANCH  19  21
BRANCH  18  33
ATOM     32  C   UNL     1      49.456   8.097  11.353  0.00  0.00    +0.000 C 
ATOM     33  C   UNL     1      49.197   6.968  12.345  0.00  0.00    +0.000 C 
ENDBRANCH  18  33
ENDBRANCH   1  18
TORSDOF 7
ENDMDL
MODEL 2
REMARK VINA RESULT:    -7.120      2.281      2.985
REMARK INTER + INTRA:         -11.421
REMARK INTER:                 -10.137
REMARK INTRA:                  -1.283
REMARK UNBOUND:                -1.387
REMARK  Name = 
REMARK  8 active torsions:
REMARK  status: ('A' for Active; 'I' for Inactive)
REMARK    1  A    between atoms: C_1  and  C_2
REMARK    2  A    between atoms: C_2  and  N_3
REMARK    3  A    between atoms: N_3  and  C_4
REMARK    4  A    between atoms: C_4  and  C_5
REMARK    5  A    between atoms: C_8  and  C_9
REMARK    6  A    between atoms: C_9  and  N_10
REMARK    7  A    between atoms: C_11  and  C_13
REMARK    8  A    between atoms: C_20  and  C_22
REMARK                            x       y       z     vdW  Elec       q    Type
REMARK                         _______ _______ _______ _____ _____    ______ ____
ROOT
ATOM      1  C   UNL     1      48.731   6.338  14.383  0.00  0.00    +0.000 C 
ENDROOT
BRANCH   1   2
ATOM      2  C   UNL     1      47.464   6.177  13.577  0.00  0.00    +0.000 A 
ATOM      3  C   UNL     1      46.635   5.061  13.770  0.00  0.00    +0.000 A 
ATOM      4  C   UNL     1      45.650   4.747  12.833  0.00  0.00    +0.000 A 
ATOM      5  C   UNL     1      45.482   5.551  11.700  0.00  0.00    +0.000 A 
ATOM      6  C   UNL     1      46.179   6.763  11.614  0.00  0.00    +0.000 A 
ATOM      7  C   UNL     1      47.169   7.072  12.545  0.00  0.00    +0.000 A 
BRANCH   5   8
ATOM      8  C   UNL     1      44.665   5.065  10.536  0.00  0.00    +0.000 C 
BRANCH   8   9
ATOM      9  N   UNL     1      45.440   4.377   9.544  0.00  0.00    +0.000 N 
ATOM     10  C   UNL     1      45.160   3.059   9.246  0.00  0.00    +0.000 C 
ATOM     11  O   UNL     1      44.279   2.440   9.836  0.00  0.00    +0.000 OA
ATOM     12  H   UNL     1      46.098   4.890   8.975  0.00  0.00    +0.000 HD
BRANCH  10  13
ATOM     13  C   UNL     1      45.964   2.466   8.197  0.00  0.00    +0.000 A 
ATOM     14  C   UNL     1      46.302   1.133   8.055  0.00  0.00    +0.000 A 
ATOM     15  N   UNL     1      47.098   0.823   6.968  0.00  0.00    +0.000 NA
ATOM     16  C   UNL     1      47.358   1.925   6.300  0.00  0.00    +0.000 A 
ATOM     17  S   UNL     1      46.667   3.367   6.917  0.00  0.00    +0.000 S 
ENDBRANCH  10  13
ENDBRANCH   8   9
ENDBRANCH   5   8
ENDBRANCH   1   2
BRANCH   1  18
ATOM     18  N   UNL     1      48.648   7.239  15.552  0.00  0.00    +0.000 N 
ATOM     19  C   UNL     1      48.499   6.792  16.878  0.00  0.00    +0.000 C 
ATOM     20  O   UNL     1      48.422   7.582  17.818  0.00  0.00    +0.000 OA
BRANCH  19  21
ATOM     21  C   UNL     1      48.483   5.359  17.168  0.00  0.00    +0.000 A 
ATOM     22  C   UNL     1      47.352   4.561  17.126  0.00  0.00    +0.000 A 
ATOM     23  S   UNL     1      47.684   2.906  17.381  0.00  0.00    +0.000 S 
ATOM     24  C   UNL     1      49.360   3.192  17.437  0.00  0.00    +0.000 A 
ATOM     25  N   UNL     1      50.248   2.171  17.538  0.00  0.00    +0.000 NA
ATOM     26  C   UNL     1      51.486   2.541  17.494  0.00  0.00    +0.000 A 
ATOM     27  N   UNL     1      51.914   3.841  17.402  0.00  0.00    +0.000 N 
ATOM     28  C   UNL     1      51.053   4.917  17.440  0.00  0.00    +0.000 A 
ATOM     29  O   UNL     1      51.466   6.059  17.604  0.00  0.00    +0.000 OA
ATOM     30  C   UNL     1      49.653   4.542  17.358  0.00  0.00    +0.000 A 
ATOM     31  H   UNL     1      52.897   4.065  17.446  0.00  0.00    +0.000 HD
ENDBRANCH  19  21
BRANCH  18  33
ATOM     32  C   UNL     1      49.863   9.090  14.402  0.00  0.00    +0.000 C 
ATOM     33  C   UNL     1      48.773   8.695  15.392  0.00  0.00    +0.000 C 
ENDBRANCH  18  33
ENDBRANCH   1  18
TORSDOF 7
ENDMDL
MODEL 3
REMARK VINA RESULT:    -7.094      3.603      8.392
REMARK INTER + INTRA:         -11.384
REMARK INTER:                 -10.073
REMARK INTRA:                  -1.311
REMARK UNBOUND:                -1.387
REMARK  Name = 
REMARK  8 active torsions:
REMARK  status: ('A' for Active; 'I' for Inactive)
REMARK    1  A    between atoms: C_1  and  C_2
REMARK    2  A    between atoms: C_2  and  N_3
REMARK    3  A    between atoms: N_3  and  C_4
REMARK    4  A    between atoms: C_4  and  C_5
REMARK    5  A    between atoms: C_8  and  C_9
REMARK    6  A    between atoms: C_9  and  N_10
REMARK    7  A    between atoms: C_11  and  C_13
REMARK    8  A    between atoms: C_20  and  C_22
REMARK                            x       y       z     vdW  Elec       q    Type
REMARK                         _______ _______ _______ _____ _____    ______ ____
ROOT
ATOM      1  C   UNL     1      47.532   5.966  12.889  0.00  0.00    +0.000 C 
ENDROOT
BRANCH   1   2
ATOM      2  C   UNL     1      47.522   5.526  14.333  0.00  0.00    +0.000 A 
ATOM      3  C   UNL     1      48.333   6.170  15.281  0.00  0.00    +0.000 A 
ATOM      4  C   UNL     1      48.563   5.583  16.524  0.00  0.00    +0.000 A 
ATOM      5  C   UNL     1      47.978   4.349  16.834  0.00  0.00    +0.000 A 
ATOM      6  C   UNL     1      47.022   3.810  15.964  0.00  0.00    +0.000 A 
ATOM      7  C   UNL     1      46.798   4.392  14.717  0.00  0.00    +0.000 A 
BRANCH   5   8
ATOM      8  C   UNL     1      48.458   3.554  18.014  0.00  0.00    +0.000 C 
BRANCH   8   9
ATOM      9  N   UNL     1      49.885   3.568  18.169  0.00  0.00    +0.000 N 
ATOM     10  C   UNL     1      50.657   2.638  17.505  0.00  0.00    +0.000 C 
ATOM     11  O   UNL     1      50.152   1.766  16.804  0.00  0.00    +0.000 OA
ATOM     12  H   UNL     1      50.330   4.333  18.655  0.00  0.00    +0.000 HD
BRANCH  10  13
ATOM     13  C   UNL     1      52.089   2.764  17.686  0.00  0.00    +0.000 A 
ATOM     14  C   UNL     1      52.815   3.934  17.812  0.00  0.00    +0.000 A 
ATOM     15  N   UNL     1      54.182   3.784  17.962  0.00  0.00    +0.000 NA
ATOM     16  C   UNL     1      54.477   2.504  17.946  0.00  0.00    +0.000 A 
ATOM     17  S   UNL     1      53.158   1.424  17.765  0.00  0.00    +0.000 S 
ENDBRANCH  10  13
ENDBRANCH   8   9
ENDBRANCH   5   8
ENDBRANCH   1   2
BRANCH   1  18
ATOM     18  N   UNL     1      46.557   7.015  12.522  0.00  0.00    +0.000 N 
ATOM     19  C   UNL     1      45.292   6.751  11.966  0.00  0.00    +0.000 C 
ATOM     20  O   UNL     1      44.519   7.659  11.665  0.00  0.00    +0.000 OA
BRANCH  19  21
ATOM     21  C   UNL     1      44.849   5.369  11.783  0.00  0.00    +0.000 A 
ATOM     22  C   UNL     1      44.112   4.650  12.709  0.00  0.00    +0.000 A 
ATOM     23  S   UNL     1      43.635   3.111  12.144  0.00  0.00    +0.000 S 
ATOM     24  C   UNL     1      44.298   3.408  10.606  0.00  0.00    +0.000 A 
ATOM     25  N   UNL     1      44.152   2.519   9.590  0.00  0.00    +0.000 NA
ATOM     26  C   UNL     1      44.647   2.917   8.464  0.00  0.00    +0.000 A 
ATOM     27  N   UNL     1      45.309   4.104   8.273  0.00  0.00    +0.000 N 
ATOM     28  C   UNL     1      45.604   4.971   9.303  0.00  0.00    +0.000 A 
ATOM     29  O   UNL     1      46.400   5.891   9.155  0.00  0.00    +0.000 OA
ATOM     30  C   UNL     1      44.956   4.624  10.556  0.00  0.00    +0.000 A 
ATOM     31  H   UNL     1      45.734   4.321   7.384  0.00  0.00    +0.000 HD
ENDBRANCH  19  21
BRANCH  18  33
ATOM     32  C   UNL     1      48.138   8.902  12.111  0.00  0.00    +0.000 C 
ATOM     33  C   UNL     1      46.847   8.435  12.773  0.00  0.00    +0.000 C 
ENDBRANCH  18  33
ENDBRANCH   1  18
TORSDOF 7
ENDMDL
MODEL 4
REMARK VINA RESULT:    -6.691      2.061      2.353
REMARK INTER + INTRA:         -10.816
REMARK INTER:                  -9.707
REMARK INTRA:                  -1.110
REMARK UNBOUND:                -1.387
REMARK  Name = 
REMARK  8 active torsions:
REMARK  status: ('A' for Active; 'I' for Inactive)
REMARK    1  A    between atoms: C_1  and  C_2
REMARK    2  A    between atoms: C_2  and  N_3
REMARK    3  A    between atoms: N_3  and  C_4
REMARK    4  A    between atoms: C_4  and  C_5
REMARK    5  A    between atoms: C_8  and  C_9
REMARK    6  A    between atoms: C_9  and  N_10
REMARK    7  A    between atoms: C_11  and  C_13
REMARK    8  A    between atoms: C_20  and  C_22
REMARK                            x       y       z     vdW  Elec       q    Type
REMARK                         _______ _______ _______ _____ _____    ______ ____
ROOT
ATOM      1  C   UNL     1      48.618   6.719  13.637  0.00  0.00    +0.000 C 
ENDROOT
BRANCH   1   2
ATOM      2  C   UNL     1      47.329   6.094  13.161  0.00  0.00    +0.000 A 
ATOM      3  C   UNL     1      46.755   5.022  13.863  0.00  0.00    +0.000 A 
ATOM      4  C   UNL     1      45.756   4.249  13.272  0.00  0.00    +0.000 A 
ATOM      5  C   UNL     1      45.318   4.545  11.975  0.00  0.00    +0.000 A 
ATOM      6  C   UNL     1      45.755   5.725  11.361  0.00  0.00    +0.000 A 
ATOM      7  C   UNL     1      46.760   6.493  11.948  0.00  0.00    +0.000 A 
BRANCH   5   8
ATOM      8  C   UNL     1      44.493   3.553  11.206  0.00  0.00    +0.000 C 
BRANCH   8   9
ATOM      9  N   UNL     1      45.243   2.833  10.217  0.00  0.00    +0.000 N 
ATOM     10  C   UNL     1      45.172   3.209   8.892  0.00  0.00    +0.000 C 
ATOM     11  O   UNL     1      44.451   4.132   8.524  0.00  0.00    +0.000 OA
ATOM     12  H   UNL     1      45.920   2.140  10.506  0.00  0.00    +0.000 HD
BRANCH  10  13
ATOM     13  C   UNL     1      46.003   2.453   7.977  0.00  0.00    +0.000 A 
ATOM     14  C   UNL     1      46.275   1.098   8.023  0.00  0.00    +0.000 A 
ATOM     15  N   UNL     1      47.115   0.617   7.035  0.00  0.00    +0.000 NA
ATOM     16  C   UNL     1      47.473   1.612   6.254  0.00  0.00    +0.000 A 
ATOM     17  S   UNL     1      46.826   3.151   6.643  0.00  0.00    +0.000 S 
ENDBRANCH  10  13
ENDBRANCH   8   9
ENDBRANCH   5   8
ENDBRANCH   1   2
BRANCH   1  18
ATOM     18  N   UNL     1      48.484   7.951  14.443  0.00  0.00    +0.000 N 
ATOM     19  C   UNL     1      49.355   8.302  15.491  0.00  0.00    +0.000 C 
ATOM     20  O   UNL     1      49.196   9.333  16.142  0.00  0.00    +0.000 OA
BRANCH  19  21
ATOM     21  C   UNL     1      50.510   7.457  15.794  0.00  0.00    +0.000 A 
ATOM     22  C   UNL     1      51.818   7.761  15.451  0.00  0.00    +0.000 A 
ATOM     23  S   UNL     1      52.953   6.643  16.063  0.00  0.00    +0.000 S 
ATOM     24  C   UNL     1      51.744   5.788  16.902  0.00  0.00    +0.000 A 
ATOM     25  N   UNL     1      52.052   4.751  17.722  0.00  0.00    +0.000 NA
ATOM     26  C   UNL     1      51.035   4.250  18.344  0.00  0.00    +0.000 A 
ATOM     27  N   UNL     1      49.737   4.665  18.188  0.00  0.00    +0.000 N 
ATOM     28  C   UNL     1      49.360   5.617  17.265  0.00  0.00    +0.000 A 
ATOM     29  O   UNL     1      48.183   5.792  16.973  0.00  0.00    +0.000 OA
ATOM     30  C   UNL     1      50.483   6.293  16.639  0.00  0.00    +0.000 A 
ATOM     31  H   UNL     1      48.981   4.182  18.652  0.00  0.00    +0.000 HD
ENDBRANCH  19  21
BRANCH  18  33
ATOM     32  C   UNL     1      47.809   9.889  13.022  0.00  0.00    +0.000 C 
ATOM     33  C   UNL     1      47.430   8.934  14.149  0.00  0.00    +0.000 C 
ENDBRANCH  18  33
ENDBRANCH   1  18
TORSDOF 7
ENDMDL
MODEL 5
REMARK VINA RESULT:    -6.623      3.118      9.271
REMARK INTER + INTRA:         -10.721
REMARK INTER:                  -9.342
REMARK INTRA:                  -1.379
REMARK UNBOUND:                -1.387
REMARK  Name = 
REMARK  8 active torsions:
REMARK  status: ('A' for Active; 'I' for Inactive)
REMARK    1  A    between atoms: C_1  and  C_2
REMARK    2  A    between atoms: C_2  and  N_3
REMARK    3  A    between atoms: N_3  and  C_4
REMARK    4  A    between atoms: C_4  and  C_5
REMARK    5  A    between atoms: C_8  and  C_9
REMARK    6  A    between atoms: C_9  and  N_10
REMARK    7  A    between atoms: C_11  and  C_13
REMARK    8  A    between atoms: C_20  and  C_22
REMARK                            x       y       z     vdW  Elec       q    Type
REMARK                         _______ _______ _______ _____ _____    ______ ____
ROOT
ATOM      1  C   UNL     1      47.335   6.071  12.511  0.00  0.00    +0.000 C 
ENDROOT
BRANCH   1   2
ATOM      2  C   UNL     1      47.460   5.739  13.979  0.00  0.00    +0.000 A 
ATOM      3  C   UNL     1      48.337   6.463  14.802  0.00  0.00    +0.000 A 
ATOM      4  C   UNL     1      48.687   5.972  16.059  0.00  0.00    +0.000 A 
ATOM      5  C   UNL     1      48.158   4.756  16.508  0.00  0.00    +0.000 A 
ATOM      6  C   UNL     1      47.141   4.141  15.767  0.00  0.00    +0.000 A 
ATOM      7  C   UNL     1      46.797   4.626  14.506  0.00  0.00    +0.000 A 
BRANCH   5   8
ATOM      8  C   UNL     1      48.756   4.058  17.695  0.00  0.00    +0.000 C 
BRANCH   8   9
ATOM      9  N   UNL     1      49.837   4.783  18.299  0.00  0.00    +0.000 N 
ATOM     10  C   UNL     1      49.884   4.933  19.669  0.00  0.00    +0.000 C 
ATOM     11  O   UNL     1      48.999   4.488  20.394  0.00  0.00    +0.000 OA
ATOM     12  H   UNL     1      50.627   5.068  17.737  0.00  0.00    +0.000 HD
BRANCH  10  13
ATOM     13  C   UNL     1      51.039   5.638  20.186  0.00  0.00    +0.000 A 
ATOM     14  C   UNL     1      52.330   5.157  20.301  0.00  0.00    +0.000 A 
ATOM     15  N   UNL     1      53.255   6.030  20.843  0.00  0.00    +0.000 NA
ATOM     16  C   UNL     1      52.655   7.162  21.137  0.00  0.00    +0.000 A 
ATOM     17  S   UNL     1      50.981   7.249  20.776  0.00  0.00    +0.000 S 
ENDBRANCH  10  13
ENDBRANCH   8   9
ENDBRANCH   5   8
ENDBRANCH   1   2
BRANCH   1  18
ATOM     18  N   UNL     1      46.290   7.054  12.154  0.00  0.00    +0.000 N 
ATOM     19  C   UNL     1      45.020   6.706  11.660  0.00  0.00    +0.000 C 
ATOM     20  O   UNL     1      44.187   7.561  11.364  0.00  0.00    +0.000 OA
BRANCH  19  21
ATOM     21  C   UNL     1      44.647   5.297  11.535  0.00  0.00    +0.000 A 
ATOM     22  C   UNL     1      43.891   4.599  12.463  0.00  0.00    +0.000 A 
ATOM     23  S   UNL     1      43.511   3.010  11.966  0.00  0.00    +0.000 S 
ATOM     24  C   UNL     1      44.243   3.249  10.449  0.00  0.00    +0.000 A 
ATOM     25  N   UNL     1      44.191   2.298   9.482  0.00  0.00    +0.000 NA
ATOM     26  C   UNL     1      44.728   2.654   8.361  0.00  0.00    +0.000 A 
ATOM     27  N   UNL     1      45.349   3.857   8.135  0.00  0.00    +0.000 N 
ATOM     28  C   UNL     1      45.551   4.793   9.126  0.00  0.00    +0.000 A 
ATOM     29  O   UNL     1      46.314   5.738   8.965  0.00  0.00    +0.000 OA
ATOM     30  C   UNL     1      44.851   4.489  10.362  0.00  0.00    +0.000 A 
ATOM     31  H   UNL     1      45.812   4.042   7.257  0.00  0.00    +0.000 HD
ENDBRANCH  19  21
BRANCH  18  33
ATOM     32  C   UNL     1      47.941   8.922  12.039  0.00  0.00    +0.000 C 
ATOM     33  C   UNL     1      46.511   8.495  12.351  0.00  0.00    +0.000 C 
ENDBRANCH  18  33
ENDBRANCH   1  18
TORSDOF 7
ENDMDL
MODEL 6
REMARK VINA RESULT:    -6.576      2.401      3.848
REMARK INTER + INTRA:         -10.654
REMARK INTER:                  -9.136
REMARK INTRA:                  -1.518
REMARK UNBOUND:                -1.387
REMARK  Name = 
REMARK  8 active torsions:
REMARK  status: ('A' for Active; 'I' for Inactive)
REMARK    1  A    between atoms: C_1  and  C_2
REMARK    2  A    between atoms: C_2  and  N_3
REMARK    3  A    between atoms: N_3  and  C_4
REMARK    4  A    between atoms: C_4  and  C_5
REMARK    5  A    between atoms: C_8  and  C_9
REMARK    6  A    between atoms: C_9  and  N_10
REMARK    7  A    between atoms: C_11  and  C_13
REMARK    8  A    between atoms: C_20  and  C_22
REMARK                            x       y       z     vdW  Elec       q    Type
REMARK                         _______ _______ _______ _____ _____    ______ ____
ROOT
ATOM      1  C   UNL     1      49.377   8.260  15.960  0.00  0.00    +0.000 C 
ENDROOT
BRANCH   1   2
ATOM      2  C   UNL     1      48.523   7.941  14.757  0.00  0.00    +0.000 A 
ATOM      3  C   UNL     1      47.666   8.912  14.214  0.00  0.00    +0.000 A 
ATOM      4  C   UNL     1      46.663   8.542  13.318  0.00  0.00    +0.000 A 
ATOM      5  C   UNL     1      46.513   7.199  12.953  0.00  0.00    +0.000 A 
ATOM      6  C   UNL     1      47.486   6.272  13.345  0.00  0.00    +0.000 A 
ATOM      7  C   UNL     1      48.484   6.639  14.247  0.00  0.00    +0.000 A 
BRANCH   5   8
ATOM      8  C   UNL     1      45.264   6.734  12.258  0.00  0.00    +0.000 C 
BRANCH   8   9
ATOM      9  N   UNL     1      45.481   5.622  11.379  0.00  0.00    +0.000 N 
ATOM     10  C   UNL     1      44.410   5.036  10.736  0.00  0.00    +0.000 C 
ATOM     11  O   UNL     1      43.260   5.420  10.922  0.00  0.00    +0.000 OA
ATOM     12  H   UNL     1      46.422   5.354  11.131  0.00  0.00    +0.000 HD
BRANCH  10  13
ATOM     13  C   UNL     1      44.736   3.951   9.832  0.00  0.00    +0.000 A 
ATOM     14  C   UNL     1      44.398   2.618   9.971  0.00  0.00    +0.000 A 
ATOM     15  N   UNL     1      44.845   1.773   8.971  0.00  0.00    +0.000 NA
ATOM     16  C   UNL     1      45.518   2.475   8.087  0.00  0.00    +0.000 A 
ATOM     17  S   UNL     1      45.644   4.158   8.391  0.00  0.00    +0.000 S 
ENDBRANCH  10  13
ENDBRANCH   8   9
ENDBRANCH   5   8
ENDBRANCH   1   2
BRANCH   1  18
ATOM     18  N   UNL     1      48.714   8.148  17.277  0.00  0.00    +0.000 N 
ATOM     19  C   UNL     1      48.905   7.073  18.164  0.00  0.00    +0.000 C 
ATOM     20  O   UNL     1      48.320   7.018  19.245  0.00  0.00    +0.000 OA
BRANCH  19  21
ATOM     21  C   UNL     1      49.855   6.012  17.831  0.00  0.00    +0.000 A 
ATOM     22  C   UNL     1      51.218   6.073  18.072  0.00  0.00    +0.000 A 
ATOM     23  S   UNL     1      52.036   4.623  17.694  0.00  0.00    +0.000 S 
ATOM     24  C   UNL     1      50.578   3.834  17.310  0.00  0.00    +0.000 A 
ATOM     25  N   UNL     1      50.550   2.514  16.994  0.00  0.00    +0.000 NA
ATOM     26  C   UNL     1      49.363   2.042  16.799  0.00  0.00    +0.000 A 
ATOM     27  N   UNL     1      48.207   2.779  16.850  0.00  0.00    +0.000 N 
ATOM     28  C   UNL     1      48.197   4.146  17.027  0.00  0.00    +0.000 A 
ATOM     29  O   UNL     1      47.186   4.809  16.825  0.00  0.00    +0.000 OA
ATOM     30  C   UNL     1      49.495   4.694  17.378  0.00  0.00    +0.000 A 
ATOM     31  H   UNL     1      47.318   2.362  16.616  0.00  0.00    +0.000 HD
ENDBRANCH  19  21
BRANCH  18  33
ATOM     32  C   UNL     1      48.363  10.611  17.468  0.00  0.00    +0.000 C 
ATOM     33  C   UNL     1      47.829   9.215  17.768  0.00  0.00    +0.000 C 
ENDBRANCH  18  33
ENDBRANCH   1  18
TORSDOF 7
ENDMDL
MODEL 7
REMARK VINA RESULT:    -6.343      3.482      4.977
REMARK INTER + INTRA:         -10.326
REMARK INTER:                  -8.850
REMARK INTRA:                  -1.476
REMARK UNBOUND:                -1.387
REMARK  Name = 
REMARK  8 active torsions:
REMARK  status: ('A' for Active; 'I' for Inactive)
REMARK    1  A    between atoms: C_1  and  C_2
REMARK    2  A    between atoms: C_2  and  N_3
REMARK    3  A    between atoms: N_3  and  C_4
REMARK    4  A    between atoms: C_4  and  C_5
REMARK    5  A    between atoms: C_8  and  C_9
REMARK    6  A    between atoms: C_9  and  N_10
REMARK    7  A    between atoms: C_11  and  C_13
REMARK    8  A    between atoms: C_20  and  C_22
REMARK                            x       y       z     vdW  Elec       q    Type
REMARK                         _______ _______ _______ _____ _____    ______ ____
ROOT
ATOM      1  C   UNL     1      50.615   7.068  15.726  0.00  0.00    +0.000 C 
ENDROOT
BRANCH   1   2
ATOM      2  C   UNL     1      49.636   7.628  14.723  0.00  0.00    +0.000 A 
ATOM      3  C   UNL     1      48.502   8.335  15.152  0.00  0.00    +0.000 A 
ATOM      4  C   UNL     1      47.450   8.579  14.269  0.00  0.00    +0.000 A 
ATOM      5  C   UNL     1      47.527   8.124  12.947  0.00  0.00    +0.000 A 
ATOM      6  C   UNL     1      48.735   7.593  12.478  0.00  0.00    +0.000 A 
ATOM      7  C   UNL     1      49.783   7.341  13.362  0.00  0.00    +0.000 A 
BRANCH   5   8
ATOM      8  C   UNL     1      46.300   8.088  12.082  0.00  0.00    +0.000 C 
BRANCH   8   9
ATOM      9  N   UNL     1      45.487   6.924  12.293  0.00  0.00    +0.000 N 
ATOM     10  C   UNL     1      45.503   5.899  11.371  0.00  0.00    +0.000 C 
ATOM     11  O   UNL     1      46.173   5.968  10.345  0.00  0.00    +0.000 OA
ATOM     12  H   UNL     1      45.009   6.799  13.174  0.00  0.00    +0.000 HD
BRANCH  10  13
ATOM     13  C   UNL     1      44.687   4.747  11.697  0.00  0.00    +0.000 A 
ATOM     14  C   UNL     1      44.286   4.336  12.955  0.00  0.00    +0.000 A 
ATOM     15  N   UNL     1      43.518   3.187  12.999  0.00  0.00    +0.000 NA
ATOM     16  C   UNL     1      43.347   2.738  11.776  0.00  0.00    +0.000 A 
ATOM     17  S   UNL     1      44.074   3.656  10.523  0.00  0.00    +0.000 S 
ENDBRANCH  10  13
ENDBRANCH   8   9
ENDBRANCH   5   8
ENDBRANCH   1   2
BRANCH   1  18
ATOM     18  N   UNL     1      50.357   7.402  17.143  0.00  0.00    +0.000 N 
ATOM     19  C   UNL     1      49.654   6.567  18.031  0.00  0.00    +0.000 C 
ATOM     20  O   UNL     1      49.454   6.894  19.200  0.00  0.00    +0.000 OA
BRANCH  19  21
ATOM     21  C   UNL     1      49.188   5.255  17.585  0.00  0.00    +0.000 A 
ATOM     22  C   UNL     1      47.993   5.029  16.922  0.00  0.00    +0.000 A 
ATOM     23  S   UNL     1      47.798   3.410  16.414  0.00  0.00    +0.000 S 
ATOM     24  C   UNL     1      49.355   2.993  16.959  0.00  0.00    +0.000 A 
ATOM     25  N   UNL     1      49.870   1.755  16.744  0.00  0.00    +0.000 NA
ATOM     26  C   UNL     1      51.089   1.613  17.151  0.00  0.00    +0.000 A 
ATOM     27  N   UNL     1      51.821   2.580  17.791  0.00  0.00    +0.000 N 
ATOM     28  C   UNL     1      51.294   3.800  18.156  0.00  0.00    +0.000 A 
ATOM     29  O   UNL     1      51.881   4.543  18.934  0.00  0.00    +0.000 OA
ATOM     30  C   UNL     1      49.973   4.049  17.605  0.00  0.00    +0.000 A 
ATOM     31  H   UNL     1      52.744   2.378  18.148  0.00  0.00    +0.000 HD
ENDBRANCH  19  21
BRANCH  18  33
ATOM     32  C   UNL     1      52.382   8.579  18.005  0.00  0.00    +0.000 C 
ATOM     33  C   UNL     1      50.883   8.642  17.733  0.00  0.00    +0.000 C 
ENDBRANCH  18  33
ENDBRANCH   1  18
TORSDOF 7
ENDMDL
MODEL 8
REMARK VINA RESULT:    -6.173      3.996      7.574
REMARK INTER + INTRA:         -10.086
REMARK INTER:                  -9.060
REMARK INTRA:                  -1.026
REMARK UNBOUND:                -1.387
REMARK  Name = 
REMARK  8 active torsions:
REMARK  status: ('A' for Active; 'I' for Inactive)
REMARK    1  A    between atoms: C_1  and  C_2
REMARK    2  A    between atoms: C_2  and  N_3
REMARK    3  A    between atoms: N_3  and  C_4
REMARK    4  A    between atoms: C_4  and  C_5
REMARK    5  A    between atoms: C_8  and  C_9
REMARK    6  A    between atoms: C_9  and  N_10
REMARK    7  A    between atoms: C_11  and  C_13
REMARK    8  A    between atoms: C_20  and  C_22
REMARK                            x       y       z     vdW  Elec       q    Type
REMARK                         _______ _______ _______ _____ _____    ______ ____
ROOT
ATOM      1  C   UNL     1      46.210   6.410  12.920  0.00  0.00    +0.000 C 
ENDROOT
BRANCH   1   2
ATOM      2  C   UNL     1      47.528   7.119  12.720  0.00  0.00    +0.000 A 
ATOM      3  C   UNL     1      47.930   7.527  11.438  0.00  0.00    +0.000 A 
ATOM      4  C   UNL     1      49.255   7.892  11.201  0.00  0.00    +0.000 A 
ATOM      5  C   UNL     1      50.187   7.859  12.244  0.00  0.00    +0.000 A 
ATOM      6  C   UNL     1      49.739   7.639  13.553  0.00  0.00    +0.000 A 
ATOM      7  C   UNL     1      48.417   7.265  13.789  0.00  0.00    +0.000 A 
BRANCH   5   8
ATOM      8  C   UNL     1      51.659   7.933  11.952  0.00  0.00    +0.000 C 
BRANCH   8   9
ATOM      9  N   UNL     1      52.066   7.098  10.859  0.00  0.00    +0.000 N 
ATOM     10  C   UNL     1      52.504   7.671   9.683  0.00  0.00    +0.000 C 
ATOM     11  O   UNL     1      52.524   8.888   9.530  0.00  0.00    +0.000 OA
ATOM     12  H   UNL     1      52.156   6.101  10.995  0.00  0.00    +0.000 HD
BRANCH  10  13
ATOM     13  C   UNL     1      52.939   6.745   8.656  0.00  0.00    +0.000 A 
ATOM     14  C   UNL     1      52.414   6.601   7.386  0.00  0.00    +0.000 A 
ATOM     15  N   UNL     1      53.001   5.629   6.596  0.00  0.00    +0.000 NA
ATOM     16  C   UNL     1      53.962   5.046   7.277  0.00  0.00    +0.000 A 
ATOM     17  S   UNL     1      54.221   5.625   8.870  0.00  0.00    +0.000 S 
ENDBRANCH  10  13
ENDBRANCH   8   9
ENDBRANCH   5   8
ENDBRANCH   1   2
BRANCH   1  18
ATOM     18  N   UNL     1      45.015   7.092  12.380  0.00  0.00    +0.000 N 
ATOM     19  C   UNL     1      43.985   6.436  11.682  0.00  0.00    +0.000 C 
ATOM     20  O   UNL     1      43.015   7.050  11.240  0.00  0.00    +0.000 OA
BRANCH  19  21
ATOM     21  C   UNL     1      44.027   4.984  11.513  0.00  0.00    +0.000 A 
ATOM     22  C   UNL     1      43.344   4.079  12.310  0.00  0.00    +0.000 A 
ATOM     23  S   UNL     1      43.489   2.465  11.774  0.00  0.00    +0.000 S 
ATOM     24  C   UNL     1      44.369   2.941  10.398  0.00  0.00    +0.000 A 
ATOM     25  N   UNL     1      44.732   2.043   9.446  0.00  0.00    +0.000 NA
ATOM     26  C   UNL     1      45.330   2.567   8.427  0.00  0.00    +0.000 A 
ATOM     27  N   UNL     1      45.636   3.898   8.294  0.00  0.00    +0.000 N 
ATOM     28  C   UNL     1      45.415   4.820   9.294  0.00  0.00    +0.000 A 
ATOM     29  O   UNL     1      45.913   5.939   9.252  0.00  0.00    +0.000 OA
ATOM     30  C   UNL     1      44.629   4.300  10.399  0.00  0.00    +0.000 A 
ATOM     31  H   UNL     1      46.170   4.229   7.504  0.00  0.00    +0.000 HD
ENDBRANCH  19  21
BRANCH  18  33
ATOM     32  C   UNL     1      44.951   9.347  11.314  0.00  0.00    +0.000 C 
ATOM     33  C   UNL     1      44.808   8.532  12.594  0.00  0.00    +0.000 C 
ENDBRANCH  18  33
ENDBRANCH   1  18
TORSDOF 7
ENDMDL
MODEL 9
REMARK VINA RESULT:    -5.806      1.605      2.142
REMARK INTER + INTRA:          -9.569
REMARK INTER:                  -8.107
REMARK INTRA:                  -1.462
REMARK UNBOUND:                -1.387
REMARK  Name = 
REMARK  8 active torsions:
REMARK  status: ('A' for Active; 'I' for Inactive)
REMARK    1  A    between atoms: C_1  and  C_2
REMARK    2  A    between atoms: C_2  and  N_3
REMARK    3  A    between atoms: N_3  and  C_4
REMARK    4  A    between atoms: C_4  and  C_5
REMARK    5  A    between atoms: C_8  and  C_9
REMARK    6  A    between atoms: C_9  and  N_10
REMARK    7  A    between atoms: C_11  and  C_13
REMARK    8  A    between atoms: C_20  and  C_22
REMARK                            x       y       z     vdW  Elec       q    Type
REMARK                         _______ _______ _______ _____ _____    ______ ____
ROOT
ATOM      1  C   UNL     1      47.860   9.161  14.860  0.00  0.00    +0.000 C 
ENDROOT
BRANCH   1   2
ATOM      2  C   UNL     1      47.291   8.435  13.664  0.00  0.00    +0.000 A 
ATOM      3  C   UNL     1      46.433   9.096  12.771  0.00  0.00    +0.000 A 
ATOM      4  C   UNL     1      45.668   8.367  11.861  0.00  0.00    +0.000 A 
ATOM      5  C   UNL     1      45.760   6.970  11.832  0.00  0.00    +0.000 A 
ATOM      6  C   UNL     1      46.754   6.336  12.588  0.00  0.00    +0.000 A 
ATOM      7  C   UNL     1      47.512   7.064  13.504  0.00  0.00    +0.000 A 
BRANCH   5   8
ATOM      8  C   UNL     1      44.731   6.155  11.102  0.00  0.00    +0.000 C 
BRANCH   8   9
ATOM      9  N   UNL     1      45.258   5.455   9.966  0.00  0.00    +0.000 N 
ATOM     10  C   UNL     1      45.198   4.077   9.919  0.00  0.00    +0.000 C 
ATOM     11  O   UNL     1      44.733   3.423  10.847  0.00  0.00    +0.000 OA
ATOM     12  H   UNL     1      45.551   5.971   9.149  0.00  0.00    +0.000 HD
BRANCH  10  13
ATOM     13  C   UNL     1      45.713   3.466   8.711  0.00  0.00    +0.000 A 
ATOM     14  C   UNL     1      46.189   4.112   7.585  0.00  0.00    +0.000 A 
ATOM     15  N   UNL     1      46.613   3.295   6.553  0.00  0.00    +0.000 NA
ATOM     16  C   UNL     1      46.450   2.040   6.905  0.00  0.00    +0.000 A 
ATOM     17  S   UNL     1      45.803   1.769   8.470  0.00  0.00    +0.000 S 
ENDBRANCH  10  13
ENDBRANCH   8   9
ENDBRANCH   5   8
ENDBRANCH   1   2
BRANCH   1  18
ATOM     18  N   UNL     1      49.331   9.139  14.994  0.00  0.00    +0.000 N 
ATOM     19  C   UNL     1      50.006   8.822  16.188  0.00  0.00    +0.000 C 
ATOM     20  O   UNL     1      51.235   8.829  16.254  0.00  0.00    +0.000 OA
BRANCH  19  21
ATOM     21  C   UNL     1      49.246   8.425  17.372  0.00  0.00    +0.000 A 
ATOM     22  C   UNL     1      48.814   9.298  18.358  0.00  0.00    +0.000 A 
ATOM     23  S   UNL     1      47.835   8.549  19.540  0.00  0.00    +0.000 S 
ATOM     24  C   UNL     1      47.862   7.067  18.705  0.00  0.00    +0.000 A 
ATOM     25  N   UNL     1      47.132   6.004  19.129  0.00  0.00    +0.000 NA
ATOM     26  C   UNL     1      47.198   4.973  18.352  0.00  0.00    +0.000 A 
ATOM     27  N   UNL     1      47.961   4.896  17.214  0.00  0.00    +0.000 N 
ATOM     28  C   UNL     1      48.825   5.896  16.822  0.00  0.00    +0.000 A 
ATOM     29  O   UNL     1      49.667   5.708  15.952  0.00  0.00    +0.000 OA
ATOM     30  C   UNL     1      48.684   7.119  17.594  0.00  0.00    +0.000 A 
ATOM     31  H   UNL     1      48.023   4.035  16.691  0.00  0.00    +0.000 HD
ENDBRANCH  19  21
BRANCH  18  33
ATOM     32  C   UNL     1      50.050  10.823  13.299  0.00  0.00    +0.000 C 
ATOM     33  C   UNL     1      50.199   9.404  13.837  0.00  0.00    +0.000 C 
ENDBRANCH  18  33
ENDBRANCH   1  18
TORSDOF 7
ENDMDL
