MODEL 1
REMARK VINA RESULT:    -6.918      0.000      0.000
REMARK INTER + INTRA:         -11.717
REMARK INTER:                 -10.356
REMARK INTRA:                  -1.360
REMARK UNBOUND:                -1.360
REMARK  Name = 
REMARK  9 active torsions:
REMARK  status: ('A' for Active; 'I' for Inactive)
REMARK    1  A    between atoms: C_2  and  C_3
REMARK    2  A    between atoms: C_7  and  C_8
REMARK    3  A    between atoms: N_10  and  C_11
REMARK    4  A    between atoms: C_11  and  C_12
REMARK    5  A    between atoms: C_15  and  C_16
REMARK    6  A    between atoms: C_16  and  O_17
REMARK    7  A    between atoms: C_16  and  C_18
REMARK    8  A    between atoms: C_18  and  N_19
REMARK    9  A    between atoms: C_20  and  C_22
REMARK                            x       y       z     vdW  Elec       q    Type
REMARK                         _______ _______ _______ _____ _____    ______ ____
ROOT
ATOM      1  C   UNL     1      48.280   5.930  15.881  0.00  0.00    +0.000 A 
ATOM      2  C   UNL     1      48.857   6.844  16.772  0.00  0.00    +0.000 A 
ATOM      3  C   UNL     1      49.010   6.521  18.129  0.00  0.00    +0.000 A 
ATOM      4  C   UNL     1      48.607   5.269  18.622  0.00  0.00    +0.000 A 
ATOM      5  C   UNL     1      48.049   4.355  17.715  0.00  0.00    +0.000 A 
ATOM      6  C   UNL     1      47.903   4.674  16.363  0.00  0.00    +0.000 A 
ENDROOT
BRANCH   1   7
ATOM      7  C   UNL     1      48.044   6.282  14.436  0.00  0.00    +0.000 C 
BRANCH   7  10
ATOM      8  C   UNL     1      46.433   5.859  12.629  0.00  0.00    +0.000 C 
ATOM      9  O   UNL     1      46.894   6.753  11.926  0.00  0.00    +0.000 OA
ATOM     10  N   UNL     1      46.936   5.554  13.872  0.00  0.00    +0.000 N 
ATOM     11  H   UNL     1      46.520   4.800  14.406  0.00  0.00    +0.000 HD
BRANCH   8  16
ATOM     12  C   UNL     1      44.167   3.437  10.480  0.00  0.00    +0.000 C 
ATOM     13  C   UNL     1      43.378   3.026  11.658  0.00  0.00    +0.000 C 
ATOM     14  N   UNL     1      43.547   3.430  12.879  0.00  0.00    +0.000 NA
ATOM     15  C   UNL     1      44.607   4.282  13.107  0.00  0.00    +0.000 C 
ATOM     16  C   UNL     1      45.254   5.033  12.194  0.00  0.00    +0.000 C 
ATOM     17  S   UNL     1      44.814   5.036  10.512  0.00  0.00    +0.000 S 
BRANCH  12  19
ATOM     18  N   UNL     1      45.025   1.644   8.847  0.00  0.00    +0.000 NA
ATOM     19  C   UNL     1      44.616   2.459   9.567  0.00  0.00    +0.000 C 
ENDBRANCH  12  19
ENDBRANCH   8  16
ENDBRANCH   7  10
ENDBRANCH   1   7
BRANCH   4  20
ATOM     20  C   UNL     1      48.740   4.954  20.105  0.00  0.00    +0.000 C 
BRANCH  20  21
ATOM     21  O   UNL     1      48.492   3.559  20.297  0.00  0.00    +0.000 OA
ATOM     22  H   UNL     1      48.309   3.426  21.243  0.00  0.00    +0.000 HD
ENDBRANCH  20  21
BRANCH  20  23
ATOM     23  C   UNL     1      50.124   5.311  20.681  0.00  0.00    +0.000 C 
BRANCH  23  24
ATOM     24  N   UNL     1      51.157   4.325  20.429  0.00  0.00    +0.000 N 
ATOM     25  C   UNL     1      52.168   4.652  19.552  0.00  0.00    +0.000 C 
ATOM     26  O   UNL     1      52.258   5.778  19.064  0.00  0.00    +0.000 OA
ATOM     27  H   UNL     1      50.900   3.344  20.536  0.00  0.00    +0.000 HD
BRANCH  25  28
ATOM     28  C   UNL     1      53.170   3.627  19.262  0.00  0.00    +0.000 A 
ATOM     29  C   UNL     1      54.455   3.773  19.765  0.00  0.00    +0.000 A 
ATOM     30  S   UNL     1      55.499   2.492  19.352  0.00  0.00    +0.000 S 
ATOM     31  C   UNL     1      54.284   1.721  18.448  0.00  0.00    +0.000 A 
ATOM     32  N   UNL     1      54.535   0.563  17.778  0.00  0.00    +0.000 NA
ATOM     33  C   UNL     1      53.532   0.108  17.109  0.00  0.00    +0.000 A 
ATOM     34  N   UNL     1      52.293   0.700  17.053  0.00  0.00    +0.000 N 
ATOM     35  C   UNL     1      51.986   1.856  17.732  0.00  0.00    +0.000 A 
ATOM     36  O   UNL     1      50.863   2.347  17.693  0.00  0.00    +0.000 OA
ATOM     37  C   UNL     1      53.086   2.417  18.485  0.00  0.00    +0.000 A 
ATOM     38  H   UNL     1      51.547   0.284  16.515  0.00  0.00    +0.000 HD
ENDBRANCH  25  28
ENDBRANCH  23  24
ENDBRANCH  20  23
ENDBRANCH   4  20
TORSDOF 9
ENDMDL
MODEL 2
REMARK VINA RESULT:    -6.673      4.169      8.470
REMARK INTER + INTRA:         -11.350
REMARK INTER:                 -10.153
REMARK INTRA:                  -1.197
REMARK UNBOUND:                -1.360
REMARK  Name = 
REMARK  9 active torsions:
REMARK  status: ('A' for Active; 'I' for Inactive)
REMARK    1  A    between atoms: C_2  and  C_3
REMARK    2  A    between atoms: C_7  and  C_8
REMARK    3  A    between atoms: N_10  and  C_11
REMARK    4  A    between atoms: C_11  and  C_12
REMARK    5  A    between atoms: C_15  and  C_16
REMARK    6  A    between atoms: C_16  and  O_17
REMARK    7  A    between atoms: C_16  and  C_18
REMARK    8  A    between atoms: C_18  and  N_19
REMARK    9  A    between atoms: C_20  and  C_22
REMARK                            x       y       z     vdW  Elec       q    Type
REMARK                         _______ _______ _______ _____ _____    ______ ____
ROOT
ATOM      1  C   UNL     1      51.519   6.038  16.981  0.00  0.00    +0.000 A 
ATOM      2  C   UNL     1      50.299   6.728  16.964  0.00  0.00    +0.000 A 
ATOM      3  C   UNL     1      49.100   6.069  17.277  0.00  0.00    +0.000 A 
ATOM      4  C   UNL     1      49.096   4.711  17.632  0.00  0.00    +0.000 A 
ATOM      5  C   UNL     1      50.326   4.037  17.665  0.00  0.00    +0.000 A 
ATOM      6  C   UNL     1      51.521   4.694  17.361  0.00  0.00    +0.000 A 
ENDROOT
BRANCH   1   7
ATOM      7  C   UNL     1      52.807   6.708  16.583  0.00  0.00    +0.000 C 
BRANCH   7  10
ATOM      8  C   UNL     1      52.652   8.347  14.757  0.00  0.00    +0.000 C 
ATOM      9  O   UNL     1      52.471   9.282  15.531  0.00  0.00    +0.000 OA
ATOM     10  N   UNL     1      52.832   7.051  15.184  0.00  0.00    +0.000 N 
ATOM     11  H   UNL     1      52.984   6.320  14.500  0.00  0.00    +0.000 HD
BRANCH   8  16
ATOM     12  C   UNL     1      53.451   7.763  10.931  0.00  0.00    +0.000 C 
ATOM     13  C   UNL     1      52.231   8.475  10.502  0.00  0.00    +0.000 C 
ATOM     14  N   UNL     1      51.340   9.013  11.276  0.00  0.00    +0.000 NA
ATOM     15  C   UNL     1      51.520   8.852  12.633  0.00  0.00    +0.000 C 
ATOM     16  C   UNL     1      52.668   8.540  13.266  0.00  0.00    +0.000 C 
ATOM     17  S   UNL     1      54.162   8.288  12.413  0.00  0.00    +0.000 S 
BRANCH  12  19
ATOM     18  N   UNL     1      54.020   5.514   9.819  0.00  0.00    +0.000 NA
ATOM     19  C   UNL     1      53.791   6.536  10.323  0.00  0.00    +0.000 C 
ENDBRANCH  12  19
ENDBRANCH   8  16
ENDBRANCH   7  10
ENDBRANCH   1   7
BRANCH   4  20
ATOM     20  C   UNL     1      47.780   4.003  17.924  0.00  0.00    +0.000 C 
BRANCH  20  21
ATOM     21  O   UNL     1      46.876   4.947  18.502  0.00  0.00    +0.000 OA
ATOM     22  H   UNL     1      46.957   4.871  19.469  0.00  0.00    +0.000 HD
ENDBRANCH  20  21
BRANCH  20  23
ATOM     23  C   UNL     1      47.135   3.378  16.672  0.00  0.00    +0.000 C 
BRANCH  23  24
ATOM     24  N   UNL     1      46.538   4.333  15.758  0.00  0.00    +0.000 N 
ATOM     25  C   UNL     1      46.751   4.162  14.408  0.00  0.00    +0.000 C 
ATOM     26  O   UNL     1      47.346   3.179  13.970  0.00  0.00    +0.000 OA
ATOM     27  H   UNL     1      46.373   5.275  16.113  0.00  0.00    +0.000 HD
BRANCH  25  28
ATOM     28  C   UNL     1      46.192   5.166  13.503  0.00  0.00    +0.000 A 
ATOM     29  C   UNL     1      46.944   6.290  13.191  0.00  0.00    +0.000 A 
ATOM     30  S   UNL     1      46.163   7.356  12.115  0.00  0.00    +0.000 S 
ATOM     31  C   UNL     1      44.775   6.376  12.066  0.00  0.00    +0.000 A 
ATOM     32  N   UNL     1      43.682   6.742  11.343  0.00  0.00    +0.000 NA
ATOM     33  C   UNL     1      42.692   5.922  11.423  0.00  0.00    +0.000 A 
ATOM     34  N   UNL     1      42.695   4.758  12.154  0.00  0.00    +0.000 N 
ATOM     35  C   UNL     1      43.784   4.334  12.880  0.00  0.00    +0.000 A 
ATOM     36  O   UNL     1      43.774   3.275  13.497  0.00  0.00    +0.000 OA
ATOM     37  C   UNL     1      44.917   5.233  12.838  0.00  0.00    +0.000 A 
ATOM     38  H   UNL     1      41.887   4.154  12.166  0.00  0.00    +0.000 HD
ENDBRANCH  25  28
ENDBRANCH  23  24
ENDBRANCH  20  23
ENDBRANCH   4  20
TORSDOF 9
ENDMDL
MODEL 3
REMARK VINA RESULT:    -6.650      2.029      3.382
REMARK INTER + INTRA:         -11.315
REMARK INTER:                 -10.511
REMARK INTRA:                  -0.804
REMARK UNBOUND:                -1.360
REMARK  Name = 
REMARK  9 active torsions:
REMARK  status: ('A' for Active; 'I' for Inactive)
REMARK    1  A    between atoms: C_2  and  C_3
REMARK    2  A    between atoms: C_7  and  C_8
REMARK    3  A    between atoms: N_10  and  C_11
REMARK    4  A    between atoms: C_11  and  C_12
REMARK    5  A    between atoms: C_15  and  C_16
REMARK    6  A    between atoms: C_16  and  O_17
REMARK    7  A    between atoms: C_16  and  C_18
REMARK    8  A    between atoms: C_18  and  N_19
REMARK    9  A    between atoms: C_20  and  C_22
REMARK                            x       y       z     vdW  Elec       q    Type
REMARK                         _______ _______ _______ _____ _____    ______ ____
ROOT
ATOM      1  C   UNL     1      45.878   6.684  12.911  0.00  0.00    +0.000 A 
ATOM      2  C   UNL     1      46.557   7.909  12.953  0.00  0.00    +0.000 A 
ATOM      3  C   UNL     1      47.747   8.043  13.683  0.00  0.00    +0.000 A 
ATOM      4  C   UNL     1      48.297   6.951  14.373  0.00  0.00    +0.000 A 
ATOM      5  C   UNL     1      47.619   5.724  14.307  0.00  0.00    +0.000 A 
ATOM      6  C   UNL     1      46.437   5.588  13.574  0.00  0.00    +0.000 A 
ENDROOT
BRANCH   1   7
ATOM      7  C   UNL     1      44.564   6.536  12.190  0.00  0.00    +0.000 C 
BRANCH   7  10
ATOM      8  C   UNL     1      45.310   5.245  10.237  0.00  0.00    +0.000 C 
ATOM      9  O   UNL     1      46.086   6.126   9.876  0.00  0.00    +0.000 OA
ATOM     10  N   UNL     1      44.528   5.358  11.362  0.00  0.00    +0.000 N 
ATOM     11  H   UNL     1      43.910   4.597  11.617  0.00  0.00    +0.000 HD
BRANCH   8  16
ATOM     12  C   UNL     1      46.016   2.301   7.697  0.00  0.00    +0.000 C 
ATOM     13  C   UNL     1      45.173   1.357   8.457  0.00  0.00    +0.000 C 
ATOM     14  N   UNL     1      44.530   1.610   9.555  0.00  0.00    +0.000 NA
ATOM     15  C   UNL     1      44.699   2.868  10.096  0.00  0.00    +0.000 C 
ATOM     16  C   UNL     1      45.134   3.972   9.457  0.00  0.00    +0.000 C 
ATOM     17  S   UNL     1      45.562   3.964   7.772  0.00  0.00    +0.000 S 
BRANCH  12  19
ATOM     18  N   UNL     1      48.334   1.589   6.839  0.00  0.00    +0.000 NA
ATOM     19  C   UNL     1      47.279   1.883   7.227  0.00  0.00    +0.000 C 
ENDBRANCH  12  19
ENDBRANCH   8  16
ENDBRANCH   7  10
ENDBRANCH   1   7
BRANCH   4  20
ATOM     20  C   UNL     1      49.565   7.128  15.196  0.00  0.00    +0.000 C 
BRANCH  20  21
ATOM     21  O   UNL     1      49.870   8.523  15.264  0.00  0.00    +0.000 OA
ATOM     22  H   UNL     1      49.128   8.959  15.717  0.00  0.00    +0.000 HD
ENDBRANCH  20  21
BRANCH  20  23
ATOM     23  C   UNL     1      49.447   6.560  16.624  0.00  0.00    +0.000 C 
BRANCH  23  24
ATOM     24  N   UNL     1      50.419   5.534  16.949  0.00  0.00    +0.000 N 
ATOM     25  C   UNL     1      50.843   5.430  18.256  0.00  0.00    +0.000 C 
ATOM     26  O   UNL     1      50.350   6.117  19.148  0.00  0.00    +0.000 OA
ATOM     27  H   UNL     1      51.049   5.238  16.204  0.00  0.00    +0.000 HD
BRANCH  25  28
ATOM     28  C   UNL     1      51.866   4.430  18.557  0.00  0.00    +0.000 A 
ATOM     29  C   UNL     1      52.969   4.795  19.317  0.00  0.00    +0.000 A 
ATOM     30  S   UNL     1      54.061   3.518  19.592  0.00  0.00    +0.000 S 
ATOM     31  C   UNL     1      53.123   2.443  18.668  0.00  0.00    +0.000 A 
ATOM     32  N   UNL     1      53.524   1.160  18.461  0.00  0.00    +0.000 NA
ATOM     33  C   UNL     1      52.733   0.469  17.715  0.00  0.00    +0.000 A 
ATOM     34  N   UNL     1      51.566   0.941  17.161  0.00  0.00    +0.000 N 
ATOM     35  C   UNL     1      51.109   2.221  17.361  0.00  0.00    +0.000 A 
ATOM     36  O   UNL     1      50.048   2.609  16.884  0.00  0.00    +0.000 OA
ATOM     37  C   UNL     1      51.973   3.045  18.179  0.00  0.00    +0.000 A 
ATOM     38  H   UNL     1      50.987   0.341  16.592  0.00  0.00    +0.000 HD
ENDBRANCH  25  28
ENDBRANCH  23  24
ENDBRANCH  20  23
ENDBRANCH   4  20
TORSDOF 9
ENDMDL
MODEL 4
REMARK VINA RESULT:    -6.609      3.109      5.049
REMARK INTER + INTRA:         -11.254
REMARK INTER:                  -9.619
REMARK INTRA:                  -1.635
REMARK UNBOUND:                -1.360
REMARK  Name = 
REMARK  9 active torsions:
REMARK  status: ('A' for Active; 'I' for Inactive)
REMARK    1  A    between atoms: C_2  and  C_3
REMARK    2  A    between atoms: C_7  and  C_8
REMARK    3  A    between atoms: N_10  and  C_11
REMARK    4  A    between atoms: C_11  and  C_12
REMARK    5  A    between atoms: C_15  and  C_16
REMARK    6  A    between atoms: C_16  and  O_17
REMARK    7  A    between atoms: C_16  and  C_18
REMARK    8  A    between atoms: C_18  and  N_19
REMARK    9  A    between atoms: C_20  and  C_22
REMARK                            x       y       z     vdW  Elec       q    Type
REMARK                         _______ _______ _______ _____ _____    ______ ____
ROOT
ATOM      1  C   UNL     1      47.548   8.873  12.817  0.00  0.00    +0.000 A 
ATOM      2  C   UNL     1      48.281   9.877  13.462  0.00  0.00    +0.000 A 
ATOM      3  C   UNL     1      49.684   9.863  13.444  0.00  0.00    +0.000 A 
ATOM      4  C   UNL     1      50.386   8.855  12.762  0.00  0.00    +0.000 A 
ATOM      5  C   UNL     1      49.639   7.867  12.103  0.00  0.00    +0.000 A 
ATOM      6  C   UNL     1      48.242   7.885  12.115  0.00  0.00    +0.000 A 
ENDROOT
BRANCH   1   7
ATOM      7  C   UNL     1      46.044   8.832  12.883  0.00  0.00    +0.000 C 
BRANCH   7  10
ATOM      8  C   UNL     1      44.614   7.119  11.854  0.00  0.00    +0.000 C 
ATOM      9  O   UNL     1      44.182   7.899  11.010  0.00  0.00    +0.000 OA
ATOM     10  N   UNL     1      45.533   7.488  12.809  0.00  0.00    +0.000 N 
ATOM     11  H   UNL     1      45.859   6.799  13.476  0.00  0.00    +0.000 HD
BRANCH   8  16
ATOM     12  C   UNL     1      43.950   3.357  10.840  0.00  0.00    +0.000 C 
ATOM     13  C   UNL     1      43.879   2.923  12.249  0.00  0.00    +0.000 C 
ATOM     14  N   UNL     1      44.026   3.675  13.296  0.00  0.00    +0.000 NA
ATOM     15  C   UNL     1      44.339   4.998  13.069  0.00  0.00    +0.000 C 
ATOM     16  C   UNL     1      44.149   5.691  11.928  0.00  0.00    +0.000 C 
ATOM     17  S   UNL     1      43.443   4.973  10.511  0.00  0.00    +0.000 S 
BRANCH  12  19
ATOM     18  N   UNL     1      45.307   2.010   9.120  0.00  0.00    +0.000 NA
ATOM     19  C   UNL     1      44.692   2.595   9.913  0.00  0.00    +0.000 C 
ENDBRANCH  12  19
ENDBRANCH   8  16
ENDBRANCH   7  10
ENDBRANCH   1   7
BRANCH   4  20
ATOM     20  C   UNL     1      51.907   8.832  12.791  0.00  0.00    +0.000 C 
BRANCH  20  21
ATOM     21  O   UNL     1      52.389  10.114  12.379  0.00  0.00    +0.000 OA
ATOM     22  H   UNL     1      52.947  10.457  13.098  0.00  0.00    +0.000 HD
ENDBRANCH  20  21
BRANCH  20  23
ATOM     23  C   UNL     1      52.484   8.491  14.179  0.00  0.00    +0.000 C 
BRANCH  23  24
ATOM     24  N   UNL     1      51.883   7.336  14.817  0.00  0.00    +0.000 N 
ATOM     25  C   UNL     1      51.837   7.304  16.194  0.00  0.00    +0.000 C 
ATOM     26  O   UNL     1      52.204   8.262  16.872  0.00  0.00    +0.000 OA
ATOM     27  H   UNL     1      51.916   6.454  14.307  0.00  0.00    +0.000 HD
BRANCH  25  28
ATOM     28  C   UNL     1      51.282   6.107  16.824  0.00  0.00    +0.000 A 
ATOM     29  C   UNL     1      52.128   5.249  17.514  0.00  0.00    +0.000 A 
ATOM     30  S   UNL     1      51.329   3.911  18.202  0.00  0.00    +0.000 S 
ATOM     31  C   UNL     1      49.834   4.406  17.563  0.00  0.00    +0.000 A 
ATOM     32  N   UNL     1      48.710   3.663  17.750  0.00  0.00    +0.000 NA
ATOM     33  C   UNL     1      47.655   4.140  17.184  0.00  0.00    +0.000 A 
ATOM     34  N   UNL     1      47.617   5.303  16.452  0.00  0.00    +0.000 N 
ATOM     35  C   UNL     1      48.721   6.099  16.256  0.00  0.00    +0.000 A 
ATOM     36  O   UNL     1      48.654   7.150  15.628  0.00  0.00    +0.000 OA
ATOM     37  C   UNL     1      49.936   5.595  16.858  0.00  0.00    +0.000 A 
ATOM     38  H   UNL     1      46.753   5.626  16.042  0.00  0.00    +0.000 HD
ENDBRANCH  25  28
ENDBRANCH  23  24
ENDBRANCH  20  23
ENDBRANCH   4  20
TORSDOF 9
ENDMDL
MODEL 5
REMARK VINA RESULT:    -6.510      4.096      7.754
REMARK INTER + INTRA:         -11.105
REMARK INTER:                  -9.397
REMARK INTRA:                  -1.708
REMARK UNBOUND:                -1.360
REMARK  Name = 
REMARK  9 active torsions:
REMARK  status: ('A' for Active; 'I' for Inactive)
REMARK    1  A    between atoms: C_2  and  C_3
REMARK    2  A    between atoms: C_7  and  C_8
REMARK    3  A    between atoms: N_10  and  C_11
REMARK    4  A    between atoms: C_11  and  C_12
REMARK    5  A    between atoms: C_15  and  C_16
REMARK    6  A    between atoms: C_16  and  O_17
REMARK    7  A    between atoms: C_16  and  C_18
REMARK    8  A    between atoms: C_18  and  N_19
REMARK    9  A    between atoms: C_20  and  C_22
REMARK                            x       y       z     vdW  Elec       q    Type
REMARK                         _______ _______ _______ _____ _____    ______ ____
ROOT
ATOM      1  C   UNL     1      50.026   7.484  17.851  0.00  0.00    +0.000 A 
ATOM      2  C   UNL     1      48.944   7.157  18.679  0.00  0.00    +0.000 A 
ATOM      3  C   UNL     1      48.469   5.839  18.749  0.00  0.00    +0.000 A 
ATOM      4  C   UNL     1      49.079   4.813  18.008  0.00  0.00    +0.000 A 
ATOM      5  C   UNL     1      50.175   5.150  17.199  0.00  0.00    +0.000 A 
ATOM      6  C   UNL     1      50.652   6.462  17.135  0.00  0.00    +0.000 A 
ENDROOT
BRANCH   1   7
ATOM      7  C   UNL     1      50.506   8.905  17.709  0.00  0.00    +0.000 C 
BRANCH   7  10
ATOM      8  C   UNL     1      49.583   9.941  15.681  0.00  0.00    +0.000 C 
ATOM      9  O   UNL     1      48.519  10.211  16.231  0.00  0.00    +0.000 OA
ATOM     10  N   UNL     1      50.616   9.306  16.330  0.00  0.00    +0.000 N 
ATOM     11  H   UNL     1      51.475   9.115  15.828  0.00  0.00    +0.000 HD
BRANCH   8  16
ATOM     12  C   UNL     1      50.819   9.592  11.944  0.00  0.00    +0.000 C 
ATOM     13  C   UNL     1      49.786  10.521  11.448  0.00  0.00    +0.000 C 
ATOM     14  N   UNL     1      48.880  11.119  12.159  0.00  0.00    +0.000 NA
ATOM     15  C   UNL     1      48.844  10.808  13.502  0.00  0.00    +0.000 C 
ATOM     16  C   UNL     1      49.835  10.265  14.235  0.00  0.00    +0.000 C 
ATOM     17  S   UNL     1      51.383   9.861  13.552  0.00  0.00    +0.000 S 
BRANCH  12  19
ATOM     18  N   UNL     1      51.265   7.423  10.634  0.00  0.00    +0.000 NA
ATOM     19  C   UNL     1      51.063   8.387  11.250  0.00  0.00    +0.000 C 
ENDBRANCH  12  19
ENDBRANCH   8  16
ENDBRANCH   7  10
ENDBRANCH   1   7
BRANCH   4  20
ATOM     20  C   UNL     1      48.522   3.398  18.063  0.00  0.00    +0.000 C 
BRANCH  20  21
ATOM     21  O   UNL     1      48.292   3.054  19.432  0.00  0.00    +0.000 OA
ATOM     22  H   UNL     1      47.331   2.955  19.548  0.00  0.00    +0.000 HD
ENDBRANCH  20  21
BRANCH  20  23
ATOM     23  C   UNL     1      47.214   3.227  17.267  0.00  0.00    +0.000 C 
BRANCH  23  24
ATOM     24  N   UNL     1      46.918   4.311  16.350  0.00  0.00    +0.000 N 
ATOM     25  C   UNL     1      47.135   4.104  15.006  0.00  0.00    +0.000 C 
ATOM     26  O   UNL     1      47.478   3.005  14.572  0.00  0.00    +0.000 OA
ATOM     27  H   UNL     1      46.984   5.260  16.716  0.00  0.00    +0.000 HD
BRANCH  25  28
ATOM     28  C   UNL     1      46.889   5.225  14.100  0.00  0.00    +0.000 A 
ATOM     29  C   UNL     1      47.807   6.264  14.042  0.00  0.00    +0.000 A 
ATOM     30  S   UNL     1      47.386   7.485  12.932  0.00  0.00    +0.000 S 
ATOM     31  C   UNL     1      45.940   6.692  12.524  0.00  0.00    +0.000 A 
ATOM     32  N   UNL     1      45.066   7.236  11.634  0.00  0.00    +0.000 NA
ATOM     33  C   UNL     1      43.997   6.542  11.445  0.00  0.00    +0.000 A 
ATOM     34  N   UNL     1      43.722   5.343  12.058  0.00  0.00    +0.000 N 
ATOM     35  C   UNL     1      44.585   4.742  12.944  0.00  0.00    +0.000 A 
ATOM     36  O   UNL     1      44.332   3.655  13.452  0.00  0.00    +0.000 OA
ATOM     37  C   UNL     1      45.793   5.493  13.205  0.00  0.00    +0.000 A 
ATOM     38  H   UNL     1      42.868   4.845  11.856  0.00  0.00    +0.000 HD
ENDBRANCH  25  28
ENDBRANCH  23  24
ENDBRANCH  20  23
ENDBRANCH   4  20
TORSDOF 9
ENDMDL
MODEL 6
REMARK VINA RESULT:    -6.472      2.661      3.895
REMARK INTER + INTRA:         -11.049
REMARK INTER:                  -9.318
REMARK INTRA:                  -1.730
REMARK UNBOUND:                -1.360
REMARK  Name = 
REMARK  9 active torsions:
REMARK  status: ('A' for Active; 'I' for Inactive)
REMARK    1  A    between atoms: C_2  and  C_3
REMARK    2  A    between atoms: C_7  and  C_8
REMARK    3  A    between atoms: N_10  and  C_11
REMARK    4  A    between atoms: C_11  and  C_12
REMARK    5  A    between atoms: C_15  and  C_16
REMARK    6  A    between atoms: C_16  and  O_17
REMARK    7  A    between atoms: C_16  and  C_18
REMARK    8  A    between atoms: C_18  and  N_19
REMARK    9  A    between atoms: C_20  and  C_22
REMARK                            x       y       z     vdW  Elec       q    Type
REMARK                         _______ _______ _______ _____ _____    ______ ____
ROOT
ATOM      1  C   UNL     1      48.900   9.188  14.726  0.00  0.00    +0.000 A 
ATOM      2  C   UNL     1      47.886   9.206  15.692  0.00  0.00    +0.000 A 
ATOM      3  C   UNL     1      48.197   9.321  17.055  0.00  0.00    +0.000 A 
ATOM      4  C   UNL     1      49.529   9.439  17.482  0.00  0.00    +0.000 A 
ATOM      5  C   UNL     1      50.535   9.439  16.504  0.00  0.00    +0.000 A 
ATOM      6  C   UNL     1      50.225   9.333  15.146  0.00  0.00    +0.000 A 
ENDROOT
BRANCH   1   7
ATOM      7  C   UNL     1      48.591   8.997  13.264  0.00  0.00    +0.000 C 
BRANCH   7  10
ATOM      8  C   UNL     1      47.806   6.696  12.903  0.00  0.00    +0.000 C 
ATOM      9  O   UNL     1      48.944   6.237  12.949  0.00  0.00    +0.000 OA
ATOM     10  N   UNL     1      47.538   8.037  13.052  0.00  0.00    +0.000 N 
ATOM     11  H   UNL     1      46.579   8.360  13.012  0.00  0.00    +0.000 HD
BRANCH   8  16
ATOM     12  C   UNL     1      44.902   4.808  11.001  0.00  0.00    +0.000 C 
ATOM     13  C   UNL     1      44.805   3.770  12.046  0.00  0.00    +0.000 C 
ATOM     14  N   UNL     1      45.528   3.688  13.121  0.00  0.00    +0.000 NA
ATOM     15  C   UNL     1      46.522   4.631  13.271  0.00  0.00    +0.000 C 
ATOM     16  C   UNL     1      46.606   5.826  12.653  0.00  0.00    +0.000 C 
ATOM     17  S   UNL     1      45.404   6.374  11.522  0.00  0.00    +0.000 S 
BRANCH  12  19
ATOM     18  N   UNL     1      44.941   4.105   8.527  0.00  0.00    +0.000 NA
ATOM     19  C   UNL     1      44.896   4.430   9.642  0.00  0.00    +0.000 C 
ENDBRANCH  12  19
ENDBRANCH   8  16
ENDBRANCH   7  10
ENDBRANCH   1   7
BRANCH   4  20
ATOM     20  C   UNL     1      49.850   9.517  18.968  0.00  0.00    +0.000 C 
BRANCH  20  21
ATOM     21  O   UNL     1      48.645   9.815  19.677  0.00  0.00    +0.000 OA
ATOM     22  H   UNL     1      48.816   9.652  20.621  0.00  0.00    +0.000 HD
ENDBRANCH  20  21
BRANCH  20  23
ATOM     23  C   UNL     1      50.463   8.218  19.527  0.00  0.00    +0.000 C 
BRANCH  23  24
ATOM     24  N   UNL     1      50.220   7.038  18.720  0.00  0.00    +0.000 N 
ATOM     25  C   UNL     1      49.098   6.285  18.991  0.00  0.00    +0.000 C 
ATOM     26  O   UNL     1      48.268   6.644  19.825  0.00  0.00    +0.000 OA
ATOM     27  H   UNL     1      51.033   6.577  18.314  0.00  0.00    +0.000 HD
BRANCH  25  28
ATOM     28  C   UNL     1      48.897   5.066  18.209  0.00  0.00    +0.000 A 
ATOM     29  C   UNL     1      47.658   4.829  17.628  0.00  0.00    +0.000 A 
ATOM     30  S   UNL     1      47.588   3.377  16.740  0.00  0.00    +0.000 S 
ATOM     31  C   UNL     1      49.194   2.991  17.140  0.00  0.00    +0.000 A 
ATOM     32  N   UNL     1      49.761   1.827  16.722  0.00  0.00    +0.000 NA
ATOM     33  C   UNL     1      50.972   1.650  17.125  0.00  0.00    +0.000 A 
ATOM     34  N   UNL     1      51.677   2.537  17.903  0.00  0.00    +0.000 N 
ATOM     35  C   UNL     1      51.155   3.736  18.329  0.00  0.00    +0.000 A 
ATOM     36  O   UNL     1      51.815   4.527  18.994  0.00  0.00    +0.000 OA
ATOM     37  C   UNL     1      49.788   3.973  17.917  0.00  0.00    +0.000 A 
ATOM     38  H   UNL     1      52.628   2.341  18.177  0.00  0.00    +0.000 HD
ENDBRANCH  25  28
ENDBRANCH  23  24
ENDBRANCH  20  23
ENDBRANCH   4  20
TORSDOF 9
ENDMDL
MODEL 7
REMARK VINA RESULT:    -6.370      2.279      9.956
REMARK INTER + INTRA:         -10.895
REMARK INTER:                 -10.716
REMARK INTRA:                  -0.179
REMARK UNBOUND:                -1.360
REMARK  Name = 
REMARK  9 active torsions:
REMARK  status: ('A' for Active; 'I' for Inactive)
REMARK    1  A    between atoms: C_2  and  C_3
REMARK    2  A    between atoms: C_7  and  C_8
REMARK    3  A    between atoms: N_10  and  C_11
REMARK    4  A    between atoms: C_11  and  C_12
REMARK    5  A    between atoms: C_15  and  C_16
REMARK    6  A    between atoms: C_16  and  O_17
REMARK    7  A    between atoms: C_16  and  C_18
REMARK    8  A    between atoms: C_18  and  N_19
REMARK    9  A    between atoms: C_20  and  C_22
REMARK                            x       y       z     vdW  Elec       q    Type
REMARK                         _______ _______ _______ _____ _____    ______ ____
ROOT
ATOM      1  C   UNL     1      48.468   4.660  16.789  0.00  0.00    +0.000 A 
ATOM      2  C   UNL     1      49.293   5.791  16.809  0.00  0.00    +0.000 A 
ATOM      3  C   UNL     1      49.223   6.747  15.784  0.00  0.00    +0.000 A 
ATOM      4  C   UNL     1      48.312   6.602  14.725  0.00  0.00    +0.000 A 
ATOM      5  C   UNL     1      47.478   5.474  14.727  0.00  0.00    +0.000 A 
ATOM      6  C   UNL     1      47.542   4.527  15.752  0.00  0.00    +0.000 A 
ENDROOT
BRANCH   1   7
ATOM      7  C   UNL     1      48.575   3.589  17.843  0.00  0.00    +0.000 C 
BRANCH   7  10
ATOM      8  C   UNL     1      50.678   2.408  17.367  0.00  0.00    +0.000 C 
ATOM      9  O   UNL     1      50.221   1.875  16.360  0.00  0.00    +0.000 OA
ATOM     10  N   UNL     1      49.945   3.267  18.153  0.00  0.00    +0.000 N 
ATOM     11  H   UNL     1      50.376   3.684  18.970  0.00  0.00    +0.000 HD
BRANCH   8  16
ATOM     12  C   UNL     1      54.351   0.960  17.515  0.00  0.00    +0.000 C 
ATOM     13  C   UNL     1      54.840   2.104  18.309  0.00  0.00    +0.000 C 
ATOM     14  N   UNL     1      54.142   3.126  18.698  0.00  0.00    +0.000 NA
ATOM     15  C   UNL     1      52.829   3.175  18.280  0.00  0.00    +0.000 C 
ATOM     16  C   UNL     1      52.080   2.144  17.841  0.00  0.00    +0.000 C 
ATOM     17  S   UNL     1      52.698   0.522  17.740  0.00  0.00    +0.000 S 
BRANCH  12  19
ATOM     18  N   UNL     1      55.775   0.151  15.531  0.00  0.00    +0.000 NA
ATOM     19  C   UNL     1      55.114   0.494  16.423  0.00  0.00    +0.000 C 
ENDBRANCH  12  19
ENDBRANCH   8  16
ENDBRANCH   7  10
ENDBRANCH   1   7
BRANCH   4  20
ATOM     20  C   UNL     1      48.283   7.625  13.599  0.00  0.00    +0.000 C 
BRANCH  20  21
ATOM     21  O   UNL     1      49.326   7.311  12.673  0.00  0.00    +0.000 OA
ATOM     22  H   UNL     1      50.163   7.614  13.068  0.00  0.00    +0.000 HD
ENDBRANCH  20  21
BRANCH  20  23
ATOM     23  C   UNL     1      46.935   7.670  12.853  0.00  0.00    +0.000 C 
BRANCH  23  24
ATOM     24  N   UNL     1      46.428   6.376  12.440  0.00  0.00    +0.000 N 
ATOM     25  C   UNL     1      45.233   6.333  11.756  0.00  0.00    +0.000 C 
ATOM     26  O   UNL     1      44.650   7.361  11.415  0.00  0.00    +0.000 OA
ATOM     27  H   UNL     1      46.701   5.570  13.001  0.00  0.00    +0.000 HD
BRANCH  25  28
ATOM     28  C   UNL     1      44.705   5.017  11.398  0.00  0.00    +0.000 A 
ATOM     29  C   UNL     1      43.951   4.314  12.328  0.00  0.00    +0.000 A 
ATOM     30  S   UNL     1      43.398   2.807  11.756  0.00  0.00    +0.000 S 
ATOM     31  C   UNL     1      44.185   3.022  10.265  0.00  0.00    +0.000 A 
ATOM     32  N   UNL     1      44.148   2.058   9.306  0.00  0.00    +0.000 NA
ATOM     33  C   UNL     1      44.814   2.341   8.240  0.00  0.00    +0.000 A 
ATOM     34  N   UNL     1      45.511   3.509   8.039  0.00  0.00    +0.000 N 
ATOM     35  C   UNL     1      45.557   4.521   8.968  0.00  0.00    +0.000 A 
ATOM     36  O   UNL     1      46.157   5.569   8.751  0.00  0.00    +0.000 OA
ATOM     37  C   UNL     1      44.838   4.243  10.192  0.00  0.00    +0.000 A 
ATOM     38  H   UNL     1      46.005   3.672   7.174  0.00  0.00    +0.000 HD
ENDBRANCH  25  28
ENDBRANCH  23  24
ENDBRANCH  20  23
ENDBRANCH   4  20
TORSDOF 9
ENDMDL
MODEL 8
REMARK VINA RESULT:    -6.330      3.971      5.743
REMARK INTER + INTRA:         -10.836
REMARK INTER:                  -9.619
REMARK INTRA:                  -1.217
REMARK UNBOUND:                -1.360
REMARK  Name = 
REMARK  9 active torsions:
REMARK  status: ('A' for Active; 'I' for Inactive)
REMARK    1  A    between atoms: C_2  and  C_3
REMARK    2  A    between atoms: C_7  and  C_8
REMARK    3  A    between atoms: N_10  and  C_11
REMARK    4  A    between atoms: C_11  and  C_12
REMARK    5  A    between atoms: C_15  and  C_16
REMARK    6  A    between atoms: C_16  and  O_17
REMARK    7  A    between atoms: C_16  and  C_18
REMARK    8  A    between atoms: C_18  and  N_19
REMARK    9  A    between atoms: C_20  and  C_22
REMARK                            x       y       z     vdW  Elec       q    Type
REMARK                         _______ _______ _______ _____ _____    ______ ____
ROOT
ATOM      1  C   UNL     1      46.312   7.744  11.884  0.00  0.00    +0.000 A 
ATOM      2  C   UNL     1      46.511   9.094  12.202  0.00  0.00    +0.000 A 
ATOM      3  C   UNL     1      47.806   9.609  12.358  0.00  0.00    +0.000 A 
ATOM      4  C   UNL     1      48.933   8.791  12.181  0.00  0.00    +0.000 A 
ATOM      5  C   UNL     1      48.721   7.446  11.844  0.00  0.00    +0.000 A 
ATOM      6  C   UNL     1      47.431   6.934  11.681  0.00  0.00    +0.000 A 
ENDROOT
BRANCH   1   7
ATOM      7  C   UNL     1      44.929   7.157  11.780  0.00  0.00    +0.000 C 
BRANCH   7  10
ATOM      8  C   UNL     1      44.956   4.793  11.109  0.00  0.00    +0.000 C 
ATOM      9  O   UNL     1      45.112   4.404  12.263  0.00  0.00    +0.000 OA
ATOM     10  N   UNL     1      44.851   6.124  10.779  0.00  0.00    +0.000 N 
ATOM     11  H   UNL     1      44.716   6.387   9.810  0.00  0.00    +0.000 HD
BRANCH   8  16
ATOM     12  C   UNL     1      45.953   2.868   7.805  0.00  0.00    +0.000 C 
ATOM     13  C   UNL     1      45.130   1.696   8.162  0.00  0.00    +0.000 C 
ATOM     14  N   UNL     1      44.421   1.552   9.239  0.00  0.00    +0.000 NA
ATOM     15  C   UNL     1      44.490   2.569  10.167  0.00  0.00    +0.000 C 
ATOM     16  C   UNL     1      44.892   3.837   9.949  0.00  0.00    +0.000 C 
ATOM     17  S   UNL     1      45.402   4.396   8.384  0.00  0.00    +0.000 S 
BRANCH  12  19
ATOM     18  N   UNL     1      48.320   2.540   6.853  0.00  0.00    +0.000 NA
ATOM     19  C   UNL     1      47.260   2.675   7.307  0.00  0.00    +0.000 C 
ENDBRANCH  12  19
ENDBRANCH   8  16
ENDBRANCH   7  10
ENDBRANCH   1   7
BRANCH   4  20
ATOM     20  C   UNL     1      50.329   9.357  12.399  0.00  0.00    +0.000 C 
BRANCH  20  21
ATOM     21  O   UNL     1      50.205  10.681  12.924  0.00  0.00    +0.000 OA
ATOM     22  H   UNL     1      49.972  10.598  13.865  0.00  0.00    +0.000 HD
ENDBRANCH  20  21
BRANCH  20  23
ATOM     23  C   UNL     1      51.188   8.507  13.355  0.00  0.00    +0.000 C 
BRANCH  23  24
ATOM     24  N   UNL     1      50.555   8.195  14.621  0.00  0.00    +0.000 N 
ATOM     25  C   UNL     1      51.290   7.508  15.563  0.00  0.00    +0.000 C 
ATOM     26  O   UNL     1      52.478   7.245  15.386  0.00  0.00    +0.000 OA
ATOM     27  H   UNL     1      49.541   8.094  14.622  0.00  0.00    +0.000 HD
BRANCH  25  28
ATOM     28  C   UNL     1      50.619   7.149  16.813  0.00  0.00    +0.000 A 
ATOM     29  C   UNL     1      51.188   7.529  18.021  0.00  0.00    +0.000 A 
ATOM     30  S   UNL     1      50.282   7.049  19.381  0.00  0.00    +0.000 S 
ATOM     31  C   UNL     1      49.125   6.276  18.407  0.00  0.00    +0.000 A 
ATOM     32  N   UNL     1      48.074   5.610  18.958  0.00  0.00    +0.000 NA
ATOM     33  C   UNL     1      47.294   5.044  18.102  0.00  0.00    +0.000 A 
ATOM     34  N   UNL     1      47.462   5.090  16.739  0.00  0.00    +0.000 N 
ATOM     35  C   UNL     1      48.494   5.770  16.135  0.00  0.00    +0.000 A 
ATOM     36  O   UNL     1      48.603   5.824  14.915  0.00  0.00    +0.000 OA
ATOM     37  C   UNL     1      49.409   6.408  17.056  0.00  0.00    +0.000 A 
ATOM     38  H   UNL     1      46.807   4.631  16.123  0.00  0.00    +0.000 HD
ENDBRANCH  25  28
ENDBRANCH  23  24
ENDBRANCH  20  23
ENDBRANCH   4  20
TORSDOF 9
ENDMDL
MODEL 9
REMARK VINA RESULT:    -6.165      4.130      5.703
REMARK INTER + INTRA:         -10.590
REMARK INTER:                  -8.755
REMARK INTRA:                  -1.834
REMARK UNBOUND:                -1.360
REMARK  Name = 
REMARK  9 active torsions:
REMARK  status: ('A' for Active; 'I' for Inactive)
REMARK    1  A    between atoms: C_2  and  C_3
REMARK    2  A    between atoms: C_7  and  C_8
REMARK    3  A    between atoms: N_10  and  C_11
REMARK    4  A    between atoms: C_11  and  C_12
REMARK    5  A    between atoms: C_15  and  C_16
REMARK    6  A    between atoms: C_16  and  O_17
REMARK    7  A    between atoms: C_16  and  C_18
REMARK    8  A    between atoms: C_18  and  N_19
REMARK    9  A    between atoms: C_20  and  C_22
REMARK                            x       y       z     vdW  Elec       q    Type
REMARK                         _______ _______ _______ _____ _____    ______ ____
ROOT
ATOM      1  C   UNL     1      48.295   4.728  17.173  0.00  0.00    +0.000 A 
ATOM      2  C   UNL     1      47.851   5.865  17.861  0.00  0.00    +0.000 A 
ATOM      3  C   UNL     1      48.767   6.740  18.464  0.00  0.00    +0.000 A 
ATOM      4  C   UNL     1      50.149   6.508  18.376  0.00  0.00    +0.000 A 
ATOM      5  C   UNL     1      50.582   5.378  17.668  0.00  0.00    +0.000 A 
ATOM      6  C   UNL     1      49.670   4.510  17.061  0.00  0.00    +0.000 A 
ENDROOT
BRANCH   1   7
ATOM      7  C   UNL     1      47.327   3.740  16.578  0.00  0.00    +0.000 C 
BRANCH   7  10
ATOM      8  C   UNL     1      46.724   4.077  14.219  0.00  0.00    +0.000 C 
ATOM      9  O   UNL     1      47.614   3.330  13.822  0.00  0.00    +0.000 OA
ATOM     10  N   UNL     1      46.506   4.333  15.553  0.00  0.00    +0.000 N 
ATOM     11  H   UNL     1      45.752   4.953  15.823  0.00  0.00    +0.000 HD
BRANCH   8  16
ATOM     12  C   UNL     1      45.335   5.720  10.904  0.00  0.00    +0.000 C 
ATOM     13  C   UNL     1      43.933   5.557  11.334  0.00  0.00    +0.000 C 
ATOM     14  N   UNL     1      43.524   5.021  12.443  0.00  0.00    +0.000 NA
ATOM     15  C   UNL     1      44.494   4.501  13.274  0.00  0.00    +0.000 C 
ATOM     16  C   UNL     1      45.808   4.798  13.269  0.00  0.00    +0.000 C 
ATOM     17  S   UNL     1      46.499   5.943  12.158  0.00  0.00    +0.000 S 
BRANCH  12  19
ATOM     18  N   UNL     1      46.041   5.076   8.516  0.00  0.00    +0.000 NA
ATOM     19  C   UNL     1      45.702   5.384   9.583  0.00  0.00    +0.000 C 
ENDBRANCH  12  19
ENDBRANCH   8  16
ENDBRANCH   7  10
ENDBRANCH   1   7
BRANCH   4  20
ATOM     20  C   UNL     1      51.125   7.445  19.076  0.00  0.00    +0.000 C 
BRANCH  20  21
ATOM     21  O   UNL     1      52.456   7.017  18.777  0.00  0.00    +0.000 OA
ATOM     22  H   UNL     1      53.064   7.612  19.251  0.00  0.00    +0.000 HD
ENDBRANCH  20  21
BRANCH  20  23
ATOM     23  C   UNL     1      50.957   8.919  18.661  0.00  0.00    +0.000 C 
BRANCH  23  24
ATOM     24  N   UNL     1      51.282   9.199  17.276  0.00  0.00    +0.000 N 
ATOM     25  C   UNL     1      50.259   9.563  16.428  0.00  0.00    +0.000 C 
ATOM     26  O   UNL     1      49.114   9.744  16.842  0.00  0.00    +0.000 OA
ATOM     27  H   UNL     1      52.097   8.727  16.885  0.00  0.00    +0.000 HD
BRANCH  25  28
ATOM     28  C   UNL     1      50.592   9.785  15.022  0.00  0.00    +0.000 A 
ATOM     29  C   UNL     1      51.101  11.016  14.631  0.00  0.00    +0.000 A 
ATOM     30  S   UNL     1      51.451  11.112  12.967  0.00  0.00    +0.000 S 
ATOM     31  C   UNL     1      50.891   9.529  12.701  0.00  0.00    +0.000 A 
ATOM     32  N   UNL     1      50.874   8.990  11.453  0.00  0.00    +0.000 NA
ATOM     33  C   UNL     1      50.394   7.795  11.395  0.00  0.00    +0.000 A 
ATOM     34  N   UNL     1      49.936   7.082  12.477  0.00  0.00    +0.000 N 
ATOM     35  C   UNL     1      49.956   7.575  13.760  0.00  0.00    +0.000 A 
ATOM     36  O   UNL     1      49.573   6.906  14.714  0.00  0.00    +0.000 OA
ATOM     37  C   UNL     1      50.469   8.923  13.875  0.00  0.00    +0.000 A 
ATOM     38  H   UNL     1      49.580   6.144  12.362  0.00  0.00    +0.000 HD
ENDBRANCH  25  28
ENDBRANCH  23  24
ENDBRANCH  20  23
ENDBRANCH   4  20
TORSDOF 9
ENDMDL
