MODEL 1
REMARK VINA RESULT:    -8.113      0.000      0.000
REMARK INTER + INTRA:         -10.694
REMARK INTER:                 -10.485
REMARK INTRA:                  -0.209
REMARK UNBOUND:                -0.209
REMARK  Name = 
REMARK  5 active torsions:
REMARK  status: ('A' for Active; 'I' for Inactive)
REMARK    1  A    between atoms: C_2  and  C_17
REMARK    2  A    between atoms: N_3  and  C_4
REMARK    3  A    between atoms: C_4  and  C_5
REMARK    4  A    between atoms: C_8  and  C_9
REMARK    5  A    between atoms: C_9  and  N_10
REMARK                            x       y       z     vdW  Elec       q    Type
REMARK                         _______ _______ _______ _____ _____    ______ ____
ROOT
ATOM      1  O   UNL     1      46.940   3.256  13.861  0.00  0.00    +0.000 OA
ATOM      2  C   UNL     1      46.660   4.393  14.230  0.00  0.00    +0.000 C 
ATOM      3  N   UNL     1      45.521   5.037  13.835  0.00  0.00    +0.000 N 
ATOM      4  H   UNL     1      45.326   5.982  14.142  0.00  0.00    +0.000 HD
ENDROOT
BRANCH   2   5
ATOM      5  C   UNL     1      47.547   5.182  15.075  0.00  0.00    +0.000 A 
ATOM      6  C   UNL     1      48.302   6.214  14.546  0.00  0.00    +0.000 A 
ATOM      7  S   UNL     1      49.223   7.043  15.727  0.00  0.00    +0.000 S 
ATOM      8  C   UNL     1      48.668   6.007  16.962  0.00  0.00    +0.000 A 
ATOM      9  N   UNL     1      49.071   6.167  18.254  0.00  0.00    +0.000 NA
ATOM     10  C   UNL     1      48.583   5.302  19.073  0.00  0.00    +0.000 A 
ATOM     11  N   UNL     1      47.736   4.284  18.730  0.00  0.00    +0.000 N 
ATOM     12  C   UNL     1      47.305   4.070  17.440  0.00  0.00    +0.000 A 
ATOM     13  O   UNL     1      46.540   3.151  17.169  0.00  0.00    +0.000 OA
ATOM     14  C   UNL     1      47.805   5.045  16.482  0.00  0.00    +0.000 A 
ATOM     15  H   UNL     1      47.388   3.634  19.419  0.00  0.00    +0.000 HD
ENDBRANCH   2   5
BRANCH   3  16
ATOM     16  C   UNL     1      44.485   4.390  13.080  0.00  0.00    +0.000 C 
BRANCH  16  17
ATOM     17  C   UNL     1      44.776   4.402  11.606  0.00  0.00    +0.000 A 
ATOM     18  C   UNL     1      45.440   5.485  11.042  0.00  0.00    +0.000 A 
ATOM     19  N   UNL     1      45.832   5.509   9.749  0.00  0.00    +0.000 NA
ATOM     20  C   UNL     1      45.528   4.408   9.015  0.00  0.00    +0.000 A 
ATOM     21  C   UNL     1      44.788   3.363   9.560  0.00  0.00    +0.000 A 
ATOM     22  N   UNL     1      44.395   3.335  10.857  0.00  0.00    +0.000 NA
BRANCH  20  23
ATOM     23  C   UNL     1      46.143   4.297   7.637  0.00  0.00    +0.000 C 
BRANCH  23  24
ATOM     24  N   UNL     1      46.086   3.013   6.929  0.00  0.00    +0.000 NA
ATOM     25  C   UNL     1      46.758   1.912   7.622  0.00  0.00    +0.000 C 
ATOM     26  C   UNL     1      48.080   1.727   6.906  0.00  0.00    +0.000 C 
ATOM     27  C   UNL     1      47.787   2.138   5.475  0.00  0.00    +0.000 C 
ATOM     28  C   UNL     1      46.563   3.041   5.550  0.00  0.00    +0.000 C 
ENDBRANCH  23  24
ENDBRANCH  20  23
ENDBRANCH  16  17
ENDBRANCH   3  16
TORSDOF 5
ENDMDL
MODEL 2
REMARK VINA RESULT:    -7.655      2.062      3.335
REMARK INTER + INTRA:         -10.102
REMARK INTER:                  -9.298
REMARK INTRA:                  -0.804
REMARK UNBOUND:                -0.209
REMARK  Name = 
REMARK  5 active torsions:
REMARK  status: ('A' for Active; 'I' for Inactive)
REMARK    1  A    between atoms: C_2  and  C_17
REMARK    2  A    between atoms: N_3  and  C_4
REMARK    3  A    between atoms: C_4  and  C_5
REMARK    4  A    between atoms: C_8  and  C_9
REMARK    5  A    between atoms: C_9  and  N_10
REMARK                            x       y       z     vdW  Elec       q    Type
REMARK                         _______ _______ _______ _____ _____    ______ ____
ROOT
ATOM      1  O   UNL     1      46.641   3.903  14.007  0.00  0.00    +0.000 OA
ATOM      2  C   UNL     1      46.625   5.131  14.007  0.00  0.00    +0.000 C 
ATOM      3  N   UNL     1      45.545   5.853  13.582  0.00  0.00    +0.000 N 
ATOM      4  H   UNL     1      45.567   6.865  13.576  0.00  0.00    +0.000 HD
ENDROOT
BRANCH   2   5
ATOM      5  C   UNL     1      47.777   5.929  14.403  0.00  0.00    +0.000 A 
ATOM      6  C   UNL     1      48.261   5.888  15.698  0.00  0.00    +0.000 A 
ATOM      7  S   UNL     1      49.655   6.856  15.924  0.00  0.00    +0.000 S 
ATOM      8  C   UNL     1      49.611   7.388  14.305  0.00  0.00    +0.000 A 
ATOM      9  N   UNL     1      50.546   8.251  13.819  0.00  0.00    +0.000 NA
ATOM     10  C   UNL     1      50.376   8.578  12.585  0.00  0.00    +0.000 A 
ATOM     11  N   UNL     1      49.359   8.133  11.786  0.00  0.00    +0.000 N 
ATOM     12  C   UNL     1      48.382   7.269  12.228  0.00  0.00    +0.000 A 
ATOM     13  O   UNL     1      47.487   6.885  11.482  0.00  0.00    +0.000 OA
ATOM     14  C   UNL     1      48.551   6.845  13.610  0.00  0.00    +0.000 A 
ATOM     15  H   UNL     1      49.278   8.428  10.824  0.00  0.00    +0.000 HD
ENDBRANCH   2   5
BRANCH   3  16
ATOM     16  C   UNL     1      44.289   5.245  13.242  0.00  0.00    +0.000 C 
BRANCH  16  17
ATOM     17  C   UNL     1      44.341   4.563  11.904  0.00  0.00    +0.000 A 
ATOM     18  C   UNL     1      44.694   5.288  10.772  0.00  0.00    +0.000 A 
ATOM     19  N   UNL     1      44.869   4.714   9.562  0.00  0.00    +0.000 NA
ATOM     20  C   UNL     1      44.669   3.372   9.505  0.00  0.00    +0.000 A 
ATOM     21  C   UNL     1      44.233   2.663  10.621  0.00  0.00    +0.000 A 
ATOM     22  N   UNL     1      44.058   3.236  11.837  0.00  0.00    +0.000 NA
BRANCH  20  23
ATOM     23  C   UNL     1      45.074   2.659   8.234  0.00  0.00    +0.000 C 
BRANCH  23  24
ATOM     24  N   UNL     1      46.493   2.609   7.862  0.00  0.00    +0.000 NA
ATOM     25  C   UNL     1      46.889   3.600   6.861  0.00  0.00    +0.000 C 
ATOM     26  C   UNL     1      46.991   2.840   5.554  0.00  0.00    +0.000 C 
ATOM     27  C   UNL     1      47.404   1.441   5.971  0.00  0.00    +0.000 C 
ATOM     28  C   UNL     1      46.975   1.302   7.425  0.00  0.00    +0.000 C 
ENDBRANCH  23  24
ENDBRANCH  20  23
ENDBRANCH  16  17
ENDBRANCH   3  16
TORSDOF 5
ENDMDL
MODEL 3
REMARK VINA RESULT:    -7.607      3.592      4.226
REMARK INTER + INTRA:         -10.039
REMARK INTER:                  -9.239
REMARK INTRA:                  -0.801
REMARK UNBOUND:                -0.209
REMARK  Name = 
REMARK  5 active torsions:
REMARK  status: ('A' for Active; 'I' for Inactive)
REMARK    1  A    between atoms: C_2  and  C_17
REMARK    2  A    between atoms: N_3  and  C_4
REMARK    3  A    between atoms: C_4  and  C_5
REMARK    4  A    between atoms: C_8  and  C_9
REMARK    5  A    between atoms: C_9  and  N_10
REMARK                            x       y       z     vdW  Elec       q    Type
REMARK                         _______ _______ _______ _____ _____    ______ ____
ROOT
ATOM      1  O   UNL     1      44.102   8.308  11.260  0.00  0.00    +0.000 OA
ATOM      2  C   UNL     1      45.012   8.020  12.033  0.00  0.00    +0.000 C 
ATOM      3  N   UNL     1      44.928   6.980  12.915  0.00  0.00    +0.000 N 
ATOM      4  H   UNL     1      45.688   6.778  13.553  0.00  0.00    +0.000 HD
ENDROOT
BRANCH   2   5
ATOM      5  C   UNL     1      46.240   8.800  12.121  0.00  0.00    +0.000 A 
ATOM      6  C   UNL     1      46.217  10.179  12.020  0.00  0.00    +0.000 A 
ATOM      7  S   UNL     1      47.762  10.891  12.212  0.00  0.00    +0.000 S 
ATOM      8  C   UNL     1      48.500   9.365  12.387  0.00  0.00    +0.000 A 
ATOM      9  N   UNL     1      49.842   9.248  12.595  0.00  0.00    +0.000 NA
ATOM     10  C   UNL     1      50.260   8.035  12.691  0.00  0.00    +0.000 A 
ATOM     11  N   UNL     1      49.472   6.920  12.594  0.00  0.00    +0.000 N 
ATOM     12  C   UNL     1      48.115   6.979  12.376  0.00  0.00    +0.000 A 
ATOM     13  O   UNL     1      47.437   5.960  12.301  0.00  0.00    +0.000 OA
ATOM     14  C   UNL     1      47.589   8.334  12.292  0.00  0.00    +0.000 A 
ATOM     15  H   UNL     1      49.861   5.993  12.677  0.00  0.00    +0.000 HD
ENDBRANCH   2   5
BRANCH   3  16
ATOM     16  C   UNL     1      43.837   6.045  12.913  0.00  0.00    +0.000 C 
BRANCH  16  17
ATOM     17  C   UNL     1      44.052   4.937  11.921  0.00  0.00    +0.000 A 
ATOM     18  C   UNL     1      43.446   5.001  10.672  0.00  0.00    +0.000 A 
ATOM     19  N   UNL     1      43.687   4.099   9.696  0.00  0.00    +0.000 NA
ATOM     20  C   UNL     1      44.556   3.103  10.008  0.00  0.00    +0.000 A 
ATOM     21  C   UNL     1      45.095   2.994  11.286  0.00  0.00    +0.000 A 
ATOM     22  N   UNL     1      44.857   3.899  12.267  0.00  0.00    +0.000 NA
BRANCH  20  23
ATOM     23  C   UNL     1      45.027   2.210   8.881  0.00  0.00    +0.000 C 
BRANCH  23  24
ATOM     24  N   UNL     1      46.375   2.398   8.333  0.00  0.00    +0.000 NA
ATOM     25  C   UNL     1      46.532   3.605   7.520  0.00  0.00    +0.000 C 
ATOM     26  C   UNL     1      46.510   3.131   6.081  0.00  0.00    +0.000 C 
ATOM     27  C   UNL     1      47.102   1.736   6.141  0.00  0.00    +0.000 C 
ATOM     28  C   UNL     1      46.903   1.267   7.576  0.00  0.00    +0.000 C 
ENDBRANCH  23  24
ENDBRANCH  20  23
ENDBRANCH  16  17
ENDBRANCH   3  16
TORSDOF 5
ENDMDL
MODEL 4
REMARK VINA RESULT:    -7.513      1.701      2.650
REMARK INTER + INTRA:          -9.919
REMARK INTER:                  -9.906
REMARK INTRA:                  -0.013
REMARK UNBOUND:                -0.209
REMARK  Name = 
REMARK  5 active torsions:
REMARK  status: ('A' for Active; 'I' for Inactive)
REMARK    1  A    between atoms: C_2  and  C_17
REMARK    2  A    between atoms: N_3  and  C_4
REMARK    3  A    between atoms: C_4  and  C_5
REMARK    4  A    between atoms: C_8  and  C_9
REMARK    5  A    between atoms: C_9  and  N_10
REMARK                            x       y       z     vdW  Elec       q    Type
REMARK                         _______ _______ _______ _____ _____    ______ ____
ROOT
ATOM      1  O   UNL     1      49.019   6.614  13.141  0.00  0.00    +0.000 OA
ATOM      2  C   UNL     1      48.361   6.759  14.168  0.00  0.00    +0.000 C 
ATOM      3  N   UNL     1      47.149   7.391  14.183  0.00  0.00    +0.000 N 
ATOM      4  H   UNL     1      46.637   7.511  15.049  0.00  0.00    +0.000 HD
ENDROOT
BRANCH   2   5
ATOM      5  C   UNL     1      48.839   6.321  15.472  0.00  0.00    +0.000 A 
ATOM      6  C   UNL     1      49.894   6.963  16.097  0.00  0.00    +0.000 A 
ATOM      7  S   UNL     1      50.247   6.323  17.644  0.00  0.00    +0.000 S 
ATOM      8  C   UNL     1      49.028   5.141  17.490  0.00  0.00    +0.000 A 
ATOM      9  N   UNL     1      48.783   4.244  18.486  0.00  0.00    +0.000 NA
ATOM     10  C   UNL     1      47.846   3.401  18.222  0.00  0.00    +0.000 A 
ATOM     11  N   UNL     1      47.129   3.360  17.058  0.00  0.00    +0.000 N 
ATOM     12  C   UNL     1      47.341   4.235  16.016  0.00  0.00    +0.000 A 
ATOM     13  O   UNL     1      46.676   4.173  14.988  0.00  0.00    +0.000 OA
ATOM     14  C   UNL     1      48.372   5.229  16.281  0.00  0.00    +0.000 A 
ATOM     15  H   UNL     1      46.406   2.672  16.909  0.00  0.00    +0.000 HD
ENDBRANCH   2   5
BRANCH   3  16
ATOM     16  C   UNL     1      46.475   7.808  12.985  0.00  0.00    +0.000 C 
BRANCH  16  17
ATOM     17  C   UNL     1      45.739   6.672  12.334  0.00  0.00    +0.000 A 
ATOM     18  C   UNL     1      46.196   6.154  11.128  0.00  0.00    +0.000 A 
ATOM     19  N   UNL     1      45.649   5.063  10.548  0.00  0.00    +0.000 NA
ATOM     20  C   UNL     1      44.605   4.498  11.208  0.00  0.00    +0.000 A 
ATOM     21  C   UNL     1      44.096   5.069  12.370  0.00  0.00    +0.000 A 
ATOM     22  N   UNL     1      44.644   6.162  12.956  0.00  0.00    +0.000 NA
BRANCH  20  23
ATOM     23  C   UNL     1      44.115   3.153  10.717  0.00  0.00    +0.000 C 
BRANCH  23  24
ATOM     24  N   UNL     1      44.075   2.889   9.274  0.00  0.00    +0.000 NA
ATOM     25  C   UNL     1      44.756   1.659   8.868  0.00  0.00    +0.000 C 
ATOM     26  C   UNL     1      46.083   2.101   8.286  0.00  0.00    +0.000 C 
ATOM     27  C   UNL     1      45.792   3.467   7.696  0.00  0.00    +0.000 C 
ATOM     28  C   UNL     1      44.558   3.977   8.429  0.00  0.00    +0.000 C 
ENDBRANCH  23  24
ENDBRANCH  20  23
ENDBRANCH  16  17
ENDBRANCH   3  16
TORSDOF 5
ENDMDL
MODEL 5
REMARK VINA RESULT:    -7.181      3.907      8.777
REMARK INTER + INTRA:          -9.489
REMARK INTER:                  -9.071
REMARK INTRA:                  -0.418
REMARK UNBOUND:                -0.209
REMARK  Name = 
REMARK  5 active torsions:
REMARK  status: ('A' for Active; 'I' for Inactive)
REMARK    1  A    between atoms: C_2  and  C_17
REMARK    2  A    between atoms: N_3  and  C_4
REMARK    3  A    between atoms: C_4  and  C_5
REMARK    4  A    between atoms: C_8  and  C_9
REMARK    5  A    between atoms: C_9  and  N_10
REMARK                            x       y       z     vdW  Elec       q    Type
REMARK                         _______ _______ _______ _____ _____    ______ ____
ROOT
ATOM      1  O   UNL     1      47.217   3.026  14.106  0.00  0.00    +0.000 OA
ATOM      2  C   UNL     1      46.868   4.126  14.524  0.00  0.00    +0.000 C 
ATOM      3  N   UNL     1      46.749   4.405  15.857  0.00  0.00    +0.000 N 
ATOM      4  H   UNL     1      46.442   5.317  16.171  0.00  0.00    +0.000 HD
ENDROOT
BRANCH   2   5
ATOM      5  C   UNL     1      46.492   5.218  13.635  0.00  0.00    +0.000 A 
ATOM      6  C   UNL     1      47.357   6.270  13.392  0.00  0.00    +0.000 A 
ATOM      7  S   UNL     1      46.734   7.405  12.272  0.00  0.00    +0.000 S 
ATOM      8  C   UNL     1      45.274   6.538  12.127  0.00  0.00    +0.000 A 
ATOM      9  N   UNL     1      44.277   6.965  11.302  0.00  0.00    +0.000 NA
ATOM     10  C   UNL     1      43.228   6.219  11.307  0.00  0.00    +0.000 A 
ATOM     11  N   UNL     1      43.070   5.088  12.061  0.00  0.00    +0.000 N 
ATOM     12  C   UNL     1      44.039   4.617  12.917  0.00  0.00    +0.000 A 
ATOM     13  O   UNL     1      43.866   3.596  13.574  0.00  0.00    +0.000 OA
ATOM     14  C   UNL     1      45.259   5.411  12.922  0.00  0.00    +0.000 A 
ATOM     15  H   UNL     1      42.220   4.545  12.023  0.00  0.00    +0.000 HD
ENDBRANCH   2   5
BRANCH   3  16
ATOM     16  C   UNL     1      47.163   3.488  16.882  0.00  0.00    +0.000 C 
BRANCH  16  17
ATOM     17  C   UNL     1      48.657   3.454  17.033  0.00  0.00    +0.000 A 
ATOM     18  C   UNL     1      49.343   4.610  17.384  0.00  0.00    +0.000 A 
ATOM     19  N   UNL     1      50.668   4.623  17.645  0.00  0.00    +0.000 NA
ATOM     20  C   UNL     1      51.308   3.431  17.534  0.00  0.00    +0.000 A 
ATOM     21  C   UNL     1      50.635   2.292  17.100  0.00  0.00    +0.000 A 
ATOM     22  N   UNL     1      49.305   2.276  16.839  0.00  0.00    +0.000 NA
BRANCH  20  23
ATOM     23  C   UNL     1      52.733   3.354  18.036  0.00  0.00    +0.000 C 
BRANCH  23  24
ATOM     24  N   UNL     1      53.190   2.136  18.714  0.00  0.00    +0.000 NA
ATOM     25  C   UNL     1      54.233   2.357  19.715  0.00  0.00    +0.000 C 
ATOM     26  C   UNL     1      55.528   1.926  19.056  0.00  0.00    +0.000 C 
ATOM     27  C   UNL     1      55.108   0.826  18.100  0.00  0.00    +0.000 C 
ATOM     28  C   UNL     1      53.627   1.059  17.830  0.00  0.00    +0.000 C 
ENDBRANCH  23  24
ENDBRANCH  20  23
ENDBRANCH  16  17
ENDBRANCH   3  16
TORSDOF 5
ENDMDL
MODEL 6
REMARK VINA RESULT:    -7.150      3.910      6.066
REMARK INTER + INTRA:          -9.449
REMARK INTER:                  -8.746
REMARK INTRA:                  -0.704
REMARK UNBOUND:                -0.209
REMARK  Name = 
REMARK  5 active torsions:
REMARK  status: ('A' for Active; 'I' for Inactive)
REMARK    1  A    between atoms: C_2  and  C_17
REMARK    2  A    between atoms: N_3  and  C_4
REMARK    3  A    between atoms: C_4  and  C_5
REMARK    4  A    between atoms: C_8  and  C_9
REMARK    5  A    between atoms: C_9  and  N_10
REMARK                            x       y       z     vdW  Elec       q    Type
REMARK                         _______ _______ _______ _____ _____    ______ ____
ROOT
ATOM      1  O   UNL     1      49.133   4.334  18.902  0.00  0.00    +0.000 OA
ATOM      2  C   UNL     1      50.158   4.593  18.277  0.00  0.00    +0.000 C 
ATOM      3  N   UNL     1      50.169   5.426  17.193  0.00  0.00    +0.000 N 
ATOM      4  H   UNL     1      51.027   5.607  16.687  0.00  0.00    +0.000 HD
ENDROOT
BRANCH   2   5
ATOM      5  C   UNL     1      51.445   3.991  18.599  0.00  0.00    +0.000 A 
ATOM      6  C   UNL     1      52.360   4.651  19.400  0.00  0.00    +0.000 A 
ATOM      7  S   UNL     1      53.775   3.733  19.696  0.00  0.00    +0.000 S 
ATOM      8  C   UNL     1      53.213   2.455  18.719  0.00  0.00    +0.000 A 
ATOM      9  N   UNL     1      53.951   1.323  18.542  0.00  0.00    +0.000 NA
ATOM     10  C   UNL     1      53.408   0.452  17.766  0.00  0.00    +0.000 A 
ATOM     11  N   UNL     1      52.199   0.598  17.141  0.00  0.00    +0.000 N 
ATOM     12  C   UNL     1      51.418   1.723  17.277  0.00  0.00    +0.000 A 
ATOM     13  O   UNL     1      50.336   1.819  16.707  0.00  0.00    +0.000 OA
ATOM     14  C   UNL     1      51.976   2.725  18.173  0.00  0.00    +0.000 A 
ATOM     15  H   UNL     1      51.827  -0.122  16.541  0.00  0.00    +0.000 HD
ENDBRANCH   2   5
BRANCH   3  16
ATOM     16  C   UNL     1      49.019   6.182  16.782  0.00  0.00    +0.000 C 
BRANCH  16  17
ATOM     17  C   UNL     1      48.288   5.518  15.650  0.00  0.00    +0.000 A 
ATOM     18  C   UNL     1      47.551   4.364  15.886  0.00  0.00    +0.000 A 
ATOM     19  N   UNL     1      46.781   3.782  14.941  0.00  0.00    +0.000 NA
ATOM     20  C   UNL     1      46.774   4.386  13.724  0.00  0.00    +0.000 A 
ATOM     21  C   UNL     1      47.580   5.492  13.467  0.00  0.00    +0.000 A 
ATOM     22  N   UNL     1      48.352   6.079  14.415  0.00  0.00    +0.000 NA
BRANCH  20  23
ATOM     23  C   UNL     1      45.758   3.905  12.712  0.00  0.00    +0.000 C 
BRANCH  23  24
ATOM     24  N   UNL     1      44.329   4.079  12.995  0.00  0.00    +0.000 NA
ATOM     25  C   UNL     1      43.444   3.302  12.127  0.00  0.00    +0.000 C 
ATOM     26  C   UNL     1      42.895   4.288  11.117  0.00  0.00    +0.000 C 
ATOM     27  C   UNL     1      42.853   5.604  11.870  0.00  0.00    +0.000 C 
ATOM     28  C   UNL     1      43.859   5.461  13.004  0.00  0.00    +0.000 C 
ENDBRANCH  23  24
ENDBRANCH  20  23
ENDBRANCH  16  17
ENDBRANCH   3  16
TORSDOF 5
ENDMDL
MODEL 7
REMARK VINA RESULT:    -7.075      3.924      9.356
REMARK INTER + INTRA:          -9.352
REMARK INTER:                  -8.701
REMARK INTRA:                  -0.651
REMARK UNBOUND:                -0.209
REMARK  Name = 
REMARK  5 active torsions:
REMARK  status: ('A' for Active; 'I' for Inactive)
REMARK    1  A    between atoms: C_2  and  C_17
REMARK    2  A    between atoms: N_3  and  C_4
REMARK    3  A    between atoms: C_4  and  C_5
REMARK    4  A    between atoms: C_8  and  C_9
REMARK    5  A    between atoms: C_9  and  N_10
REMARK                            x       y       z     vdW  Elec       q    Type
REMARK                         _______ _______ _______ _____ _____    ______ ____
ROOT
ATOM      1  O   UNL     1      47.197   3.268  13.789  0.00  0.00    +0.000 OA
ATOM      2  C   UNL     1      46.762   4.322  14.244  0.00  0.00    +0.000 C 
ATOM      3  N   UNL     1      46.751   4.599  15.582  0.00  0.00    +0.000 N 
ATOM      4  H   UNL     1      46.369   5.470  15.929  0.00  0.00    +0.000 HD
ENDROOT
BRANCH   2   5
ATOM      5  C   UNL     1      46.162   5.350  13.402  0.00  0.00    +0.000 A 
ATOM      6  C   UNL     1      46.842   6.519  13.111  0.00  0.00    +0.000 A 
ATOM      7  S   UNL     1      45.975   7.553  12.058  0.00  0.00    +0.000 S 
ATOM      8  C   UNL     1      44.652   6.480  12.009  0.00  0.00    +0.000 A 
ATOM      9  N   UNL     1      43.543   6.758  11.267  0.00  0.00    +0.000 NA
ATOM     10  C   UNL     1      42.619   5.865  11.340  0.00  0.00    +0.000 A 
ATOM     11  N   UNL     1      42.687   4.720  12.086  0.00  0.00    +0.000 N 
ATOM     12  C   UNL     1      43.777   4.395  12.861  0.00  0.00    +0.000 A 
ATOM     13  O   UNL     1      43.807   3.357  13.513  0.00  0.00    +0.000 OA
ATOM     14  C   UNL     1      44.864   5.361  12.786  0.00  0.00    +0.000 A 
ATOM     15  H   UNL     1      41.926   4.058  12.104  0.00  0.00    +0.000 HD
ENDBRANCH   2   5
BRANCH   3  16
ATOM     16  C   UNL     1      47.380   3.751  16.556  0.00  0.00    +0.000 C 
BRANCH  16  17
ATOM     17  C   UNL     1      47.758   4.509  17.797  0.00  0.00    +0.000 A 
ATOM     18  C   UNL     1      49.087   4.554  18.202  0.00  0.00    +0.000 A 
ATOM     19  N   UNL     1      49.510   5.307  19.240  0.00  0.00    +0.000 NA
ATOM     20  C   UNL     1      48.552   6.022  19.885  0.00  0.00    +0.000 A 
ATOM     21  C   UNL     1      47.211   5.910  19.531  0.00  0.00    +0.000 A 
ATOM     22  N   UNL     1      46.784   5.156  18.489  0.00  0.00    +0.000 NA
BRANCH  20  23
ATOM     23  C   UNL     1      49.011   7.048  20.898  0.00  0.00    +0.000 C 
BRANCH  23  24
ATOM     24  N   UNL     1      49.106   8.457  20.499  0.00  0.00    +0.000 NA
ATOM     25  C   UNL     1      48.034   9.305  21.023  0.00  0.00    +0.000 C 
ATOM     26  C   UNL     1      47.080   9.516  19.866  0.00  0.00    +0.000 C 
ATOM     27  C   UNL     1      47.969   9.464  18.638  0.00  0.00    +0.000 C 
ATOM     28  C   UNL     1      49.210   8.690  19.062  0.00  0.00    +0.000 C 
ENDBRANCH  23  24
ENDBRANCH  20  23
ENDBRANCH  16  17
ENDBRANCH   3  16
TORSDOF 5
ENDMDL
MODEL 8
REMARK VINA RESULT:    -6.973      2.433      3.463
REMARK INTER + INTRA:          -9.221
REMARK INTER:                  -8.812
REMARK INTRA:                  -0.409
REMARK UNBOUND:                -0.209
REMARK  Name = 
REMARK  5 active torsions:
REMARK  status: ('A' for Active; 'I' for Inactive)
REMARK    1  A    between atoms: C_2  and  C_17
REMARK    2  A    between atoms: N_3  and  C_4
REMARK    3  A    between atoms: C_4  and  C_5
REMARK    4  A    between atoms: C_8  and  C_9
REMARK    5  A    between atoms: C_9  and  N_10
REMARK                            x       y       z     vdW  Elec       q    Type
REMARK                         _______ _______ _______ _____ _____    ______ ____
ROOT
ATOM      1  O   UNL     1      50.176   6.662  15.389  0.00  0.00    +0.000 OA
ATOM      2  C   UNL     1      49.064   6.670  15.910  0.00  0.00    +0.000 C 
ATOM      3  N   UNL     1      47.909   6.594  15.183  0.00  0.00    +0.000 N 
ATOM      4  H   UNL     1      47.005   6.621  15.640  0.00  0.00    +0.000 HD
ENDROOT
BRANCH   2   5
ATOM      5  C   UNL     1      48.873   6.823  17.347  0.00  0.00    +0.000 A 
ATOM      6  C   UNL     1      48.648   8.068  17.907  0.00  0.00    +0.000 A 
ATOM      7  S   UNL     1      48.392   8.004  19.599  0.00  0.00    +0.000 S 
ATOM      8  C   UNL     1      48.627   6.317  19.623  0.00  0.00    +0.000 A 
ATOM      9  N   UNL     1      48.538   5.607  20.783  0.00  0.00    +0.000 NA
ATOM     10  C   UNL     1      48.755   4.345  20.651  0.00  0.00    +0.000 A 
ATOM     11  N   UNL     1      49.059   3.717  19.474  0.00  0.00    +0.000 N 
ATOM     12  C   UNL     1      49.171   4.386  18.276  0.00  0.00    +0.000 A 
ATOM     13  O   UNL     1      49.439   3.791  17.238  0.00  0.00    +0.000 OA
ATOM     14  C   UNL     1      48.902   5.813  18.369  0.00  0.00    +0.000 A 
ATOM     15  H   UNL     1      49.221   2.722  19.435  0.00  0.00    +0.000 HD
ENDBRANCH   2   5
BRANCH   3  16
ATOM     16  C   UNL     1      47.896   6.348  13.768  0.00  0.00    +0.000 C 
BRANCH  16  17
ATOM     17  C   UNL     1      46.792   5.408  13.374  0.00  0.00    +0.000 A 
ATOM     18  C   UNL     1      45.538   5.913  13.049  0.00  0.00    +0.000 A 
ATOM     19  N   UNL     1      44.537   5.137  12.579  0.00  0.00    +0.000 NA
ATOM     20  C   UNL     1      44.820   3.815  12.450  0.00  0.00    +0.000 A 
ATOM     21  C   UNL     1      46.048   3.300  12.856  0.00  0.00    +0.000 A 
ATOM     22  N   UNL     1      47.055   4.076  13.326  0.00  0.00    +0.000 NA
BRANCH  20  23
ATOM     23  C   UNL     1      43.814   2.954  11.718  0.00  0.00    +0.000 C 
BRANCH  23  24
ATOM     24  N   UNL     1      43.684   3.085  10.262  0.00  0.00    +0.000 NA
ATOM     25  C   UNL     1      44.302   1.997   9.502  0.00  0.00    +0.000 C 
ATOM     26  C   UNL     1      45.607   2.558   8.976  0.00  0.00    +0.000 C 
ATOM     27  C   UNL     1      45.326   4.037   8.789  0.00  0.00    +0.000 C 
ATOM     28  C   UNL     1      44.152   4.351   9.707  0.00  0.00    +0.000 C 
ENDBRANCH  23  24
ENDBRANCH  20  23
ENDBRANCH  16  17
ENDBRANCH   3  16
TORSDOF 5
ENDMDL
MODEL 9
REMARK VINA RESULT:    -6.925      3.102      8.941
REMARK INTER + INTRA:          -9.159
REMARK INTER:                  -8.276
REMARK INTRA:                  -0.883
REMARK UNBOUND:                -0.209
REMARK  Name = 
REMARK  5 active torsions:
REMARK  status: ('A' for Active; 'I' for Inactive)
REMARK    1  A    between atoms: C_2  and  C_17
REMARK    2  A    between atoms: N_3  and  C_4
REMARK    3  A    between atoms: C_4  and  C_5
REMARK    4  A    between atoms: C_8  and  C_9
REMARK    5  A    between atoms: C_9  and  N_10
REMARK                            x       y       z     vdW  Elec       q    Type
REMARK                         _______ _______ _______ _____ _____    ______ ____
ROOT
ATOM      1  O   UNL     1      44.531   7.473  11.537  0.00  0.00    +0.000 OA
ATOM      2  C   UNL     1      45.235   6.469  11.619  0.00  0.00    +0.000 C 
ATOM      3  N   UNL     1      46.571   6.527  11.901  0.00  0.00    +0.000 N 
ATOM      4  H   UNL     1      47.129   5.684  11.944  0.00  0.00    +0.000 HD
ENDROOT
BRANCH   2   5
ATOM      5  C   UNL     1      44.721   5.130  11.363  0.00  0.00    +0.000 A 
ATOM      6  C   UNL     1      43.983   4.455  12.319  0.00  0.00    +0.000 A 
ATOM      7  S   UNL     1      43.431   2.926  11.782  0.00  0.00    +0.000 S 
ATOM      8  C   UNL     1      44.209   3.115  10.278  0.00  0.00    +0.000 A 
ATOM      9  N   UNL     1      44.134   2.152   9.317  0.00  0.00    +0.000 NA
ATOM     10  C   UNL     1      44.784   2.425   8.240  0.00  0.00    +0.000 A 
ATOM     11  N   UNL     1      45.511   3.564   8.027  0.00  0.00    +0.000 N 
ATOM     12  C   UNL     1      45.629   4.564   8.965  0.00  0.00    +0.000 A 
ATOM     13  O   UNL     1      46.283   5.576   8.738  0.00  0.00    +0.000 OA
ATOM     14  C   UNL     1      44.882   4.315  10.190  0.00  0.00    +0.000 A 
ATOM     15  H   UNL     1      46.002   3.720   7.159  0.00  0.00    +0.000 HD
ENDBRANCH   2   5
BRANCH   3  16
ATOM     16  C   UNL     1      47.235   7.746  12.272  0.00  0.00    +0.000 C 
BRANCH  16  17
ATOM     17  C   UNL     1      47.810   7.669  13.658  0.00  0.00    +0.000 A 
ATOM     18  C   UNL     1      48.167   6.436  14.191  0.00  0.00    +0.000 A 
ATOM     19  N   UNL     1      48.791   6.308  15.382  0.00  0.00    +0.000 NA
ATOM     20  C   UNL     1      49.047   7.464  16.047  0.00  0.00    +0.000 A 
ATOM     21  C   UNL     1      48.613   8.690  15.550  0.00  0.00    +0.000 A 
ATOM     22  N   UNL     1      47.988   8.822  14.355  0.00  0.00    +0.000 NA
BRANCH  20  23
ATOM     23  C   UNL     1      49.941   7.386  17.265  0.00  0.00    +0.000 C 
BRANCH  23  24
ATOM     24  N   UNL     1      49.378   6.923  18.538  0.00  0.00    +0.000 NA
ATOM     25  C   UNL     1      49.697   5.533  18.869  0.00  0.00    +0.000 C 
ATOM     26  C   UNL     1      48.444   4.742  18.552  0.00  0.00    +0.000 C 
ATOM     27  C   UNL     1      47.314   5.722  18.803  0.00  0.00    +0.000 C 
ATOM     28  C   UNL     1      47.937   7.106  18.685  0.00  0.00    +0.000 C 
ENDBRANCH  23  24
ENDBRANCH  20  23
ENDBRANCH  16  17
ENDBRANCH   3  16
TORSDOF 5
ENDMDL
