MODEL 1
REMARK VINA RESULT:    -7.278      0.000      0.000
REMARK INTER + INTRA:         -12.070
REMARK INTER:                 -10.682
REMARK INTRA:                  -1.388
REMARK UNBOUND:                -1.388
REMARK  Name = 
REMARK  9 active torsions:
REMARK  status: ('A' for Active; 'I' for Inactive)
REMARK    1  A    between atoms: C_1  and  C_2
REMARK    2  A    between atoms: C_2  and  C_3
REMARK    3  A    between atoms: C_3  and  N_4
REMARK    4  A    between atoms: C_3  and  C_26
REMARK    5  A    between atoms: N_4  and  C_5
REMARK    6  A    between atoms: C_5  and  C_6
REMARK    7  A    between atoms: C_9  and  C_10
REMARK    8  A    between atoms: C_10  and  N_11
REMARK    9  A    between atoms: C_12  and  C_14
REMARK                            x       y       z     vdW  Elec       q    Type
REMARK                         _______ _______ _______ _____ _____    ______ ____
ROOT
ATOM      1  C   UNL     1      51.181   2.311  17.446  0.00  0.00    +0.000 A 
ATOM      2  C   UNL     1      51.794   3.567  17.570  0.00  0.00    +0.000 A 
ATOM      3  C   UNL     1      51.035   4.738  17.517  0.00  0.00    +0.000 A 
ATOM      4  C   UNL     1      49.648   4.678  17.332  0.00  0.00    +0.000 A 
ATOM      5  C   UNL     1      49.040   3.428  17.162  0.00  0.00    +0.000 A 
ATOM      6  C   UNL     1      49.797   2.257  17.226  0.00  0.00    +0.000 A 
ENDROOT
BRANCH   1   7
ATOM      7  C   UNL     1      51.992   1.035  17.516  0.00  0.00    +0.000 C 
BRANCH   7   8
ATOM      8  N   UNL     1      52.993   1.100  18.584  0.00  0.00    +0.000 NA
ATOM      9  H   UNL     1      53.140   2.073  18.838  0.00  0.00    +0.000 HD
BRANCH   8  10
ATOM     10  C   UNL     1      54.289   0.499  18.213  0.00  0.00    +0.000 C 
BRANCH  10  11
ATOM     11  C   UNL     1      54.277  -1.029  18.303  0.00  0.00    +0.000 A 
ATOM     12  C   UNL     1      54.966  -1.794  17.361  0.00  0.00    +0.000 A 
ATOM     13  C   UNL     1      54.977  -3.178  17.500  0.00  0.00    +0.000 A 
ATOM     14  C   UNL     1      54.320  -3.765  18.574  0.00  0.00    +0.000 A 
ATOM     15  C   UNL     1      53.675  -2.937  19.475  0.00  0.00    +0.000 A 
ATOM     16  N   UNL     1      53.640  -1.594  19.364  0.00  0.00    +0.000 NA
ENDBRANCH  10  11
BRANCH  10  18
ATOM     17  C   UNL     1      55.480   2.356  16.859  0.00  0.00    +0.000 C 
ATOM     18  C   UNL     1      54.866   0.963  16.853  0.00  0.00    +0.000 C 
ENDBRANCH  10  18
ENDBRANCH   8  10
ENDBRANCH   7   8
ENDBRANCH   1   7
BRANCH   4  19
ATOM     19  C   UNL     1      48.827   5.935  17.263  0.00  0.00    +0.000 C 
BRANCH  19  20
ATOM     20  N   UNL     1      47.939   5.907  16.130  0.00  0.00    +0.000 N 
ATOM     21  C   UNL     1      48.365   6.311  14.893  0.00  0.00    +0.000 C 
ATOM     22  O   UNL     1      49.520   6.675  14.691  0.00  0.00    +0.000 OA
ATOM     23  H   UNL     1      46.945   5.821  16.321  0.00  0.00    +0.000 HD
BRANCH  21  24
ATOM     24  C   UNL     1      47.389   6.227  13.801  0.00  0.00    +0.000 A 
ATOM     25  C   UNL     1      47.006   7.386  13.139  0.00  0.00    +0.000 A 
ATOM     26  S   UNL     1      45.898   7.117  11.873  0.00  0.00    +0.000 S 
ATOM     27  C   UNL     1      45.852   5.447  12.196  0.00  0.00    +0.000 A 
ATOM     28  N   UNL     1      45.053   4.618  11.471  0.00  0.00    +0.000 NA
ATOM     29  C   UNL     1      45.091   3.384  11.842  0.00  0.00    +0.000 A 
ATOM     30  N   UNL     1      45.861   2.899  12.867  0.00  0.00    +0.000 N 
ATOM     31  C   UNL     1      46.711   3.694  13.606  0.00  0.00    +0.000 A 
ATOM     32  O   UNL     1      47.418   3.219  14.488  0.00  0.00    +0.000 OA
ATOM     33  C   UNL     1      46.688   5.097  13.240  0.00  0.00    +0.000 A 
ATOM     34  H   UNL     1      45.854   1.917  13.101  0.00  0.00    +0.000 HD
ENDBRANCH  21  24
ENDBRANCH  19  20
ENDBRANCH   4  19
TORSDOF 8
ENDMDL
MODEL 2
REMARK VINA RESULT:    -7.213      5.085      9.517
REMARK INTER + INTRA:         -11.975
REMARK INTER:                 -10.906
REMARK INTRA:                  -1.069
REMARK UNBOUND:                -1.388
REMARK  Name = 
REMARK  9 active torsions:
REMARK  status: ('A' for Active; 'I' for Inactive)
REMARK    1  A    between atoms: C_1  and  C_2
REMARK    2  A    between atoms: C_2  and  C_3
REMARK    3  A    between atoms: C_3  and  N_4
REMARK    4  A    between atoms: C_3  and  C_26
REMARK    5  A    between atoms: N_4  and  C_5
REMARK    6  A    between atoms: C_5  and  C_6
REMARK    7  A    between atoms: C_9  and  C_10
REMARK    8  A    between atoms: C_10  and  N_11
REMARK    9  A    between atoms: C_12  and  C_14
REMARK                            x       y       z     vdW  Elec       q    Type
REMARK                         _______ _______ _______ _____ _____    ______ ____
ROOT
ATOM      1  C   UNL     1      45.382   6.813  11.481  0.00  0.00    +0.000 A 
ATOM      2  C   UNL     1      46.609   6.306  11.936  0.00  0.00    +0.000 A 
ATOM      3  C   UNL     1      47.384   7.027  12.847  0.00  0.00    +0.000 A 
ATOM      4  C   UNL     1      46.951   8.274  13.315  0.00  0.00    +0.000 A 
ATOM      5  C   UNL     1      45.750   8.803  12.828  0.00  0.00    +0.000 A 
ATOM      6  C   UNL     1      44.970   8.077  11.926  0.00  0.00    +0.000 A 
ENDROOT
BRANCH   1   7
ATOM      7  C   UNL     1      44.528   6.032  10.505  0.00  0.00    +0.000 C 
BRANCH   7   8
ATOM      8  N   UNL     1      45.353   5.207   9.618  0.00  0.00    +0.000 NA
ATOM      9  H   UNL     1      45.567   5.739   8.780  0.00  0.00    +0.000 HD
BRANCH   8  10
ATOM     10  C   UNL     1      44.710   3.936   9.231  0.00  0.00    +0.000 C 
BRANCH  10  11
ATOM     11  C   UNL     1      45.606   3.070   8.342  0.00  0.00    +0.000 A 
ATOM     12  C   UNL     1      46.421   3.661   7.377  0.00  0.00    +0.000 A 
ATOM     13  C   UNL     1      47.260   2.851   6.619  0.00  0.00    +0.000 A 
ATOM     14  C   UNL     1      47.282   1.481   6.848  0.00  0.00    +0.000 A 
ATOM     15  C   UNL     1      46.457   0.973   7.837  0.00  0.00    +0.000 A 
ATOM     16  N   UNL     1      45.628   1.730   8.582  0.00  0.00    +0.000 NA
ENDBRANCH  10  11
BRANCH  10  18
ATOM     17  C   UNL     1      45.037   3.007  11.624  0.00  0.00    +0.000 C 
ATOM     18  C   UNL     1      44.134   3.105  10.403  0.00  0.00    +0.000 C 
ENDBRANCH  10  18
ENDBRANCH   8  10
ENDBRANCH   7   8
ENDBRANCH   1   7
BRANCH   4  19
ATOM     19  C   UNL     1      47.785   9.061  14.287  0.00  0.00    +0.000 C 
BRANCH  19  20
ATOM     20  N   UNL     1      47.968   8.331  15.515  0.00  0.00    +0.000 N 
ATOM     21  C   UNL     1      49.196   8.264  16.117  0.00  0.00    +0.000 C 
ATOM     22  O   UNL     1      50.176   8.846  15.660  0.00  0.00    +0.000 OA
ATOM     23  H   UNL     1      47.236   7.678  15.780  0.00  0.00    +0.000 HD
BRANCH  21  24
ATOM     24  C   UNL     1      49.273   7.510  17.373  0.00  0.00    +0.000 A 
ATOM     25  C   UNL     1      49.705   8.150  18.527  0.00  0.00    +0.000 A 
ATOM     26  S   UNL     1      49.700   7.150  19.907  0.00  0.00    +0.000 S 
ATOM     27  C   UNL     1      49.166   5.812  19.001  0.00  0.00    +0.000 A 
ATOM     28  N   UNL     1      48.983   4.600  19.591  0.00  0.00    +0.000 NA
ATOM     29  C   UNL     1      48.609   3.666  18.783  0.00  0.00    +0.000 A 
ATOM     30  N   UNL     1      48.392   3.835  17.441  0.00  0.00    +0.000 N 
ATOM     31  C   UNL     1      48.532   5.051  16.806  0.00  0.00    +0.000 A 
ATOM     32  O   UNL     1      48.289   5.175  15.611  0.00  0.00    +0.000 OA
ATOM     33  C   UNL     1      48.973   6.129  17.670  0.00  0.00    +0.000 A 
ATOM     34  H   UNL     1      48.088   3.065  16.864  0.00  0.00    +0.000 HD
ENDBRANCH  21  24
ENDBRANCH  19  20
ENDBRANCH   4  19
TORSDOF 8
ENDMDL
MODEL 3
REMARK VINA RESULT:    -7.179      3.232      9.900
REMARK INTER + INTRA:         -11.924
REMARK INTER:                 -10.813
REMARK INTRA:                  -1.112
REMARK UNBOUND:                -1.388
REMARK  Name = 
REMARK  9 active torsions:
REMARK  status: ('A' for Active; 'I' for Inactive)
REMARK    1  A    between atoms: C_1  and  C_2
REMARK    2  A    between atoms: C_2  and  C_3
REMARK    3  A    between atoms: C_3  and  N_4
REMARK    4  A    between atoms: C_3  and  C_26
REMARK    5  A    between atoms: N_4  and  C_5
REMARK    6  A    between atoms: C_5  and  C_6
REMARK    7  A    between atoms: C_9  and  C_10
REMARK    8  A    between atoms: C_10  and  N_11
REMARK    9  A    between atoms: C_12  and  C_14
REMARK                            x       y       z     vdW  Elec       q    Type
REMARK                         _______ _______ _______ _____ _____    ______ ____
ROOT
ATOM      1  C   UNL     1      47.100   5.594  13.765  0.00  0.00    +0.000 A 
ATOM      2  C   UNL     1      46.753   4.464  14.520  0.00  0.00    +0.000 A 
ATOM      3  C   UNL     1      47.308   4.253  15.784  0.00  0.00    +0.000 A 
ATOM      4  C   UNL     1      48.227   5.166  16.317  0.00  0.00    +0.000 A 
ATOM      5  C   UNL     1      48.609   6.271  15.547  0.00  0.00    +0.000 A 
ATOM      6  C   UNL     1      48.046   6.487  14.288  0.00  0.00    +0.000 A 
ENDROOT
BRANCH   1   7
ATOM      7  C   UNL     1      46.493   5.840  12.401  0.00  0.00    +0.000 C 
BRANCH   7   8
ATOM      8  N   UNL     1      45.441   4.864  12.104  0.00  0.00    +0.000 NA
ATOM      9  H   UNL     1      45.852   3.935  12.077  0.00  0.00    +0.000 HD
BRANCH   8  10
ATOM     10  C   UNL     1      44.745   5.120  10.827  0.00  0.00    +0.000 C 
BRANCH  10  11
ATOM     11  C   UNL     1      45.236   4.212   9.697  0.00  0.00    +0.000 A 
ATOM     12  C   UNL     1      45.022   2.835   9.758  0.00  0.00    +0.000 A 
ATOM     13  C   UNL     1      45.436   2.043   8.691  0.00  0.00    +0.000 A 
ATOM     14  C   UNL     1      46.035   2.638   7.588  0.00  0.00    +0.000 A 
ATOM     15  C   UNL     1      46.195   4.013   7.595  0.00  0.00    +0.000 A 
ATOM     16  N   UNL     1      45.812   4.805   8.615  0.00  0.00    +0.000 NA
ENDBRANCH  10  11
BRANCH  10  18
ATOM     17  C   UNL     1      42.626   5.391  12.287  0.00  0.00    +0.000 C 
ATOM     18  C   UNL     1      43.199   5.110  10.906  0.00  0.00    +0.000 C 
ENDBRANCH  10  18
ENDBRANCH   8  10
ENDBRANCH   7   8
ENDBRANCH   1   7
BRANCH   4  19
ATOM     19  C   UNL     1      48.836   4.939  17.672  0.00  0.00    +0.000 C 
BRANCH  19  20
ATOM     20  N   UNL     1      50.160   4.386  17.554  0.00  0.00    +0.000 N 
ATOM     21  C   UNL     1      51.003   4.342  18.632  0.00  0.00    +0.000 C 
ATOM     22  O   UNL     1      50.657   4.735  19.743  0.00  0.00    +0.000 OA
ATOM     23  H   UNL     1      50.530   4.263  16.616  0.00  0.00    +0.000 HD
BRANCH  21  24
ATOM     24  C   UNL     1      52.324   3.743  18.411  0.00  0.00    +0.000 A 
ATOM     25  C   UNL     1      53.464   4.480  18.704  0.00  0.00    +0.000 A 
ATOM     26  S   UNL     1      54.916   3.630  18.431  0.00  0.00    +0.000 S 
ATOM     27  C   UNL     1      54.074   2.265  17.866  0.00  0.00    +0.000 A 
ATOM     28  N   UNL     1      54.743   1.162  17.433  0.00  0.00    +0.000 NA
ATOM     29  C   UNL     1      53.984   0.214  17.001  0.00  0.00    +0.000 A 
ATOM     30  N   UNL     1      52.615   0.262  16.970  0.00  0.00    +0.000 N 
ATOM     31  C   UNL     1      51.893   1.342  17.429  0.00  0.00    +0.000 A 
ATOM     32  O   UNL     1      50.667   1.334  17.426  0.00  0.00    +0.000 OA
ATOM     33  C   UNL     1      52.704   2.445  17.906  0.00  0.00    +0.000 A 
ATOM     34  H   UNL     1      52.076  -0.521  16.630  0.00  0.00    +0.000 HD
ENDBRANCH  21  24
ENDBRANCH  19  20
ENDBRANCH   4  19
TORSDOF 8
ENDMDL
MODEL 4
REMARK VINA RESULT:    -6.977      4.681      6.541
REMARK INTER + INTRA:         -11.628
REMARK INTER:                  -9.899
REMARK INTRA:                  -1.730
REMARK UNBOUND:                -1.388
REMARK  Name = 
REMARK  9 active torsions:
REMARK  status: ('A' for Active; 'I' for Inactive)
REMARK    1  A    between atoms: C_1  and  C_2
REMARK    2  A    between atoms: C_2  and  C_3
REMARK    3  A    between atoms: C_3  and  N_4
REMARK    4  A    between atoms: C_3  and  C_26
REMARK    5  A    between atoms: N_4  and  C_5
REMARK    6  A    between atoms: C_5  and  C_6
REMARK    7  A    between atoms: C_9  and  C_10
REMARK    8  A    between atoms: C_10  and  N_11
REMARK    9  A    between atoms: C_12  and  C_14
REMARK                            x       y       z     vdW  Elec       q    Type
REMARK                         _______ _______ _______ _____ _____    ______ ____
ROOT
ATOM      1  C   UNL     1      49.557   8.382  15.711  0.00  0.00    +0.000 A 
ATOM      2  C   UNL     1      50.149   7.526  14.770  0.00  0.00    +0.000 A 
ATOM      3  C   UNL     1      49.606   7.387  13.491  0.00  0.00    +0.000 A 
ATOM      4  C   UNL     1      48.454   8.096  13.129  0.00  0.00    +0.000 A 
ATOM      5  C   UNL     1      47.836   8.917  14.080  0.00  0.00    +0.000 A 
ATOM      6  C   UNL     1      48.385   9.064  15.354  0.00  0.00    +0.000 A 
ENDROOT
BRANCH   1   7
ATOM      7  C   UNL     1      50.147   8.552  17.094  0.00  0.00    +0.000 C 
BRANCH   7   8
ATOM      8  N   UNL     1      50.036   7.315  17.874  0.00  0.00    +0.000 NA
ATOM      9  H   UNL     1      50.620   6.603  17.445  0.00  0.00    +0.000 HD
BRANCH   8  10
ATOM     10  C   UNL     1      48.654   6.807  17.976  0.00  0.00    +0.000 C 
BRANCH  10  11
ATOM     11  C   UNL     1      48.551   5.312  17.661  0.00  0.00    +0.000 A 
ATOM     12  C   UNL     1      49.706   4.546  17.504  0.00  0.00    +0.000 A 
ATOM     13  C   UNL     1      49.580   3.181  17.268  0.00  0.00    +0.000 A 
ATOM     14  C   UNL     1      48.314   2.610  17.208  0.00  0.00    +0.000 A 
ATOM     15  C   UNL     1      47.218   3.434  17.392  0.00  0.00    +0.000 A 
ATOM     16  N   UNL     1      47.308   4.760  17.615  0.00  0.00    +0.000 NA
ENDBRANCH  10  11
BRANCH  10  18
ATOM     17  C   UNL     1      47.134   8.438  19.290  0.00  0.00    +0.000 C 
ATOM     18  C   UNL     1      47.926   7.138  19.302  0.00  0.00    +0.000 C 
ENDBRANCH  10  18
ENDBRANCH   8  10
ENDBRANCH   7   8
ENDBRANCH   1   7
BRANCH   4  19
ATOM     19  C   UNL     1      47.857   7.943  11.758  0.00  0.00    +0.000 C 
BRANCH  19  20
ATOM     20  N   UNL     1      47.112   6.715  11.656  0.00  0.00    +0.000 N 
ATOM     21  C   UNL     1      45.750   6.706  11.793  0.00  0.00    +0.000 C 
ATOM     22  O   UNL     1      45.108   7.738  11.969  0.00  0.00    +0.000 OA
ATOM     23  H   UNL     1      47.636   5.847  11.730  0.00  0.00    +0.000 HD
BRANCH  21  24
ATOM     24  C   UNL     1      45.084   5.406  11.656  0.00  0.00    +0.000 A 
ATOM     25  C   UNL     1      44.416   4.864  12.747  0.00  0.00    +0.000 A 
ATOM     26  S   UNL     1      43.662   3.372  12.415  0.00  0.00    +0.000 S 
ATOM     27  C   UNL     1      44.242   3.374  10.815  0.00  0.00    +0.000 A 
ATOM     28  N   UNL     1      43.974   2.338   9.975  0.00  0.00    +0.000 NA
ATOM     29  C   UNL     1      44.501   2.452   8.804  0.00  0.00    +0.000 A 
ATOM     30  N   UNL     1      45.266   3.511   8.391  0.00  0.00    +0.000 N 
ATOM     31  C   UNL     1      45.536   4.599   9.195  0.00  0.00    +0.000 A 
ATOM     32  O   UNL     1      46.188   5.550   8.779  0.00  0.00    +0.000 OA
ATOM     33  C   UNL     1      44.982   4.507  10.531  0.00  0.00    +0.000 A 
ATOM     34  H   UNL     1      45.641   3.547   7.455  0.00  0.00    +0.000 HD
ENDBRANCH  21  24
ENDBRANCH  19  20
ENDBRANCH   4  19
TORSDOF 8
ENDMDL
MODEL 5
REMARK VINA RESULT:    -6.628      3.785      5.414
REMARK INTER + INTRA:         -11.115
REMARK INTER:                  -9.664
REMARK INTRA:                  -1.451
REMARK UNBOUND:                -1.388
REMARK  Name = 
REMARK  9 active torsions:
REMARK  status: ('A' for Active; 'I' for Inactive)
REMARK    1  A    between atoms: C_1  and  C_2
REMARK    2  A    between atoms: C_2  and  C_3
REMARK    3  A    between atoms: C_3  and  N_4
REMARK    4  A    between atoms: C_3  and  C_26
REMARK    5  A    between atoms: N_4  and  C_5
REMARK    6  A    between atoms: C_5  and  C_6
REMARK    7  A    between atoms: C_9  and  C_10
REMARK    8  A    between atoms: C_10  and  N_11
REMARK    9  A    between atoms: C_12  and  C_14
REMARK                            x       y       z     vdW  Elec       q    Type
REMARK                         _______ _______ _______ _____ _____    ______ ____
ROOT
ATOM      1  C   UNL     1      50.347   7.336  15.498  0.00  0.00    +0.000 A 
ATOM      2  C   UNL     1      50.906   8.085  14.452  0.00  0.00    +0.000 A 
ATOM      3  C   UNL     1      50.156   8.393  13.316  0.00  0.00    +0.000 A 
ATOM      4  C   UNL     1      48.831   7.953  13.199  0.00  0.00    +0.000 A 
ATOM      5  C   UNL     1      48.285   7.168  14.221  0.00  0.00    +0.000 A 
ATOM      6  C   UNL     1      49.032   6.869  15.362  0.00  0.00    +0.000 A 
ENDROOT
BRANCH   1   7
ATOM      7  C   UNL     1      51.147   7.009  16.741  0.00  0.00    +0.000 C 
BRANCH   7   8
ATOM      8  N   UNL     1      51.788   5.696  16.629  0.00  0.00    +0.000 NA
ATOM      9  H   UNL     1      51.466   5.244  15.778  0.00  0.00    +0.000 HD
BRANCH   8  10
ATOM     10  C   UNL     1      51.517   4.809  17.778  0.00  0.00    +0.000 C 
BRANCH  10  11
ATOM     11  C   UNL     1      50.171   4.089  17.661  0.00  0.00    +0.000 A 
ATOM     12  C   UNL     1      49.028   4.636  18.243  0.00  0.00    +0.000 A 
ATOM     13  C   UNL     1      47.811   3.983  18.076  0.00  0.00    +0.000 A 
ATOM     14  C   UNL     1      47.757   2.814  17.325  0.00  0.00    +0.000 A 
ATOM     15  C   UNL     1      48.932   2.345  16.765  0.00  0.00    +0.000 A 
ATOM     16  N   UNL     1      50.126   2.951  16.914  0.00  0.00    +0.000 NA
ENDBRANCH  10  11
BRANCH  10  18
ATOM     17  C   UNL     1      52.929   3.642  19.606  0.00  0.00    +0.000 C 
ATOM     18  C   UNL     1      52.647   3.807  18.119  0.00  0.00    +0.000 C 
ENDBRANCH  10  18
ENDBRANCH   8  10
ENDBRANCH   7   8
ENDBRANCH   1   7
BRANCH   4  19
ATOM     19  C   UNL     1      48.021   8.272  11.974  0.00  0.00    +0.000 C 
BRANCH  19  20
ATOM     20  N   UNL     1      47.405   7.084  11.442  0.00  0.00    +0.000 N 
ATOM     21  C   UNL     1      46.044   6.995  11.314  0.00  0.00    +0.000 C 
ATOM     22  O   UNL     1      45.302   7.928  11.608  0.00  0.00    +0.000 OA
ATOM     23  H   UNL     1      47.974   6.243  11.403  0.00  0.00    +0.000 HD
BRANCH  21  24
ATOM     24  C   UNL     1      45.517   5.749  10.746  0.00  0.00    +0.000 A 
ATOM     25  C   UNL     1      45.729   5.469   9.402  0.00  0.00    +0.000 A 
ATOM     26  S   UNL     1      45.091   3.969   8.907  0.00  0.00    +0.000 S 
ATOM     27  C   UNL     1      44.465   3.662  10.459  0.00  0.00    +0.000 A 
ATOM     28  N   UNL     1      43.760   2.527  10.715  0.00  0.00    +0.000 NA
ATOM     29  C   UNL     1      43.315   2.437  11.923  0.00  0.00    +0.000 A 
ATOM     30  N   UNL     1      43.519   3.373  12.902  0.00  0.00    +0.000 N 
ATOM     31  C   UNL     1      44.255   4.521  12.699  0.00  0.00    +0.000 A 
ATOM     32  O   UNL     1      44.454   5.317  13.610  0.00  0.00    +0.000 OA
ATOM     33  C   UNL     1      44.758   4.679  11.349  0.00  0.00    +0.000 A 
ATOM     34  H   UNL     1      43.154   3.237  13.833  0.00  0.00    +0.000 HD
ENDBRANCH  21  24
ENDBRANCH  19  20
ENDBRANCH   4  19
TORSDOF 8
ENDMDL
MODEL 6
REMARK VINA RESULT:    -6.186      7.809      8.682
REMARK INTER + INTRA:         -10.468
REMARK INTER:                  -9.264
REMARK INTRA:                  -1.204
REMARK UNBOUND:                -1.388
REMARK  Name = 
REMARK  9 active torsions:
REMARK  status: ('A' for Active; 'I' for Inactive)
REMARK    1  A    between atoms: C_1  and  C_2
REMARK    2  A    between atoms: C_2  and  C_3
REMARK    3  A    between atoms: C_3  and  N_4
REMARK    4  A    between atoms: C_3  and  C_26
REMARK    5  A    between atoms: N_4  and  C_5
REMARK    6  A    between atoms: C_5  and  C_6
REMARK    7  A    between atoms: C_9  and  C_10
REMARK    8  A    between atoms: C_10  and  N_11
REMARK    9  A    between atoms: C_12  and  C_14
REMARK                            x       y       z     vdW  Elec       q    Type
REMARK                         _______ _______ _______ _____ _____    ______ ____
ROOT
ATOM      1  C   UNL     1      49.970   9.052  11.468  0.00  0.00    +0.000 A 
ATOM      2  C   UNL     1      49.016  10.056  11.692  0.00  0.00    +0.000 A 
ATOM      3  C   UNL     1      47.741   9.736  12.163  0.00  0.00    +0.000 A 
ATOM      4  C   UNL     1      47.391   8.403  12.412  0.00  0.00    +0.000 A 
ATOM      5  C   UNL     1      48.325   7.395  12.147  0.00  0.00    +0.000 A 
ATOM      6  C   UNL     1      49.604   7.716  11.687  0.00  0.00    +0.000 A 
ENDROOT
BRANCH   1   7
ATOM      7  C   UNL     1      51.360   9.390  10.973  0.00  0.00    +0.000 C 
BRANCH   7   8
ATOM      8  N   UNL     1      52.296   8.292  11.230  0.00  0.00    +0.000 NA
ATOM      9  H   UNL     1      52.608   8.346  12.196  0.00  0.00    +0.000 HD
BRANCH   8  10
ATOM     10  C   UNL     1      53.476   8.306  10.342  0.00  0.00    +0.000 C 
BRANCH  10  11
ATOM     11  C   UNL     1      53.453   7.171   9.315  0.00  0.00    +0.000 A 
ATOM     12  C   UNL     1      52.734   7.312   8.128  0.00  0.00    +0.000 A 
ATOM     13  C   UNL     1      52.773   6.282   7.193  0.00  0.00    +0.000 A 
ATOM     14  C   UNL     1      53.535   5.149   7.452  0.00  0.00    +0.000 A 
ATOM     15  C   UNL     1      54.234   5.093   8.645  0.00  0.00    +0.000 A 
ATOM     16  N   UNL     1      54.210   6.070   9.573  0.00  0.00    +0.000 NA
ENDBRANCH  10  11
BRANCH  10  18
ATOM     17  C   UNL     1      54.887  10.474  10.289  0.00  0.00    +0.000 C 
ATOM     18  C   UNL     1      53.768   9.661   9.654  0.00  0.00    +0.000 C 
ENDBRANCH  10  18
ENDBRANCH   8  10
ENDBRANCH   7   8
ENDBRANCH   1   7
BRANCH   4  19
ATOM     19  C   UNL     1      46.017   8.049  12.909  0.00  0.00    +0.000 C 
BRANCH  19  20
ATOM     20  N   UNL     1      45.671   6.699  12.547  0.00  0.00    +0.000 N 
ATOM     21  C   UNL     1      44.612   6.442  11.718  0.00  0.00    +0.000 C 
ATOM     22  O   UNL     1      43.942   7.344  11.223  0.00  0.00    +0.000 OA
ATOM     23  H   UNL     1      46.069   5.952  13.109  0.00  0.00    +0.000 HD
BRANCH  21  24
ATOM     24  C   UNL     1      44.354   5.034  11.397  0.00  0.00    +0.000 A 
ATOM     25  C   UNL     1      43.614   4.258  12.279  0.00  0.00    +0.000 A 
ATOM     26  S   UNL     1      43.369   2.659  11.744  0.00  0.00    +0.000 S 
ATOM     27  C   UNL     1      44.285   2.932  10.336  0.00  0.00    +0.000 A 
ATOM     28  N   UNL     1      44.496   1.934   9.436  0.00  0.00    +0.000 NA
ATOM     29  C   UNL     1      45.233   2.269   8.433  0.00  0.00    +0.000 A 
ATOM     30  N   UNL     1      45.773   3.513   8.241  0.00  0.00    +0.000 N 
ATOM     31  C   UNL     1      45.559   4.565   9.107  0.00  0.00    +0.000 A 
ATOM     32  O   UNL     1      46.022   5.677   8.882  0.00  0.00    +0.000 OA
ATOM     33  C   UNL     1      44.752   4.232  10.264  0.00  0.00    +0.000 A 
ATOM     34  H   UNL     1      46.333   3.715   7.426  0.00  0.00    +0.000 HD
ENDBRANCH  21  24
ENDBRANCH  19  20
ENDBRANCH   4  19
TORSDOF 8
ENDMDL
MODEL 7
REMARK VINA RESULT:    -5.885      3.784      6.906
REMARK INTER + INTRA:         -10.026
REMARK INTER:                  -8.973
REMARK INTRA:                  -1.052
REMARK UNBOUND:                -1.388
REMARK  Name = 
REMARK  9 active torsions:
REMARK  status: ('A' for Active; 'I' for Inactive)
REMARK    1  A    between atoms: C_1  and  C_2
REMARK    2  A    between atoms: C_2  and  C_3
REMARK    3  A    between atoms: C_3  and  N_4
REMARK    4  A    between atoms: C_3  and  C_26
REMARK    5  A    between atoms: N_4  and  C_5
REMARK    6  A    between atoms: C_5  and  C_6
REMARK    7  A    between atoms: C_9  and  C_10
REMARK    8  A    between atoms: C_10  and  N_11
REMARK    9  A    between atoms: C_12  and  C_14
REMARK                            x       y       z     vdW  Elec       q    Type
REMARK                         _______ _______ _______ _____ _____    ______ ____
ROOT
ATOM      1  C   UNL     1      47.379   5.946  14.254  0.00  0.00    +0.000 A 
ATOM      2  C   UNL     1      46.950   4.614  14.161  0.00  0.00    +0.000 A 
ATOM      3  C   UNL     1      46.093   4.211  13.135  0.00  0.00    +0.000 A 
ATOM      4  C   UNL     1      45.641   5.135  12.184  0.00  0.00    +0.000 A 
ATOM      5  C   UNL     1      46.031   6.474  12.300  0.00  0.00    +0.000 A 
ATOM      6  C   UNL     1      46.897   6.874  13.320  0.00  0.00    +0.000 A 
ENDROOT
BRANCH   1   7
ATOM      7  C   UNL     1      48.320   6.390  15.353  0.00  0.00    +0.000 C 
BRANCH   7   8
ATOM      8  N   UNL     1      48.402   5.387  16.419  0.00  0.00    +0.000 NA
ATOM      9  H   UNL     1      47.632   5.532  17.066  0.00  0.00    +0.000 HD
BRANCH   8  10
ATOM     10  C   UNL     1      49.674   5.426  17.167  0.00  0.00    +0.000 C 
BRANCH  10  11
ATOM     11  C   UNL     1      50.359   4.059  17.237  0.00  0.00    +0.000 A 
ATOM     12  C   UNL     1      51.566   3.912  17.920  0.00  0.00    +0.000 A 
ATOM     13  C   UNL     1      52.138   2.647  18.007  0.00  0.00    +0.000 A 
ATOM     14  C   UNL     1      51.492   1.561  17.431  0.00  0.00    +0.000 A 
ATOM     15  C   UNL     1      50.288   1.786  16.787  0.00  0.00    +0.000 A 
ATOM     16  N   UNL     1      49.712   2.999  16.679  0.00  0.00    +0.000 NA
ENDBRANCH  10  11
BRANCH  10  18
ATOM     17  C   UNL     1      50.954   7.600  17.744  0.00  0.00    +0.000 C 
ATOM     18  C   UNL     1      50.674   6.517  16.712  0.00  0.00    +0.000 C 
ENDBRANCH  10  18
ENDBRANCH   8  10
ENDBRANCH   7   8
ENDBRANCH   1   7
BRANCH   4  19
ATOM     19  C   UNL     1      44.709   4.711  11.083  0.00  0.00    +0.000 C 
BRANCH  19  20
ATOM     20  N   UNL     1      45.394   3.888  10.119  0.00  0.00    +0.000 N 
ATOM     21  C   UNL     1      44.834   2.725   9.663  0.00  0.00    +0.000 C 
ATOM     22  O   UNL     1      43.719   2.356  10.024  0.00  0.00    +0.000 OA
ATOM     23  H   UNL     1      46.385   4.062   9.983  0.00  0.00    +0.000 HD
BRANCH  21  24
ATOM     24  C   UNL     1      45.604   1.969   8.670  0.00  0.00    +0.000 A 
ATOM     25  C   UNL     1      45.572   0.581   8.695  0.00  0.00    +0.000 A 
ATOM     26  S   UNL     1      46.485  -0.147   7.454  0.00  0.00    +0.000 S 
ATOM     27  C   UNL     1      46.996   1.367   6.869  0.00  0.00    +0.000 A 
ATOM     28  N   UNL     1      47.843   1.454   5.808  0.00  0.00    +0.000 NA
ATOM     29  C   UNL     1      48.175   2.659   5.489  0.00  0.00    +0.000 A 
ATOM     30  N   UNL     1      47.731   3.786   6.129  0.00  0.00    +0.000 N 
ATOM     31  C   UNL     1      46.846   3.749   7.185  0.00  0.00    +0.000 A 
ATOM     32  O   UNL     1      46.436   4.780   7.707  0.00  0.00    +0.000 OA
ATOM     33  C   UNL     1      46.460   2.413   7.595  0.00  0.00    +0.000 A 
ATOM     34  H   UNL     1      48.019   4.704   5.822  0.00  0.00    +0.000 HD
ENDBRANCH  21  24
ENDBRANCH  19  20
ENDBRANCH   4  19
TORSDOF 8
ENDMDL
MODEL 8
REMARK VINA RESULT:    -5.782      5.386     10.015
REMARK INTER + INTRA:          -9.874
REMARK INTER:                  -8.622
REMARK INTRA:                  -1.252
REMARK UNBOUND:                -1.388
REMARK  Name = 
REMARK  9 active torsions:
REMARK  status: ('A' for Active; 'I' for Inactive)
REMARK    1  A    between atoms: C_1  and  C_2
REMARK    2  A    between atoms: C_2  and  C_3
REMARK    3  A    between atoms: C_3  and  N_4
REMARK    4  A    between atoms: C_3  and  C_26
REMARK    5  A    between atoms: N_4  and  C_5
REMARK    6  A    between atoms: C_5  and  C_6
REMARK    7  A    between atoms: C_9  and  C_10
REMARK    8  A    between atoms: C_10  and  N_11
REMARK    9  A    between atoms: C_12  and  C_14
REMARK                            x       y       z     vdW  Elec       q    Type
REMARK                         _______ _______ _______ _____ _____    ______ ____
ROOT
ATOM      1  C   UNL     1      47.084   5.712  13.683  0.00  0.00    +0.000 A 
ATOM      2  C   UNL     1      46.704   4.592  14.438  0.00  0.00    +0.000 A 
ATOM      3  C   UNL     1      47.256   4.363  15.701  0.00  0.00    +0.000 A 
ATOM      4  C   UNL     1      48.206   5.246  16.230  0.00  0.00    +0.000 A 
ATOM      5  C   UNL     1      48.620   6.339  15.460  0.00  0.00    +0.000 A 
ATOM      6  C   UNL     1      48.060   6.574  14.203  0.00  0.00    +0.000 A 
ENDROOT
BRANCH   1   7
ATOM      7  C   UNL     1      46.481   5.978  12.321  0.00  0.00    +0.000 C 
BRANCH   7   8
ATOM      8  N   UNL     1      45.556   4.909  11.933  0.00  0.00    +0.000 NA
ATOM      9  H   UNL     1      46.067   4.033  11.884  0.00  0.00    +0.000 HD
BRANCH   8  10
ATOM     10  C   UNL     1      44.889   5.150  10.637  0.00  0.00    +0.000 C 
BRANCH  10  11
ATOM     11  C   UNL     1      45.378   4.203   9.538  0.00  0.00    +0.000 A 
ATOM     12  C   UNL     1      45.160   2.830   9.646  0.00  0.00    +0.000 A 
ATOM     13  C   UNL     1      45.572   2.001   8.608  0.00  0.00    +0.000 A 
ATOM     14  C   UNL     1      46.174   2.556   7.485  0.00  0.00    +0.000 A 
ATOM     15  C   UNL     1      46.338   3.930   7.445  0.00  0.00    +0.000 A 
ATOM     16  N   UNL     1      45.956   4.757   8.438  0.00  0.00    +0.000 NA
ENDBRANCH  10  11
BRANCH  10  18
ATOM     17  C   UNL     1      42.746   5.164  12.087  0.00  0.00    +0.000 C 
ATOM     18  C   UNL     1      43.342   5.180  10.687  0.00  0.00    +0.000 C 
ENDBRANCH  10  18
ENDBRANCH   8  10
ENDBRANCH   7   8
ENDBRANCH   1   7
BRANCH   4  19
ATOM     19  C   UNL     1      48.813   4.999  17.584  0.00  0.00    +0.000 C 
BRANCH  19  20
ATOM     20  N   UNL     1      49.784   6.013  17.903  0.00  0.00    +0.000 N 
ATOM     21  C   UNL     1      50.850   5.735  18.717  0.00  0.00    +0.000 C 
ATOM     22  O   UNL     1      51.041   4.611  19.174  0.00  0.00    +0.000 OA
ATOM     23  H   UNL     1      49.526   6.978  17.717  0.00  0.00    +0.000 HD
BRANCH  21  24
ATOM     24  C   UNL     1      51.791   6.832  18.967  0.00  0.00    +0.000 A 
ATOM     25  C   UNL     1      51.997   7.270  20.268  0.00  0.00    +0.000 A 
ATOM     26  S   UNL     1      53.147   8.520  20.395  0.00  0.00    +0.000 S 
ATOM     27  C   UNL     1      53.376   8.555  18.710  0.00  0.00    +0.000 A 
ATOM     28  N   UNL     1      54.232   9.445  18.140  0.00  0.00    +0.000 NA
ATOM     29  C   UNL     1      54.284   9.384  16.852  0.00  0.00    +0.000 A 
ATOM     30  N   UNL     1      53.565   8.509  16.082  0.00  0.00    +0.000 N 
ATOM     31  C   UNL     1      52.712   7.567  16.616  0.00  0.00    +0.000 A 
ATOM     32  O   UNL     1      52.116   6.771  15.899  0.00  0.00    +0.000 OA
ATOM     33  C   UNL     1      52.602   7.610  18.061  0.00  0.00    +0.000 A 
ATOM     34  H   UNL     1      53.660   8.504  15.077  0.00  0.00    +0.000 HD
ENDBRANCH  21  24
ENDBRANCH  19  20
ENDBRANCH   4  19
TORSDOF 8
ENDMDL
MODEL 9
REMARK VINA RESULT:    -5.425      3.741      5.665
REMARK INTER + INTRA:          -9.350
REMARK INTER:                  -8.319
REMARK INTRA:                  -1.031
REMARK UNBOUND:                -1.388
REMARK  Name = 
REMARK  9 active torsions:
REMARK  status: ('A' for Active; 'I' for Inactive)
REMARK    1  A    between atoms: C_1  and  C_2
REMARK    2  A    between atoms: C_2  and  C_3
REMARK    3  A    between atoms: C_3  and  N_4
REMARK    4  A    between atoms: C_3  and  C_26
REMARK    5  A    between atoms: N_4  and  C_5
REMARK    6  A    between atoms: C_5  and  C_6
REMARK    7  A    between atoms: C_9  and  C_10
REMARK    8  A    between atoms: C_10  and  N_11
REMARK    9  A    between atoms: C_12  and  C_14
REMARK                            x       y       z     vdW  Elec       q    Type
REMARK                         _______ _______ _______ _____ _____    ______ ____
ROOT
ATOM      1  C   UNL     1      50.236   7.732  15.193  0.00  0.00    +0.000 A 
ATOM      2  C   UNL     1      50.407   7.446  13.830  0.00  0.00    +0.000 A 
ATOM      3  C   UNL     1      49.334   7.544  12.941  0.00  0.00    +0.000 A 
ATOM      4  C   UNL     1      48.066   7.923  13.399  0.00  0.00    +0.000 A 
ATOM      5  C   UNL     1      47.883   8.166  14.765  0.00  0.00    +0.000 A 
ATOM      6  C   UNL     1      48.958   8.079  15.652  0.00  0.00    +0.000 A 
ENDROOT
BRANCH   1   7
ATOM      7  C   UNL     1      51.396   7.644  16.161  0.00  0.00    +0.000 C 
BRANCH   7   8
ATOM      8  N   UNL     1      51.003   6.965  17.399  0.00  0.00    +0.000 NA
ATOM      9  H   UNL     1      51.645   7.232  18.139  0.00  0.00    +0.000 HD
BRANCH   8  10
ATOM     10  C   UNL     1      50.989   5.493  17.283  0.00  0.00    +0.000 C 
BRANCH  10  11
ATOM     11  C   UNL     1      51.903   4.813  18.305  0.00  0.00    +0.000 A 
ATOM     12  C   UNL     1      51.743   5.064  19.668  0.00  0.00    +0.000 A 
ATOM     13  C   UNL     1      52.556   4.393  20.575  0.00  0.00    +0.000 A 
ATOM     14  C   UNL     1      53.495   3.480  20.109  0.00  0.00    +0.000 A 
ATOM     15  C   UNL     1      53.580   3.272  18.744  0.00  0.00    +0.000 A 
ATOM     16  N   UNL     1      52.812   3.912  17.841  0.00  0.00    +0.000 NA
ENDBRANCH  10  11
BRANCH  10  18
ATOM     17  C   UNL     1      49.581   3.323  17.350  0.00  0.00    +0.000 C 
ATOM     18  C   UNL     1      49.584   4.844  17.288  0.00  0.00    +0.000 C 
ENDBRANCH  10  18
ENDBRANCH   8  10
ENDBRANCH   7   8
ENDBRANCH   1   7
BRANCH   4  19
ATOM     19  C   UNL     1      46.904   8.020  12.450  0.00  0.00    +0.000 C 
BRANCH  19  20
ATOM     20  N   UNL     1      46.341   6.720  12.193  0.00  0.00    +0.000 N 
ATOM     21  C   UNL     1      45.094   6.590  11.643  0.00  0.00    +0.000 C 
ATOM     22  O   UNL     1      44.425   7.565  11.313  0.00  0.00    +0.000 OA
ATOM     23  H   UNL     1      46.778   5.926  12.653  0.00  0.00    +0.000 HD
BRANCH  21  24
ATOM     24  C   UNL     1      44.619   5.222  11.406  0.00  0.00    +0.000 A 
ATOM     25  C   UNL     1      43.846   4.592  12.373  0.00  0.00    +0.000 A 
ATOM     26  S   UNL     1      43.341   3.026  11.931  0.00  0.00    +0.000 S 
ATOM     27  C   UNL     1      44.176   3.115  10.452  0.00  0.00    +0.000 A 
ATOM     28  N   UNL     1      44.177   2.065   9.587  0.00  0.00    +0.000 NA
ATOM     29  C   UNL     1      44.876   2.255   8.520  0.00  0.00    +0.000 A 
ATOM     30  N   UNL     1      45.568   3.402   8.233  0.00  0.00    +0.000 N 
ATOM     31  C   UNL     1      45.569   4.503   9.062  0.00  0.00    +0.000 A 
ATOM     32  O   UNL     1      46.165   5.530   8.754  0.00  0.00    +0.000 OA
ATOM     33  C   UNL     1      44.814   4.331  10.287  0.00  0.00    +0.000 A 
ATOM     34  H   UNL     1      46.088   3.492   7.373  0.00  0.00    +0.000 HD
ENDBRANCH  21  24
ENDBRANCH  19  20
ENDBRANCH   4  19
TORSDOF 8
ENDMDL
