MODEL 1
REMARK VINA RESULT:    -7.613      0.000      0.000
REMARK INTER + INTRA:         -12.409
REMARK INTER:                 -10.951
REMARK INTRA:                  -1.458
REMARK UNBOUND:                -1.458
REMARK  Name = 
REMARK  8 active torsions:
REMARK  status: ('A' for Active; 'I' for Inactive)
REMARK    1  A    between atoms: N_1  and  C_2
REMARK    2  A    between atoms: C_2  and  C_3
REMARK    3  A    between atoms: C_3  and  N_4
REMARK    4  A    between atoms: C_3  and  C_17
REMARK    5  A    between atoms: C_5  and  C_7
REMARK    6  A    between atoms: C_20  and  C_21
REMARK    7  A    between atoms: C_21  and  N_22
REMARK    8  A    between atoms: C_23  and  C_25
REMARK                            x       y       z     vdW  Elec       q    Type
REMARK                         _______ _______ _______ _____ _____    ______ ____
ROOT
ATOM      1  C   UNL     1      48.292   7.004  14.175  0.00  0.00    +0.000 C 
ENDROOT
BRANCH   1   2
ATOM      2  C   UNL     1      47.320   6.071  13.447  0.00  0.00    +0.000 A 
ATOM      3  C   UNL     1      47.098   4.767  13.913  0.00  0.00    +0.000 A 
ATOM      4  C   UNL     1      46.193   3.917  13.262  0.00  0.00    +0.000 A 
ATOM      5  C   UNL     1      45.491   4.349  12.128  0.00  0.00    +0.000 A 
ATOM      6  C   UNL     1      45.700   5.654  11.669  0.00  0.00    +0.000 A 
ATOM      7  C   UNL     1      46.603   6.503  12.319  0.00  0.00    +0.000 A 
BRANCH   5   8
ATOM      8  C   UNL     1      44.559   3.420  11.395  0.00  0.00    +0.000 C 
BRANCH   8   9
ATOM      9  N   UNL     1      45.105   2.895  10.167  0.00  0.00    +0.000 N 
ATOM     10  C   UNL     1      44.777   3.476   8.963  0.00  0.00    +0.000 C 
ATOM     11  O   UNL     1      43.982   4.411   8.875  0.00  0.00    +0.000 OA
ATOM     12  H   UNL     1      45.808   2.162  10.163  0.00  0.00    +0.000 HD
BRANCH  10  13
ATOM     13  C   UNL     1      45.401   2.850   7.714  0.00  0.00    +0.000 C 
ATOM     14  C   UNL     1      46.328   1.696   8.037  0.00  0.00    +0.000 C 
ATOM     15  C   UNL     1      47.076   1.511   6.729  0.00  0.00    +0.000 C 
ATOM     16  C   UNL     1      47.114   2.906   6.111  0.00  0.00    +0.000 C 
ATOM     17  N   UNL     1      46.312   3.771   6.991  0.00  0.00    +0.000 NA
ATOM     18  H   UNL     1      45.759   4.422   6.431  0.00  0.00    +0.000 HD
ENDBRANCH  10  13
ENDBRANCH   8   9
ENDBRANCH   5   8
ENDBRANCH   1   2
BRANCH   1  19
ATOM     19  N   UNL     1      48.227   6.699  15.598  0.00  0.00    +0.000 N 
ATOM     20  C   UNL     1      49.308   6.299  16.342  0.00  0.00    +0.000 C 
ATOM     21  O   UNL     1      50.454   6.287  15.912  0.00  0.00    +0.000 OA
ATOM     22  H   UNL     1      47.307   6.428  15.931  0.00  0.00    +0.000 HD
BRANCH  20  23
ATOM     23  C   UNL     1      49.011   5.944  17.734  0.00  0.00    +0.000 A 
ATOM     24  C   UNL     1      49.266   4.660  18.201  0.00  0.00    +0.000 A 
ATOM     25  S   UNL     1      48.872   4.449  19.847  0.00  0.00    +0.000 S 
ATOM     26  C   UNL     1      48.302   6.048  19.976  0.00  0.00    +0.000 A 
ATOM     27  N   UNL     1      47.777   6.518  21.138  0.00  0.00    +0.000 NA
ATOM     28  C   UNL     1      47.351   7.738  21.076  0.00  0.00    +0.000 A 
ATOM     29  N   UNL     1      47.415   8.532  19.962  0.00  0.00    +0.000 N 
ATOM     30  C   UNL     1      47.980   8.118  18.782  0.00  0.00    +0.000 A 
ATOM     31  O   UNL     1      48.099   8.880  17.831  0.00  0.00    +0.000 OA
ATOM     32  C   UNL     1      48.442   6.742  18.788  0.00  0.00    +0.000 A 
ATOM     33  H   UNL     1      47.087   9.488  19.983  0.00  0.00    +0.000 HD
ENDBRANCH  20  23
ENDBRANCH   1  19
BRANCH   1  34
ATOM     34  C   UNL     1      47.991   8.505  13.876  0.00  0.00    +0.000 C 
BRANCH  34  35
ATOM     35  N   UNL     1      47.377   9.239  14.991  0.00  0.00    +0.000 NA
ATOM     36  H   UNL     1      47.892   9.025  15.843  0.00  0.00    +0.000 HD
ATOM     37  H   UNL     1      46.426   8.901  15.139  0.00  0.00    +0.000 HD
ENDBRANCH  34  35
ENDBRANCH   1  34
TORSDOF 8
ENDMDL
MODEL 2
REMARK VINA RESULT:    -7.455      2.900      4.463
REMARK INTER + INTRA:         -12.182
REMARK INTER:                 -10.946
REMARK INTRA:                  -1.235
REMARK UNBOUND:                -1.458
REMARK  Name = 
REMARK  8 active torsions:
REMARK  status: ('A' for Active; 'I' for Inactive)
REMARK    1  A    between atoms: N_1  and  C_2
REMARK    2  A    between atoms: C_2  and  C_3
REMARK    3  A    between atoms: C_3  and  N_4
REMARK    4  A    between atoms: C_3  and  C_17
REMARK    5  A    between atoms: C_5  and  C_7
REMARK    6  A    between atoms: C_20  and  C_21
REMARK    7  A    between atoms: C_21  and  N_22
REMARK    8  A    between atoms: C_23  and  C_25
REMARK                            x       y       z     vdW  Elec       q    Type
REMARK                         _______ _______ _______ _____ _____    ______ ____
ROOT
ATOM      1  C   UNL     1      47.121   5.040  15.095  0.00  0.00    +0.000 C 
ENDROOT
BRANCH   1   2
ATOM      2  C   UNL     1      46.269   4.871  13.834  0.00  0.00    +0.000 A 
ATOM      3  C   UNL     1      46.102   3.608  13.249  0.00  0.00    +0.000 A 
ATOM      4  C   UNL     1      45.306   3.446  12.106  0.00  0.00    +0.000 A 
ATOM      5  C   UNL     1      44.662   4.544  11.518  0.00  0.00    +0.000 A 
ATOM      6  C   UNL     1      44.817   5.804  12.108  0.00  0.00    +0.000 A 
ATOM      7  C   UNL     1      45.612   5.966  13.249  0.00  0.00    +0.000 A 
BRANCH   5   8
ATOM      8  C   UNL     1      43.852   4.384  10.259  0.00  0.00    +0.000 C 
BRANCH   8   9
ATOM      9  N   UNL     1      44.474   3.541   9.267  0.00  0.00    +0.000 N 
ATOM     10  C   UNL     1      45.476   4.042   8.468  0.00  0.00    +0.000 C 
ATOM     11  O   UNL     1      45.840   5.216   8.522  0.00  0.00    +0.000 OA
ATOM     12  H   UNL     1      44.265   2.549   9.199  0.00  0.00    +0.000 HD
BRANCH  10  13
ATOM     13  C   UNL     1      46.074   3.076   7.443  0.00  0.00    +0.000 C 
ATOM     14  C   UNL     1      46.308   1.690   8.009  0.00  0.00    +0.000 C 
ATOM     15  C   UNL     1      47.216   1.067   6.964  0.00  0.00    +0.000 C 
ATOM     16  C   UNL     1      47.998   2.244   6.389  0.00  0.00    +0.000 C 
ATOM     17  N   UNL     1      47.441   3.456   7.010  0.00  0.00    +0.000 NA
ATOM     18  H   UNL     1      47.380   4.206   6.319  0.00  0.00    +0.000 HD
ENDBRANCH  10  13
ENDBRANCH   8   9
ENDBRANCH   5   8
ENDBRANCH   1   2
BRANCH   1  19
ATOM     19  N   UNL     1      48.332   5.760  14.726  0.00  0.00    +0.000 N 
ATOM     20  C   UNL     1      48.951   6.677  15.538  0.00  0.00    +0.000 C 
ATOM     21  O   UNL     1      48.620   6.880  16.700  0.00  0.00    +0.000 OA
ATOM     22  H   UNL     1      48.486   5.846  13.726  0.00  0.00    +0.000 HD
BRANCH  20  23
ATOM     23  C   UNL     1      50.100   7.367  14.941  0.00  0.00    +0.000 A 
ATOM     24  C   UNL     1      51.341   7.333  15.564  0.00  0.00    +0.000 A 
ATOM     25  S   UNL     1      52.551   8.177  14.707  0.00  0.00    +0.000 S 
ATOM     26  C   UNL     1      51.445   8.657  13.504  0.00  0.00    +0.000 A 
ATOM     27  N   UNL     1      51.830   9.450  12.470  0.00  0.00    +0.000 NA
ATOM     28  C   UNL     1      50.875   9.763  11.655  0.00  0.00    +0.000 A 
ATOM     29  N   UNL     1      49.576   9.345  11.775  0.00  0.00    +0.000 N 
ATOM     30  C   UNL     1      49.152   8.506  12.774  0.00  0.00    +0.000 A 
ATOM     31  O   UNL     1      48.004   8.081  12.805  0.00  0.00    +0.000 OA
ATOM     32  C   UNL     1      50.180   8.152  13.737  0.00  0.00    +0.000 A 
ATOM     33  H   UNL     1      48.879   9.604  11.091  0.00  0.00    +0.000 HD
ENDBRANCH  20  23
ENDBRANCH   1  19
BRANCH   1  34
ATOM     34  C   UNL     1      47.430   3.670  15.775  0.00  0.00    +0.000 C 
BRANCH  34  35
ATOM     35  N   UNL     1      46.707   3.435  17.032  0.00  0.00    +0.000 NA
ATOM     36  H   UNL     1      46.256   4.304  17.315  0.00  0.00    +0.000 HD
ATOM     37  H   UNL     1      47.374   3.205  17.770  0.00  0.00    +0.000 HD
ENDBRANCH  34  35
ENDBRANCH   1  34
TORSDOF 8
ENDMDL
MODEL 3
REMARK VINA RESULT:    -7.137      3.896      8.940
REMARK INTER + INTRA:         -11.724
REMARK INTER:                 -10.599
REMARK INTRA:                  -1.126
REMARK UNBOUND:                -1.458
REMARK  Name = 
REMARK  8 active torsions:
REMARK  status: ('A' for Active; 'I' for Inactive)
REMARK    1  A    between atoms: N_1  and  C_2
REMARK    2  A    between atoms: C_2  and  C_3
REMARK    3  A    between atoms: C_3  and  N_4
REMARK    4  A    between atoms: C_3  and  C_17
REMARK    5  A    between atoms: C_5  and  C_7
REMARK    6  A    between atoms: C_20  and  C_21
REMARK    7  A    between atoms: C_21  and  N_22
REMARK    8  A    between atoms: C_23  and  C_25
REMARK                            x       y       z     vdW  Elec       q    Type
REMARK                         _______ _______ _______ _____ _____    ______ ____
ROOT
ATOM      1  C   UNL     1      47.836   7.027  13.736  0.00  0.00    +0.000 C 
ENDROOT
BRANCH   1   2
ATOM      2  C   UNL     1      48.176   6.155  14.947  0.00  0.00    +0.000 A 
ATOM      3  C   UNL     1      49.169   6.549  15.855  0.00  0.00    +0.000 A 
ATOM      4  C   UNL     1      49.469   5.764  16.976  0.00  0.00    +0.000 A 
ATOM      5  C   UNL     1      48.786   4.563  17.215  0.00  0.00    +0.000 A 
ATOM      6  C   UNL     1      47.785   4.173  16.318  0.00  0.00    +0.000 A 
ATOM      7  C   UNL     1      47.485   4.958  15.199  0.00  0.00    +0.000 A 
BRANCH   5   8
ATOM      8  C   UNL     1      49.144   3.689  18.389  0.00  0.00    +0.000 C 
BRANCH   8   9
ATOM      9  N   UNL     1      50.540   3.331  18.448  0.00  0.00    +0.000 N 
ATOM     10  C   UNL     1      51.055   2.419  17.556  0.00  0.00    +0.000 C 
ATOM     11  O   UNL     1      50.357   1.839  16.725  0.00  0.00    +0.000 OA
ATOM     12  H   UNL     1      51.189   3.806  19.068  0.00  0.00    +0.000 HD
BRANCH  10  13
ATOM     13  C   UNL     1      52.545   2.099  17.696  0.00  0.00    +0.000 C 
ATOM     14  C   UNL     1      52.833   0.612  17.651  0.00  0.00    +0.000 C 
ATOM     15  C   UNL     1      54.258   0.546  18.171  0.00  0.00    +0.000 C 
ATOM     16  C   UNL     1      54.370   1.733  19.124  0.00  0.00    +0.000 C 
ATOM     17  N   UNL     1      53.102   2.471  19.020  0.00  0.00    +0.000 NA
ATOM     18  H   UNL     1      53.280   3.476  19.040  0.00  0.00    +0.000 HD
ENDBRANCH  10  13
ENDBRANCH   8   9
ENDBRANCH   5   8
ENDBRANCH   1   2
BRANCH   1  19
ATOM     19  N   UNL     1      47.231   6.173  12.723  0.00  0.00    +0.000 N 
ATOM     20  C   UNL     1      46.234   6.583  11.875  0.00  0.00    +0.000 C 
ATOM     21  O   UNL     1      45.849   7.744  11.800  0.00  0.00    +0.000 OA
ATOM     22  H   UNL     1      47.300   5.177  12.913  0.00  0.00    +0.000 HD
BRANCH  20  23
ATOM     23  C   UNL     1      45.691   5.541  10.996  0.00  0.00    +0.000 A 
ATOM     24  C   UNL     1      45.862   5.623   9.620  0.00  0.00    +0.000 A 
ATOM     25  S   UNL     1      45.177   4.309   8.774  0.00  0.00    +0.000 S 
ATOM     26  C   UNL     1      44.585   3.617  10.213  0.00  0.00    +0.000 A 
ATOM     27  N   UNL     1      43.855   2.471  10.195  0.00  0.00    +0.000 NA
ATOM     28  C   UNL     1      43.441   2.084  11.358  0.00  0.00    +0.000 A 
ATOM     29  N   UNL     1      43.703   2.732  12.536  0.00  0.00    +0.000 N 
ATOM     30  C   UNL     1      44.475   3.864  12.609  0.00  0.00    +0.000 A 
ATOM     31  O   UNL     1      44.762   4.372  13.686  0.00  0.00    +0.000 OA
ATOM     32  C   UNL     1      44.935   4.361  11.325  0.00  0.00    +0.000 A 
ATOM     33  H   UNL     1      43.372   2.366  13.418  0.00  0.00    +0.000 HD
ENDBRANCH  20  23
ENDBRANCH   1  19
BRANCH   1  34
ATOM     34  C   UNL     1      49.086   7.789  13.199  0.00  0.00    +0.000 C 
BRANCH  34  35
ATOM     35  N   UNL     1      49.907   7.024  12.250  0.00  0.00    +0.000 NA
ATOM     36  H   UNL     1      50.229   6.175  12.711  0.00  0.00    +0.000 HD
ATOM     37  H   UNL     1      50.745   7.559  12.017  0.00  0.00    +0.000 HD
ENDBRANCH  34  35
ENDBRANCH   1  34
TORSDOF 8
ENDMDL
MODEL 4
REMARK VINA RESULT:    -7.126      2.873      4.159
REMARK INTER + INTRA:         -11.708
REMARK INTER:                 -10.760
REMARK INTRA:                  -0.949
REMARK UNBOUND:                -1.458
REMARK  Name = 
REMARK  8 active torsions:
REMARK  status: ('A' for Active; 'I' for Inactive)
REMARK    1  A    between atoms: N_1  and  C_2
REMARK    2  A    between atoms: C_2  and  C_3
REMARK    3  A    between atoms: C_3  and  N_4
REMARK    4  A    between atoms: C_3  and  C_17
REMARK    5  A    between atoms: C_5  and  C_7
REMARK    6  A    between atoms: C_20  and  C_21
REMARK    7  A    between atoms: C_21  and  N_22
REMARK    8  A    between atoms: C_23  and  C_25
REMARK                            x       y       z     vdW  Elec       q    Type
REMARK                         _______ _______ _______ _____ _____    ______ ____
ROOT
ATOM      1  C   UNL     1      46.844   5.040  15.025  0.00  0.00    +0.000 C 
ENDROOT
BRANCH   1   2
ATOM      2  C   UNL     1      46.061   4.940  13.712  0.00  0.00    +0.000 A 
ATOM      3  C   UNL     1      45.693   6.097  13.010  0.00  0.00    +0.000 A 
ATOM      4  C   UNL     1      44.995   6.009  11.798  0.00  0.00    +0.000 A 
ATOM      5  C   UNL     1      44.644   4.763  11.261  0.00  0.00    +0.000 A 
ATOM      6  C   UNL     1      45.021   3.606  11.952  0.00  0.00    +0.000 A 
ATOM      7  C   UNL     1      45.718   3.694  13.163  0.00  0.00    +0.000 A 
BRANCH   5   8
ATOM      8  C   UNL     1      43.846   4.666   9.987  0.00  0.00    +0.000 C 
BRANCH   8   9
ATOM      9  N   UNL     1      44.406   3.760   9.014  0.00  0.00    +0.000 N 
ATOM     10  C   UNL     1      45.541   4.110   8.320  0.00  0.00    +0.000 C 
ATOM     11  O   UNL     1      46.087   5.206   8.452  0.00  0.00    +0.000 OA
ATOM     12  H   UNL     1      44.045   2.819   8.888  0.00  0.00    +0.000 HD
BRANCH  10  13
ATOM     13  C   UNL     1      46.061   3.087   7.307  0.00  0.00    +0.000 C 
ATOM     14  C   UNL     1      46.435   1.766   7.947  0.00  0.00    +0.000 C 
ATOM     15  C   UNL     1      47.241   1.095   6.849  0.00  0.00    +0.000 C 
ATOM     16  C   UNL     1      47.883   2.252   6.088  0.00  0.00    +0.000 C 
ATOM     17  N   UNL     1      47.343   3.487   6.677  0.00  0.00    +0.000 NA
ATOM     18  H   UNL     1      47.158   4.172   5.942  0.00  0.00    +0.000 HD
ENDBRANCH  10  13
ENDBRANCH   8   9
ENDBRANCH   5   8
ENDBRANCH   1   2
BRANCH   1  19
ATOM     19  N   UNL     1      47.992   5.907  14.798  0.00  0.00    +0.000 N 
ATOM     20  C   UNL     1      48.681   6.540  15.802  0.00  0.00    +0.000 C 
ATOM     21  O   UNL     1      48.478   6.332  16.992  0.00  0.00    +0.000 OA
ATOM     22  H   UNL     1      48.031   6.325  13.873  0.00  0.00    +0.000 HD
BRANCH  20  23
ATOM     23  C   UNL     1      49.742   7.449  15.356  0.00  0.00    +0.000 A 
ATOM     24  C   UNL     1      49.430   8.587  14.623  0.00  0.00    +0.000 A 
ATOM     25  S   UNL     1      50.797   9.524  14.216  0.00  0.00    +0.000 S 
ATOM     26  C   UNL     1      51.852   8.413  14.960  0.00  0.00    +0.000 A 
ATOM     27  N   UNL     1      53.198   8.599  14.941  0.00  0.00    +0.000 NA
ATOM     28  C   UNL     1      53.874   7.656  15.513  0.00  0.00    +0.000 A 
ATOM     29  N   UNL     1      53.325   6.553  16.112  0.00  0.00    +0.000 N 
ATOM     30  C   UNL     1      51.971   6.348  16.198  0.00  0.00    +0.000 A 
ATOM     31  O   UNL     1      51.510   5.396  16.815  0.00  0.00    +0.000 OA
ATOM     32  C   UNL     1      51.167   7.362  15.540  0.00  0.00    +0.000 A 
ATOM     33  H   UNL     1      53.906   5.862  16.565  0.00  0.00    +0.000 HD
ENDBRANCH  20  23
ENDBRANCH   1  19
BRANCH   1  34
ATOM     34  C   UNL     1      47.258   3.636  15.562  0.00  0.00    +0.000 C 
BRANCH  34  35
ATOM     35  N   UNL     1      46.912   3.393  16.970  0.00  0.00    +0.000 NA
ATOM     36  H   UNL     1      47.760   3.140  17.474  0.00  0.00    +0.000 HD
ATOM     37  H   UNL     1      46.290   2.587  17.032  0.00  0.00    +0.000 HD
ENDBRANCH  34  35
ENDBRANCH   1  34
TORSDOF 8
ENDMDL
MODEL 5
REMARK VINA RESULT:    -6.777      1.681      2.170
REMARK INTER + INTRA:         -11.206
REMARK INTER:                 -10.238
REMARK INTRA:                  -0.968
REMARK UNBOUND:                -1.458
REMARK  Name = 
REMARK  8 active torsions:
REMARK  status: ('A' for Active; 'I' for Inactive)
REMARK    1  A    between atoms: N_1  and  C_2
REMARK    2  A    between atoms: C_2  and  C_3
REMARK    3  A    between atoms: C_3  and  N_4
REMARK    4  A    between atoms: C_3  and  C_17
REMARK    5  A    between atoms: C_5  and  C_7
REMARK    6  A    between atoms: C_20  and  C_21
REMARK    7  A    between atoms: C_21  and  N_22
REMARK    8  A    between atoms: C_23  and  C_25
REMARK                            x       y       z     vdW  Elec       q    Type
REMARK                         _______ _______ _______ _____ _____    ______ ____
ROOT
ATOM      1  C   UNL     1      49.078   7.039  14.231  0.00  0.00    +0.000 C 
ENDROOT
BRANCH   1   2
ATOM      2  C   UNL     1      47.906   6.575  13.362  0.00  0.00    +0.000 A 
ATOM      3  C   UNL     1      47.059   5.545  13.796  0.00  0.00    +0.000 A 
ATOM      4  C   UNL     1      45.973   5.131  13.013  0.00  0.00    +0.000 A 
ATOM      5  C   UNL     1      45.708   5.735  11.776  0.00  0.00    +0.000 A 
ATOM      6  C   UNL     1      46.543   6.773  11.346  0.00  0.00    +0.000 A 
ATOM      7  C   UNL     1      47.628   7.186  12.128  0.00  0.00    +0.000 A 
BRANCH   5   8
ATOM      8  C   UNL     1      44.575   5.256  10.907  0.00  0.00    +0.000 C 
BRANCH   8   9
ATOM      9  N   UNL     1      44.998   4.719   9.637  0.00  0.00    +0.000 N 
ATOM     10  C   UNL     1      44.810   3.385   9.356  0.00  0.00    +0.000 C 
ATOM     11  O   UNL     1      44.335   2.597  10.174  0.00  0.00    +0.000 OA
ATOM     12  H   UNL     1      45.347   5.315   8.892  0.00  0.00    +0.000 HD
BRANCH  10  13
ATOM     13  C   UNL     1      45.293   2.904   7.986  0.00  0.00    +0.000 C 
ATOM     14  C   UNL     1      46.301   1.777   8.081  0.00  0.00    +0.000 C 
ATOM     15  C   UNL     1      46.881   1.746   6.679  0.00  0.00    +0.000 C 
ATOM     16  C   UNL     1      46.781   3.190   6.195  0.00  0.00    +0.000 C 
ATOM     17  N   UNL     1      46.064   3.931   7.244  0.00  0.00    +0.000 NA
ATOM     18  H   UNL     1      45.417   4.598   6.821  0.00  0.00    +0.000 HD
ENDBRANCH  10  13
ENDBRANCH   8   9
ENDBRANCH   5   8
ENDBRANCH   1   2
BRANCH   1  19
ATOM     19  N   UNL     1      48.555   7.376  15.548  0.00  0.00    +0.000 N 
ATOM     20  C   UNL     1      49.345   7.698  16.623  0.00  0.00    +0.000 C 
ATOM     21  O   UNL     1      50.556   7.861  16.543  0.00  0.00    +0.000 OA
ATOM     22  H   UNL     1      47.631   7.002  15.745  0.00  0.00    +0.000 HD
BRANCH  20  23
ATOM     23  C   UNL     1      48.628   7.905  17.886  0.00  0.00    +0.000 A 
ATOM     24  C   UNL     1      48.209   9.177  18.256  0.00  0.00    +0.000 A 
ATOM     25  S   UNL     1      47.378   9.209  19.746  0.00  0.00    +0.000 S 
ATOM     26  C   UNL     1      47.598   7.535  19.970  0.00  0.00    +0.000 A 
ATOM     27  N   UNL     1      47.150   6.910  21.090  0.00  0.00    +0.000 NA
ATOM     28  C   UNL     1      47.421   5.645  21.139  0.00  0.00    +0.000 A 
ATOM     29  N   UNL     1      48.086   4.950  20.164  0.00  0.00    +0.000 N 
ATOM     30  C   UNL     1      48.514   5.529  18.996  0.00  0.00    +0.000 A 
ATOM     31  O   UNL     1      49.029   4.862  18.106  0.00  0.00    +0.000 OA
ATOM     32  C   UNL     1      48.265   6.956  18.906  0.00  0.00    +0.000 A 
ATOM     33  H   UNL     1      48.246   3.956  20.249  0.00  0.00    +0.000 HD
ENDBRANCH  20  23
ENDBRANCH   1  19
BRANCH   1  34
ATOM     34  C   UNL     1      49.850   8.227  13.579  0.00  0.00    +0.000 C 
BRANCH  34  35
ATOM     35  N   UNL     1      51.305   8.039  13.496  0.00  0.00    +0.000 NA
ATOM     36  H   UNL     1      51.652   8.547  12.684  0.00  0.00    +0.000 HD
ATOM     37  H   UNL     1      51.512   7.054  13.328  0.00  0.00    +0.000 HD
ENDBRANCH  34  35
ENDBRANCH   1  34
TORSDOF 8
ENDMDL
MODEL 6
REMARK VINA RESULT:    -6.584      3.716      9.268
REMARK INTER + INTRA:         -10.928
REMARK INTER:                  -9.886
REMARK INTRA:                  -1.042
REMARK UNBOUND:                -1.458
REMARK  Name = 
REMARK  8 active torsions:
REMARK  status: ('A' for Active; 'I' for Inactive)
REMARK    1  A    between atoms: N_1  and  C_2
REMARK    2  A    between atoms: C_2  and  C_3
REMARK    3  A    between atoms: C_3  and  N_4
REMARK    4  A    between atoms: C_3  and  C_17
REMARK    5  A    between atoms: C_5  and  C_7
REMARK    6  A    between atoms: C_20  and  C_21
REMARK    7  A    between atoms: C_21  and  N_22
REMARK    8  A    between atoms: C_23  and  C_25
REMARK                            x       y       z     vdW  Elec       q    Type
REMARK                         _______ _______ _______ _____ _____    ______ ____
ROOT
ATOM      1  C   UNL     1      47.359   6.700  13.692  0.00  0.00    +0.000 C 
ENDROOT
BRANCH   1   2
ATOM      2  C   UNL     1      47.870   5.958  14.931  0.00  0.00    +0.000 A 
ATOM      3  C   UNL     1      47.394   4.676  15.241  0.00  0.00    +0.000 A 
ATOM      4  C   UNL     1      47.875   3.985  16.362  0.00  0.00    +0.000 A 
ATOM      5  C   UNL     1      48.839   4.561  17.201  0.00  0.00    +0.000 A 
ATOM      6  C   UNL     1      49.326   5.835  16.886  0.00  0.00    +0.000 A 
ATOM      7  C   UNL     1      48.846   6.525  15.767  0.00  0.00    +0.000 A 
BRANCH   5   8
ATOM      8  C   UNL     1      49.318   3.844  18.437  0.00  0.00    +0.000 C 
BRANCH   8   9
ATOM      9  N   UNL     1      50.723   3.519  18.417  0.00  0.00    +0.000 N 
ATOM     10  C   UNL     1      51.166   2.418  17.719  0.00  0.00    +0.000 C 
ATOM     11  O   UNL     1      50.398   1.649  17.141  0.00  0.00    +0.000 OA
ATOM     12  H   UNL     1      51.422   4.134  18.823  0.00  0.00    +0.000 HD
BRANCH  10  13
ATOM     13  C   UNL     1      52.672   2.150  17.757  0.00  0.00    +0.000 C 
ATOM     14  C   UNL     1      53.020   0.713  17.427  0.00  0.00    +0.000 C 
ATOM     15  C   UNL     1      54.464   0.619  17.887  0.00  0.00    +0.000 C 
ATOM     16  C   UNL     1      54.559   1.613  19.042  0.00  0.00    +0.000 C 
ATOM     17  N   UNL     1      53.258   2.296  19.112  0.00  0.00    +0.000 NA
ATOM     18  H   UNL     1      53.395   3.287  19.315  0.00  0.00    +0.000 HD
ENDBRANCH  10  13
ENDBRANCH   8   9
ENDBRANCH   5   8
ENDBRANCH   1   2
BRANCH   1  19
ATOM     19  N   UNL     1      46.644   5.743  12.859  0.00  0.00    +0.000 N 
ATOM     20  C   UNL     1      45.292   5.795  12.626  0.00  0.00    +0.000 C 
ATOM     21  O   UNL     1      44.582   6.724  12.989  0.00  0.00    +0.000 OA
ATOM     22  H   UNL     1      47.097   4.839  12.768  0.00  0.00    +0.000 HD
BRANCH  20  23
ATOM     23  C   UNL     1      44.749   4.680  11.842  0.00  0.00    +0.000 A 
ATOM     24  C   UNL     1      43.922   3.738  12.440  0.00  0.00    +0.000 A 
ATOM     25  S   UNL     1      43.379   2.533  11.360  0.00  0.00    +0.000 S 
ATOM     26  C   UNL     1      44.273   3.201  10.074  0.00  0.00    +0.000 A 
ATOM     27  N   UNL     1      44.282   2.620   8.846  0.00  0.00    +0.000 NA
ATOM     28  C   UNL     1      45.035   3.216   7.979  0.00  0.00    +0.000 A 
ATOM     29  N   UNL     1      45.767   4.347   8.227  0.00  0.00    +0.000 N 
ATOM     30  C   UNL     1      45.751   4.996   9.436  0.00  0.00    +0.000 A 
ATOM     31  O   UNL     1      46.350   6.052   9.600  0.00  0.00    +0.000 OA
ATOM     32  C   UNL     1      44.948   4.346  10.456  0.00  0.00    +0.000 A 
ATOM     33  H   UNL     1      46.318   4.782   7.500  0.00  0.00    +0.000 HD
ENDBRANCH  20  23
ENDBRANCH   1  19
BRANCH   1  34
ATOM     34  C   UNL     1      48.514   7.410  12.922  0.00  0.00    +0.000 C 
BRANCH  34  35
ATOM     35  N   UNL     1      49.592   6.515  12.477  0.00  0.00    +0.000 NA
ATOM     36  H   UNL     1      49.255   5.554  12.523  0.00  0.00    +0.000 HD
ATOM     37  H   UNL     1      50.375   6.576  13.127  0.00  0.00    +0.000 HD
ENDBRANCH  34  35
ENDBRANCH   1  34
TORSDOF 8
ENDMDL
MODEL 7
REMARK VINA RESULT:    -6.526      3.564      5.598
REMARK INTER + INTRA:         -10.845
REMARK INTER:                  -9.635
REMARK INTRA:                  -1.210
REMARK UNBOUND:                -1.458
REMARK  Name = 
REMARK  8 active torsions:
REMARK  status: ('A' for Active; 'I' for Inactive)
REMARK    1  A    between atoms: N_1  and  C_2
REMARK    2  A    between atoms: C_2  and  C_3
REMARK    3  A    between atoms: C_3  and  N_4
REMARK    4  A    between atoms: C_3  and  C_17
REMARK    5  A    between atoms: C_5  and  C_7
REMARK    6  A    between atoms: C_20  and  C_21
REMARK    7  A    between atoms: C_21  and  N_22
REMARK    8  A    between atoms: C_23  and  C_25
REMARK                            x       y       z     vdW  Elec       q    Type
REMARK                         _______ _______ _______ _____ _____    ______ ____
ROOT
ATOM      1  C   UNL     1      47.589   7.037  13.982  0.00  0.00    +0.000 C 
ENDROOT
BRANCH   1   2
ATOM      2  C   UNL     1      46.597   6.385  13.013  0.00  0.00    +0.000 A 
ATOM      3  C   UNL     1      46.446   4.992  12.976  0.00  0.00    +0.000 A 
ATOM      4  C   UNL     1      45.525   4.393  12.106  0.00  0.00    +0.000 A 
ATOM      5  C   UNL     1      44.736   5.173  11.248  0.00  0.00    +0.000 A 
ATOM      6  C   UNL     1      44.875   6.565  11.293  0.00  0.00    +0.000 A 
ATOM      7  C   UNL     1      45.795   7.163  12.162  0.00  0.00    +0.000 A 
BRANCH   5   8
ATOM      8  C   UNL     1      43.785   4.530  10.273  0.00  0.00    +0.000 C 
BRANCH   8   9
ATOM      9  N   UNL     1      44.415   3.597   9.371  0.00  0.00    +0.000 N 
ATOM     10  C   UNL     1      45.375   4.034   8.488  0.00  0.00    +0.000 C 
ATOM     11  O   UNL     1      45.694   5.219   8.390  0.00  0.00    +0.000 OA
ATOM     12  H   UNL     1      44.244   2.598   9.429  0.00  0.00    +0.000 HD
BRANCH  10  13
ATOM     13  C   UNL     1      45.986   2.975   7.568  0.00  0.00    +0.000 C 
ATOM     14  C   UNL     1      46.183   1.641   8.260  0.00  0.00    +0.000 C 
ATOM     15  C   UNL     1      47.109   0.916   7.300  0.00  0.00    +0.000 C 
ATOM     16  C   UNL     1      47.924   2.028   6.645  0.00  0.00    +0.000 C 
ATOM     17  N   UNL     1      47.370   3.297   7.142  0.00  0.00    +0.000 NA
ATOM     18  H   UNL     1      47.339   3.984   6.387  0.00  0.00    +0.000 HD
ENDBRANCH  10  13
ENDBRANCH   8   9
ENDBRANCH   5   8
ENDBRANCH   1   2
BRANCH   1  19
ATOM     19  N   UNL     1      48.565   7.778  13.194  0.00  0.00    +0.000 N 
ATOM     20  C   UNL     1      48.669   9.146  13.199  0.00  0.00    +0.000 C 
ATOM     21  O   UNL     1      48.040   9.866  13.965  0.00  0.00    +0.000 OA
ATOM     22  H   UNL     1      48.904   7.288  12.371  0.00  0.00    +0.000 HD
BRANCH  20  23
ATOM     23  C   UNL     1      49.649   9.702  12.260  0.00  0.00    +0.000 A 
ATOM     24  C   UNL     1      49.244  10.571  11.255  0.00  0.00    +0.000 A 
ATOM     25  S   UNL     1      50.530  11.124  10.279  0.00  0.00    +0.000 S 
ATOM     26  C   UNL     1      51.660  10.180  11.135  0.00  0.00    +0.000 A 
ATOM     27  N   UNL     1      52.972  10.159  10.781  0.00  0.00    +0.000 NA
ATOM     28  C   UNL     1      53.705   9.369  11.497  0.00  0.00    +0.000 A 
ATOM     29  N   UNL     1      53.246   8.610  12.541  0.00  0.00    +0.000 N 
ATOM     30  C   UNL     1      51.942   8.635  12.965  0.00  0.00    +0.000 A 
ATOM     31  O   UNL     1      51.581   8.011  13.955  0.00  0.00    +0.000 OA
ATOM     32  C   UNL     1      51.069   9.481  12.171  0.00  0.00    +0.000 A 
ATOM     33  H   UNL     1      53.874   8.030  13.079  0.00  0.00    +0.000 HD
ENDBRANCH  20  23
ENDBRANCH   1  19
BRANCH   1  34
ATOM     34  C   UNL     1      48.258   5.987  14.921  0.00  0.00    +0.000 C 
BRANCH  34  35
ATOM     35  N   UNL     1      49.517   6.432  15.535  0.00  0.00    +0.000 NA
ATOM     36  H   UNL     1      50.223   6.515  14.805  0.00  0.00    +0.000 HD
ATOM     37  H   UNL     1      49.854   5.714  16.178  0.00  0.00    +0.000 HD
ENDBRANCH  34  35
ENDBRANCH   1  34
TORSDOF 8
ENDMDL
MODEL 8
REMARK VINA RESULT:    -6.287      5.120      8.436
REMARK INTER + INTRA:         -10.501
REMARK INTER:                  -9.831
REMARK INTRA:                  -0.671
REMARK UNBOUND:                -1.458
REMARK  Name = 
REMARK  8 active torsions:
REMARK  status: ('A' for Active; 'I' for Inactive)
REMARK    1  A    between atoms: N_1  and  C_2
REMARK    2  A    between atoms: C_2  and  C_3
REMARK    3  A    between atoms: C_3  and  N_4
REMARK    4  A    between atoms: C_3  and  C_17
REMARK    5  A    between atoms: C_5  and  C_7
REMARK    6  A    between atoms: C_20  and  C_21
REMARK    7  A    between atoms: C_21  and  N_22
REMARK    8  A    between atoms: C_23  and  C_25
REMARK                            x       y       z     vdW  Elec       q    Type
REMARK                         _______ _______ _______ _____ _____    ______ ____
ROOT
ATOM      1  C   UNL     1      46.008   8.131  12.340  0.00  0.00    +0.000 C 
ENDROOT
BRANCH   1   2
ATOM      2  C   UNL     1      47.503   8.337  12.079  0.00  0.00    +0.000 A 
ATOM      3  C   UNL     1      48.344   7.240  11.844  0.00  0.00    +0.000 A 
ATOM      4  C   UNL     1      49.709   7.425  11.584  0.00  0.00    +0.000 A 
ATOM      5  C   UNL     1      50.267   8.711  11.557  0.00  0.00    +0.000 A 
ATOM      6  C   UNL     1      49.427   9.809  11.779  0.00  0.00    +0.000 A 
ATOM      7  C   UNL     1      48.064   9.624  12.038  0.00  0.00    +0.000 A 
BRANCH   5   8
ATOM      8  C   UNL     1      51.743   8.911  11.333  0.00  0.00    +0.000 C 
BRANCH   8   9
ATOM      9  N   UNL     1      52.263   8.197  10.192  0.00  0.00    +0.000 N 
ATOM     10  C   UNL     1      53.409   7.445  10.315  0.00  0.00    +0.000 C 
ATOM     11  O   UNL     1      54.057   7.391  11.360  0.00  0.00    +0.000 OA
ATOM     12  H   UNL     1      51.756   8.149   9.314  0.00  0.00    +0.000 HD
BRANCH  10  13
ATOM     13  C   UNL     1      53.887   6.725   9.052  0.00  0.00    +0.000 C 
ATOM     14  C   UNL     1      52.974   6.956   7.864  0.00  0.00    +0.000 C 
ATOM     15  C   UNL     1      53.432   5.881   6.895  0.00  0.00    +0.000 C 
ATOM     16  C   UNL     1      53.926   4.748   7.790  0.00  0.00    +0.000 C 
ATOM     17  N   UNL     1      53.852   5.247   9.172  0.00  0.00    +0.000 NA
ATOM     18  H   UNL     1      54.667   4.932   9.701  0.00  0.00    +0.000 HD
ENDBRANCH  10  13
ENDBRANCH   8   9
ENDBRANCH   5   8
ENDBRANCH   1   2
BRANCH   1  19
ATOM     19  N   UNL     1      45.659   6.783  11.911  0.00  0.00    +0.000 N 
ATOM     20  C   UNL     1      44.392   6.401  11.552  0.00  0.00    +0.000 C 
ATOM     21  O   UNL     1      43.460   7.187  11.431  0.00  0.00    +0.000 OA
ATOM     22  H   UNL     1      46.287   6.057  12.245  0.00  0.00    +0.000 HD
BRANCH  20  23
ATOM     23  C   UNL     1      44.230   4.974  11.250  0.00  0.00    +0.000 A 
ATOM     24  C   UNL     1      43.494   4.156  12.098  0.00  0.00    +0.000 A 
ATOM     25  S   UNL     1      43.407   2.537  11.565  0.00  0.00    +0.000 S 
ATOM     26  C   UNL     1      44.390   2.866  10.215  0.00  0.00    +0.000 A 
ATOM     27  N   UNL     1      44.745   1.885   9.346  0.00  0.00    +0.000 NA
ATOM     28  C   UNL     1      45.524   2.275   8.390  0.00  0.00    +0.000 A 
ATOM     29  N   UNL     1      45.969   3.559   8.219  0.00  0.00    +0.000 N 
ATOM     30  C   UNL     1      45.599   4.592   9.043  0.00  0.00    +0.000 A 
ATOM     31  O   UNL     1      45.944   5.745   8.814  0.00  0.00    +0.000 OA
ATOM     32  C   UNL     1      44.751   4.200  10.154  0.00  0.00    +0.000 A 
ATOM     33  H   UNL     1      46.558   3.808   7.437  0.00  0.00    +0.000 HD
ENDBRANCH  20  23
ENDBRANCH   1  19
BRANCH   1  34
ATOM     34  C   UNL     1      45.141   9.219  11.636  0.00  0.00    +0.000 C 
BRANCH  34  35
ATOM     35  N   UNL     1      44.295  10.008  12.543  0.00  0.00    +0.000 NA
ATOM     36  H   UNL     1      44.125  10.918  12.119  0.00  0.00    +0.000 HD
ATOM     37  H   UNL     1      44.801  10.186  13.411  0.00  0.00    +0.000 HD
ENDBRANCH  34  35
ENDBRANCH   1  34
TORSDOF 8
ENDMDL
MODEL 9
REMARK VINA RESULT:    -6.153      3.468      5.447
REMARK INTER + INTRA:         -10.309
REMARK INTER:                  -9.155
REMARK INTRA:                  -1.153
REMARK UNBOUND:                -1.458
REMARK  Name = 
REMARK  8 active torsions:
REMARK  status: ('A' for Active; 'I' for Inactive)
REMARK    1  A    between atoms: N_1  and  C_2
REMARK    2  A    between atoms: C_2  and  C_3
REMARK    3  A    between atoms: C_3  and  N_4
REMARK    4  A    between atoms: C_3  and  C_17
REMARK    5  A    between atoms: C_5  and  C_7
REMARK    6  A    between atoms: C_20  and  C_21
REMARK    7  A    between atoms: C_21  and  N_22
REMARK    8  A    between atoms: C_23  and  C_25
REMARK                            x       y       z     vdW  Elec       q    Type
REMARK                         _______ _______ _______ _____ _____    ______ ____
ROOT
ATOM      1  C   UNL     1      48.303   6.702  14.832  0.00  0.00    +0.000 C 
ENDROOT
BRANCH   1   2
ATOM      2  C   UNL     1      47.299   6.321  13.740  0.00  0.00    +0.000 A 
ATOM      3  C   UNL     1      47.150   7.119  12.597  0.00  0.00    +0.000 A 
ATOM      4  C   UNL     1      46.248   6.762  11.586  0.00  0.00    +0.000 A 
ATOM      5  C   UNL     1      45.469   5.601  11.695  0.00  0.00    +0.000 A 
ATOM      6  C   UNL     1      45.626   4.795  12.829  0.00  0.00    +0.000 A 
ATOM      7  C   UNL     1      46.527   5.152  13.838  0.00  0.00    +0.000 A 
BRANCH   5   8
ATOM      8  C   UNL     1      44.459   5.243  10.636  0.00  0.00    +0.000 C 
BRANCH   8   9
ATOM      9  N   UNL     1      45.041   4.709   9.429  0.00  0.00    +0.000 N 
ATOM     10  C   UNL     1      44.854   3.385   9.102  0.00  0.00    +0.000 C 
ATOM     11  O   UNL     1      44.244   2.603   9.831  0.00  0.00    +0.000 OA
ATOM     12  H   UNL     1      45.510   5.303   8.752  0.00  0.00    +0.000 HD
BRANCH  10  13
ATOM     13  C   UNL     1      45.510   2.907   7.805  0.00  0.00    +0.000 C 
ATOM     14  C   UNL     1      46.392   1.692   8.007  0.00  0.00    +0.000 C 
ATOM     15  C   UNL     1      47.187   1.654   6.715  0.00  0.00    +0.000 C 
ATOM     16  C   UNL     1      47.287   3.115   6.287  0.00  0.00    +0.000 C 
ATOM     17  N   UNL     1      46.474   3.884   7.242  0.00  0.00    +0.000 NA
ATOM     18  H   UNL     1      45.961   4.619   6.752  0.00  0.00    +0.000 HD
ENDBRANCH  10  13
ENDBRANCH   8   9
ENDBRANCH   5   8
ENDBRANCH   1   2
BRANCH   1  19
ATOM     19  N   UNL     1      49.551   7.079  14.182  0.00  0.00    +0.000 N 
ATOM     20  C   UNL     1      50.190   8.275  14.392  0.00  0.00    +0.000 C 
ATOM     21  O   UNL     1      49.841   9.084  15.243  0.00  0.00    +0.000 OA
ATOM     22  H   UNL     1      49.730   6.604  13.303  0.00  0.00    +0.000 HD
BRANCH  20  23
ATOM     23  C   UNL     1      51.380   8.503  13.565  0.00  0.00    +0.000 A 
ATOM     24  C   UNL     1      52.629   8.074  13.998  0.00  0.00    +0.000 A 
ATOM     25  S   UNL     1      53.881   8.414  12.890  0.00  0.00    +0.000 S 
ATOM     26  C   UNL     1      52.805   9.189  11.822  0.00  0.00    +0.000 A 
ATOM     27  N   UNL     1      53.244   9.755  10.668  0.00  0.00    +0.000 NA
ATOM     28  C   UNL     1      52.320  10.340   9.976  0.00  0.00    +0.000 A 
ATOM     29  N   UNL     1      50.997  10.397  10.328  0.00  0.00    +0.000 N 
ATOM     30  C   UNL     1      50.501   9.799  11.458  0.00  0.00    +0.000 A 
ATOM     31  O   UNL     1      49.300   9.795  11.701  0.00  0.00    +0.000 OA
ATOM     32  C   UNL     1      51.504   9.158  12.289  0.00  0.00    +0.000 A 
ATOM     33  H   UNL     1      50.318  10.849   9.732  0.00  0.00    +0.000 HD
ENDBRANCH  20  23
ENDBRANCH   1  19
BRANCH   1  34
ATOM     34  C   UNL     1      48.497   5.554  15.869  0.00  0.00    +0.000 C 
BRANCH  34  35
ATOM     35  N   UNL     1      47.902   5.814  17.188  0.00  0.00    +0.000 NA
ATOM     36  H   UNL     1      48.569   5.532  17.905  0.00  0.00    +0.000 HD
ATOM     37  H   UNL     1      47.080   5.223  17.312  0.00  0.00    +0.000 HD
ENDBRANCH  34  35
ENDBRANCH   1  34
TORSDOF 8
ENDMDL
