MODEL 1
REMARK VINA RESULT:    -9.243      0.000      0.000
REMARK INTER + INTRA:         -13.738
REMARK INTER:                 -12.485
REMARK INTRA:                  -1.252
REMARK UNBOUND:                -1.252
REMARK  Name = 
REMARK  6 active torsions:
REMARK  status: ('A' for Active; 'I' for Inactive)
REMARK    1  A    between atoms: C_2  and  C_4
REMARK    2  A    between atoms: C_7  and  N_8
REMARK    3  A    between atoms: N_8  and  C_9
REMARK    4  A    between atoms: C_9  and  C_10
REMARK    5  A    between atoms: C_10  and  C_13
REMARK    6  A    between atoms: C_17  and  C_18
REMARK                            x       y       z     vdW  Elec       q    Type
REMARK                         _______ _______ _______ _____ _____    ______ ____
ROOT
ATOM      1  C   UNL     1      43.523   5.394  12.023  0.00  0.00    +0.000 C 
ATOM      2  F   UNL     1      42.880   6.275  11.203  0.00  0.00    +0.000 F 
ATOM      3  F   UNL     1      42.810   5.402  13.191  0.00  0.00    +0.000 F 
ENDROOT
BRANCH   1   4
ATOM      4  C   UNL     1      44.976   5.771  12.230  0.00  0.00    +0.000 A 
ATOM      5  C   UNL     1      45.666   6.515  11.269  0.00  0.00    +0.000 A 
ATOM      6  C   UNL     1      46.987   6.891  11.498  0.00  0.00    +0.000 A 
ATOM      7  C   UNL     1      47.623   6.535  12.693  0.00  0.00    +0.000 A 
ATOM      8  C   UNL     1      46.958   5.803  13.692  0.00  0.00    +0.000 A 
ATOM      9  C   UNL     1      45.629   5.423  13.429  0.00  0.00    +0.000 A 
BRANCH   8  10
ATOM     10  C   UNL     1      47.615   5.468  14.981  0.00  0.00    +0.000 A 
ATOM     11  C   UNL     1      48.637   6.271  15.521  0.00  0.00    +0.000 A 
ATOM     12  C   UNL     1      49.269   5.940  16.727  0.00  0.00    +0.000 A 
ATOM     13  C   UNL     1      48.883   4.802  17.433  0.00  0.00    +0.000 A 
ATOM     14 CL   UNL     1      49.698   4.456  18.915  0.00  0.00    +0.000 Cl
ATOM     15  C   UNL     1      47.868   3.991  16.925  0.00  0.00    +0.000 A 
ATOM     16 CL   UNL     1      47.325   2.567  17.740  0.00  0.00    +0.000 Cl
ATOM     17  C   UNL     1      47.251   4.319  15.709  0.00  0.00    +0.000 A 
ENDBRANCH   8  10
ENDBRANCH   1   4
BRANCH   1  18
ATOM     18  C   UNL     1      43.437   3.972  11.412  0.00  0.00    +0.000 C 
BRANCH  18  19
ATOM     19  N   UNL     1      43.438   3.969   9.942  0.00  0.00    +0.000 N 
ATOM     20  H   UNL     1      42.543   3.722   9.518  0.00  0.00    +0.000 HD
BRANCH  19  24
ATOM     21  C   UNL     1      46.643   2.500   7.632  0.00  0.00    +0.000 A 
ATOM     22  C   UNL     1      46.356   3.867   7.616  0.00  0.00    +0.000 A 
ATOM     23  C   UNL     1      45.307   4.371   8.394  0.00  0.00    +0.000 A 
ATOM     24  C   UNL     1      44.547   3.537   9.224  0.00  0.00    +0.000 A 
ATOM     25  C   UNL     1      44.838   2.166   9.212  0.00  0.00    +0.000 A 
ATOM     26  C   UNL     1      45.871   1.647   8.423  0.00  0.00    +0.000 A 
BRANCH  21  28
ATOM     27  N   UNL     1      48.653   2.782   6.290  0.00  0.00    +0.000 N 
ATOM     28  C   UNL     1      47.719   1.919   6.793  0.00  0.00    +0.000 C 
ATOM     29  O   UNL     1      47.797   0.715   6.583  0.00  0.00    +0.000 OA
ATOM     30  H   UNL     1      49.440   2.358   5.815  0.00  0.00    +0.000 HD
ATOM     31  H   UNL     1      48.771   3.719   6.649  0.00  0.00    +0.000 HD
ENDBRANCH  21  28
ENDBRANCH  19  24
ENDBRANCH  18  19
ENDBRANCH   1  18
TORSDOF 6
ENDMDL
MODEL 2
REMARK VINA RESULT:    -8.675      3.218      4.225
REMARK INTER + INTRA:         -12.970
REMARK INTER:                 -11.765
REMARK INTRA:                  -1.205
REMARK UNBOUND:                -1.252
REMARK  Name = 
REMARK  6 active torsions:
REMARK  status: ('A' for Active; 'I' for Inactive)
REMARK    1  A    between atoms: C_2  and  C_4
REMARK    2  A    between atoms: C_7  and  N_8
REMARK    3  A    between atoms: N_8  and  C_9
REMARK    4  A    between atoms: C_9  and  C_10
REMARK    5  A    between atoms: C_10  and  C_13
REMARK    6  A    between atoms: C_17  and  C_18
REMARK                            x       y       z     vdW  Elec       q    Type
REMARK                         _______ _______ _______ _____ _____    ______ ____
ROOT
ATOM      1  C   UNL     1      43.809   6.045  11.996  0.00  0.00    +0.000 C 
ATOM      2  F   UNL     1      43.624   7.135  11.196  0.00  0.00    +0.000 F 
ATOM      3  F   UNL     1      42.944   6.215  13.043  0.00  0.00    +0.000 F 
ENDROOT
BRANCH   1   4
ATOM      4  C   UNL     1      45.248   5.915  12.451  0.00  0.00    +0.000 A 
ATOM      5  C   UNL     1      45.675   4.791  13.165  0.00  0.00    +0.000 A 
ATOM      6  C   UNL     1      47.011   4.668  13.535  0.00  0.00    +0.000 A 
ATOM      7  C   UNL     1      47.932   5.661  13.183  0.00  0.00    +0.000 A 
ATOM      8  C   UNL     1      47.548   6.797  12.451  0.00  0.00    +0.000 A 
ATOM      9  C   UNL     1      46.189   6.904  12.103  0.00  0.00    +0.000 A 
BRANCH   8  10
ATOM     10  C   UNL     1      48.533   7.827  12.034  0.00  0.00    +0.000 A 
ATOM     11  C   UNL     1      48.188   9.188  11.946  0.00  0.00    +0.000 A 
ATOM     12  C   UNL     1      49.115  10.154  11.532  0.00  0.00    +0.000 A 
ATOM     13  C   UNL     1      50.419   9.783  11.209  0.00  0.00    +0.000 A 
ATOM     14 CL   UNL     1      51.512  11.024  10.713  0.00  0.00    +0.000 Cl
ATOM     15  C   UNL     1      50.791   8.441  11.293  0.00  0.00    +0.000 A 
ATOM     16 CL   UNL     1      52.388   7.898  10.917  0.00  0.00    +0.000 Cl
ATOM     17  C   UNL     1      49.854   7.478  11.692  0.00  0.00    +0.000 A 
ENDBRANCH   8  10
ENDBRANCH   1   4
BRANCH   1  18
ATOM     18  C   UNL     1      43.390   4.768  11.224  0.00  0.00    +0.000 C 
BRANCH  18  19
ATOM     19  N   UNL     1      43.692   4.832   9.786  0.00  0.00    +0.000 N 
ATOM     20  H   UNL     1      42.889   5.043   9.193  0.00  0.00    +0.000 HD
BRANCH  19  24
ATOM     21  C   UNL     1      46.302   2.088   7.937  0.00  0.00    +0.000 A 
ATOM     22  C   UNL     1      46.364   3.438   7.584  0.00  0.00    +0.000 A 
ATOM     23  C   UNL     1      45.518   4.364   8.205  0.00  0.00    +0.000 A 
ATOM     24  C   UNL     1      44.619   3.974   9.206  0.00  0.00    +0.000 A 
ATOM     25  C   UNL     1      44.559   2.612   9.533  0.00  0.00    +0.000 A 
ATOM     26  C   UNL     1      45.386   1.674   8.905  0.00  0.00    +0.000 A 
BRANCH  21  28
ATOM     27  N   UNL     1      46.926  -0.240   7.597  0.00  0.00    +0.000 N 
ATOM     28  C   UNL     1      47.154   1.069   7.275  0.00  0.00    +0.000 C 
ATOM     29  O   UNL     1      48.002   1.375   6.447  0.00  0.00    +0.000 OA
ATOM     30  H   UNL     1      47.437  -0.926   7.057  0.00  0.00    +0.000 HD
ATOM     31  H   UNL     1      46.082  -0.542   8.062  0.00  0.00    +0.000 HD
ENDBRANCH  21  28
ENDBRANCH  19  24
ENDBRANCH  18  19
ENDBRANCH   1  18
TORSDOF 6
ENDMDL
MODEL 3
REMARK VINA RESULT:    -8.391      3.304      3.915
REMARK INTER + INTRA:         -12.587
REMARK INTER:                 -11.585
REMARK INTRA:                  -1.002
REMARK UNBOUND:                -1.252
REMARK  Name = 
REMARK  6 active torsions:
REMARK  status: ('A' for Active; 'I' for Inactive)
REMARK    1  A    between atoms: C_2  and  C_4
REMARK    2  A    between atoms: C_7  and  N_8
REMARK    3  A    between atoms: N_8  and  C_9
REMARK    4  A    between atoms: C_9  and  C_10
REMARK    5  A    between atoms: C_10  and  C_13
REMARK    6  A    between atoms: C_17  and  C_18
REMARK                            x       y       z     vdW  Elec       q    Type
REMARK                         _______ _______ _______ _____ _____    ______ ____
ROOT
ATOM      1  C   UNL     1      44.793   4.782  12.315  0.00  0.00    +0.000 C 
ATOM      2  F   UNL     1      44.427   4.542  13.607  0.00  0.00    +0.000 F 
ATOM      3  F   UNL     1      45.738   3.834  12.026  0.00  0.00    +0.000 F 
ENDROOT
BRANCH   1   4
ATOM      4  C   UNL     1      45.314   6.192  12.127  0.00  0.00    +0.000 A 
ATOM      5  C   UNL     1      44.436   7.255  11.896  0.00  0.00    +0.000 A 
ATOM      6  C   UNL     1      44.930   8.550  11.772  0.00  0.00    +0.000 A 
ATOM      7  C   UNL     1      46.303   8.794  11.889  0.00  0.00    +0.000 A 
ATOM      8  C   UNL     1      47.217   7.756  12.139  0.00  0.00    +0.000 A 
ATOM      9  C   UNL     1      46.693   6.455  12.245  0.00  0.00    +0.000 A 
BRANCH   8  10
ATOM     10  C   UNL     1      48.668   8.020  12.313  0.00  0.00    +0.000 A 
ATOM     11  C   UNL     1      49.175   8.629  13.476  0.00  0.00    +0.000 A 
ATOM     12  C   UNL     1      50.542   8.896  13.628  0.00  0.00    +0.000 A 
ATOM     13  C   UNL     1      51.441   8.546  12.623  0.00  0.00    +0.000 A 
ATOM     14 CL   UNL     1      53.112   8.896  12.876  0.00  0.00    +0.000 Cl
ATOM     15  C   UNL     1      50.968   7.935  11.461  0.00  0.00    +0.000 A 
ATOM     16 CL   UNL     1      52.016   7.463  10.170  0.00  0.00    +0.000 Cl
ATOM     17  C   UNL     1      49.597   7.686  11.309  0.00  0.00    +0.000 A 
ENDBRANCH   8  10
ENDBRANCH   1   4
BRANCH   1  18
ATOM     18  C   UNL     1      43.574   4.550  11.386  0.00  0.00    +0.000 C 
BRANCH  18  19
ATOM     19  N   UNL     1      43.846   4.871   9.977  0.00  0.00    +0.000 N 
ATOM     20  H   UNL     1      43.061   5.291   9.479  0.00  0.00    +0.000 HD
BRANCH  19  24
ATOM     21  C   UNL     1      46.472   2.477   7.712  0.00  0.00    +0.000 A 
ATOM     22  C   UNL     1      45.520   1.865   8.530  0.00  0.00    +0.000 A 
ATOM     23  C   UNL     1      44.627   2.648   9.272  0.00  0.00    +0.000 A 
ATOM     24  C   UNL     1      44.643   4.046   9.193  0.00  0.00    +0.000 A 
ATOM     25  C   UNL     1      45.618   4.642   8.381  0.00  0.00    +0.000 A 
ATOM     26  C   UNL     1      46.529   3.870   7.650  0.00  0.00    +0.000 A 
BRANCH  21  28
ATOM     27  N   UNL     1      48.523   2.362   6.406  0.00  0.00    +0.000 N 
ATOM     28  C   UNL     1      47.462   1.685   6.940  0.00  0.00    +0.000 C 
ATOM     29  O   UNL     1      47.360   0.472   6.813  0.00  0.00    +0.000 OA
ATOM     30  H   UNL     1      49.244   1.793   5.980  0.00  0.00    +0.000 HD
ATOM     31  H   UNL     1      48.776   3.293   6.705  0.00  0.00    +0.000 HD
ENDBRANCH  21  28
ENDBRANCH  19  24
ENDBRANCH  18  19
ENDBRANCH   1  18
TORSDOF 6
ENDMDL
MODEL 4
REMARK VINA RESULT:    -8.135      1.650      2.122
REMARK INTER + INTRA:         -12.241
REMARK INTER:                 -11.283
REMARK INTRA:                  -0.958
REMARK UNBOUND:                -1.252
REMARK  Name = 
REMARK  6 active torsions:
REMARK  status: ('A' for Active; 'I' for Inactive)
REMARK    1  A    between atoms: C_2  and  C_4
REMARK    2  A    between atoms: C_7  and  N_8
REMARK    3  A    between atoms: N_8  and  C_9
REMARK    4  A    between atoms: C_9  and  C_10
REMARK    5  A    between atoms: C_10  and  C_13
REMARK    6  A    between atoms: C_17  and  C_18
REMARK                            x       y       z     vdW  Elec       q    Type
REMARK                         _______ _______ _______ _____ _____    ______ ____
ROOT
ATOM      1  C   UNL     1      44.720   4.546  12.442  0.00  0.00    +0.000 C 
ATOM      2  F   UNL     1      43.997   4.213  13.551  0.00  0.00    +0.000 F 
ATOM      3  F   UNL     1      45.560   3.487  12.228  0.00  0.00    +0.000 F 
ENDROOT
BRANCH   1   4
ATOM      4  C   UNL     1      45.470   5.850  12.627  0.00  0.00    +0.000 A 
ATOM      5  C   UNL     1      44.951   7.050  12.134  0.00  0.00    +0.000 A 
ATOM      6  C   UNL     1      45.632   8.244  12.354  0.00  0.00    +0.000 A 
ATOM      7  C   UNL     1      46.829   8.249  13.078  0.00  0.00    +0.000 A 
ATOM      8  C   UNL     1      47.375   7.066  13.607  0.00  0.00    +0.000 A 
ATOM      9  C   UNL     1      46.675   5.872  13.357  0.00  0.00    +0.000 A 
BRANCH   8  10
ATOM     10  C   UNL     1      48.619   7.076  14.418  0.00  0.00    +0.000 A 
ATOM     11  C   UNL     1      49.767   7.775  14.002  0.00  0.00    +0.000 A 
ATOM     12  C   UNL     1      50.946   7.765  14.759  0.00  0.00    +0.000 A 
ATOM     13  C   UNL     1      51.001   7.064  15.963  0.00  0.00    +0.000 A 
ATOM     14 CL   UNL     1      52.482   7.098  16.850  0.00  0.00    +0.000 Cl
ATOM     15  C   UNL     1      49.876   6.367  16.402  0.00  0.00    +0.000 A 
ATOM     16 CL   UNL     1      49.858   5.478  17.885  0.00  0.00    +0.000 Cl
ATOM     17  C   UNL     1      48.705   6.368  15.632  0.00  0.00    +0.000 A 
ENDBRANCH   8  10
ENDBRANCH   1   4
BRANCH   1  18
ATOM     18  C   UNL     1      43.767   4.663  11.226  0.00  0.00    +0.000 C 
BRANCH  18  19
ATOM     19  N   UNL     1      43.764   3.465  10.372  0.00  0.00    +0.000 N 
ATOM     20  H   UNL     1      43.451   2.613  10.838  0.00  0.00    +0.000 HD
BRANCH  19  24
ATOM     21  C   UNL     1      46.587   2.697   7.338  0.00  0.00    +0.000 A 
ATOM     22  C   UNL     1      46.211   4.016   7.607  0.00  0.00    +0.000 A 
ATOM     23  C   UNL     1      45.290   4.287   8.626  0.00  0.00    +0.000 A 
ATOM     24  C   UNL     1      44.750   3.262   9.415  0.00  0.00    +0.000 A 
ATOM     25  C   UNL     1      45.126   1.945   9.117  0.00  0.00    +0.000 A 
ATOM     26  C   UNL     1      46.031   1.659   8.088  0.00  0.00    +0.000 A 
BRANCH  21  28
ATOM     27  N   UNL     1      47.568   3.213   5.172  0.00  0.00    +0.000 N 
ATOM     28  C   UNL     1      47.530   2.364   6.242  0.00  0.00    +0.000 C 
ATOM     29  O   UNL     1      48.272   1.392   6.302  0.00  0.00    +0.000 OA
ATOM     30  H   UNL     1      48.292   3.034   4.487  0.00  0.00    +0.000 HD
ATOM     31  H   UNL     1      47.174   4.143   5.205  0.00  0.00    +0.000 HD
ENDBRANCH  21  28
ENDBRANCH  19  24
ENDBRANCH  18  19
ENDBRANCH   1  18
TORSDOF 6
ENDMDL
MODEL 5
REMARK VINA RESULT:    -7.778      4.360      7.814
REMARK INTER + INTRA:         -11.758
REMARK INTER:                 -10.613
REMARK INTRA:                  -1.145
REMARK UNBOUND:                -1.252
REMARK  Name = 
REMARK  6 active torsions:
REMARK  status: ('A' for Active; 'I' for Inactive)
REMARK    1  A    between atoms: C_2  and  C_4
REMARK    2  A    between atoms: C_7  and  N_8
REMARK    3  A    between atoms: N_8  and  C_9
REMARK    4  A    between atoms: C_9  and  C_10
REMARK    5  A    between atoms: C_10  and  C_13
REMARK    6  A    between atoms: C_17  and  C_18
REMARK                            x       y       z     vdW  Elec       q    Type
REMARK                         _______ _______ _______ _____ _____    ______ ____
ROOT
ATOM      1  C   UNL     1      45.374   7.454  12.041  0.00  0.00    +0.000 C 
ATOM      2  F   UNL     1      44.918   7.708  13.302  0.00  0.00    +0.000 F 
ATOM      3  F   UNL     1      45.005   8.542  11.297  0.00  0.00    +0.000 F 
ENDROOT
BRANCH   1   4
ATOM      4  C   UNL     1      44.815   6.159  11.488  0.00  0.00    +0.000 A 
ATOM      5  C   UNL     1      43.597   5.650  11.948  0.00  0.00    +0.000 A 
ATOM      6  C   UNL     1      43.078   4.484  11.395  0.00  0.00    +0.000 A 
ATOM      7  C   UNL     1      43.765   3.824  10.371  0.00  0.00    +0.000 A 
ATOM      8  C   UNL     1      44.983   4.312   9.867  0.00  0.00    +0.000 A 
ATOM      9  C   UNL     1      45.493   5.484  10.454  0.00  0.00    +0.000 A 
BRANCH   8  10
ATOM     10  C   UNL     1      45.689   3.640   8.746  0.00  0.00    +0.000 A 
ATOM     11  C   UNL     1      46.229   4.369   7.670  0.00  0.00    +0.000 A 
ATOM     12  C   UNL     1      46.875   3.730   6.603  0.00  0.00    +0.000 A 
ATOM     13  C   UNL     1      47.011   2.343   6.594  0.00  0.00    +0.000 A 
ATOM     14 CL   UNL     1      47.825   1.621   5.254  0.00  0.00    +0.000 Cl
ATOM     15  C   UNL     1      46.492   1.596   7.651  0.00  0.00    +0.000 A 
ATOM     16 CL   UNL     1      46.623  -0.126   7.721  0.00  0.00    +0.000 Cl
ATOM     17  C   UNL     1      45.831   2.240   8.707  0.00  0.00    +0.000 A 
ENDBRANCH   8  10
ENDBRANCH   1   4
BRANCH   1  18
ATOM     18  C   UNL     1      46.923   7.384  12.063  0.00  0.00    +0.000 C 
BRANCH  18  19
ATOM     19  N   UNL     1      47.491   7.476  13.416  0.00  0.00    +0.000 N 
ATOM     20  H   UNL     1      48.237   8.164  13.517  0.00  0.00    +0.000 HD
BRANCH  19  24
ATOM     21  C   UNL     1      47.857   4.178  16.015  0.00  0.00    +0.000 A 
ATOM     22  C   UNL     1      47.127   4.041  14.833  0.00  0.00    +0.000 A 
ATOM     23  C   UNL     1      47.014   5.122  13.950  0.00  0.00    +0.000 A 
ATOM     24  C   UNL     1      47.647   6.345  14.208  0.00  0.00    +0.000 A 
ATOM     25  C   UNL     1      48.360   6.468  15.409  0.00  0.00    +0.000 A 
ATOM     26  C   UNL     1      48.463   5.401  16.309  0.00  0.00    +0.000 A 
BRANCH  21  28
ATOM     27  N   UNL     1      46.851   2.765  17.722  0.00  0.00    +0.000 N 
ATOM     28  C   UNL     1      47.968   3.070  16.996  0.00  0.00    +0.000 C 
ATOM     29  O   UNL     1      49.002   2.428  17.130  0.00  0.00    +0.000 OA
ATOM     30  H   UNL     1      46.910   1.938  18.303  0.00  0.00    +0.000 HD
ATOM     31  H   UNL     1      45.931   3.087  17.458  0.00  0.00    +0.000 HD
ENDBRANCH  21  28
ENDBRANCH  19  24
ENDBRANCH  18  19
ENDBRANCH   1  18
TORSDOF 6
ENDMDL
MODEL 6
REMARK VINA RESULT:    -7.725      3.608      4.665
REMARK INTER + INTRA:         -11.687
REMARK INTER:                 -10.648
REMARK INTRA:                  -1.039
REMARK UNBOUND:                -1.252
REMARK  Name = 
REMARK  6 active torsions:
REMARK  status: ('A' for Active; 'I' for Inactive)
REMARK    1  A    between atoms: C_2  and  C_4
REMARK    2  A    between atoms: C_7  and  N_8
REMARK    3  A    between atoms: N_8  and  C_9
REMARK    4  A    between atoms: C_9  and  C_10
REMARK    5  A    between atoms: C_10  and  C_13
REMARK    6  A    between atoms: C_17  and  C_18
REMARK                            x       y       z     vdW  Elec       q    Type
REMARK                         _______ _______ _______ _____ _____    ______ ____
ROOT
ATOM      1  C   UNL     1      45.703   6.286  12.032  0.00  0.00    +0.000 C 
ATOM      2  F   UNL     1      44.891   6.252  13.128  0.00  0.00    +0.000 F 
ATOM      3  F   UNL     1      46.425   5.125  12.082  0.00  0.00    +0.000 F 
ENDROOT
BRANCH   1   4
ATOM      4  C   UNL     1      46.587   7.516  12.022  0.00  0.00    +0.000 A 
ATOM      5  C   UNL     1      46.055   8.783  12.277  0.00  0.00    +0.000 A 
ATOM      6  C   UNL     1      46.891   9.895  12.308  0.00  0.00    +0.000 A 
ATOM      7  C   UNL     1      48.266   9.748  12.097  0.00  0.00    +0.000 A 
ATOM      8  C   UNL     1      48.844   8.489  11.855  0.00  0.00    +0.000 A 
ATOM      9  C   UNL     1      47.974   7.384  11.814  0.00  0.00    +0.000 A 
BRANCH   8  10
ATOM     10  C   UNL     1      50.309   8.325  11.680  0.00  0.00    +0.000 A 
ATOM     11  C   UNL     1      50.847   7.549  10.636  0.00  0.00    +0.000 A 
ATOM     12  C   UNL     1      52.230   7.379  10.487  0.00  0.00    +0.000 A 
ATOM     13  C   UNL     1      53.113   7.993  11.373  0.00  0.00    +0.000 A 
ATOM     14 CL   UNL     1      54.804   7.748  11.128  0.00  0.00    +0.000 Cl
ATOM     15  C   UNL     1      52.608   8.773  12.413  0.00  0.00    +0.000 A 
ATOM     16 CL   UNL     1      53.634   9.575  13.551  0.00  0.00    +0.000 Cl
ATOM     17  C   UNL     1      51.223   8.926  12.567  0.00  0.00    +0.000 A 
ENDBRANCH   8  10
ENDBRANCH   1   4
BRANCH   1  18
ATOM     18  C   UNL     1      44.832   6.261  10.750  0.00  0.00    +0.000 C 
BRANCH  18  19
ATOM     19  N   UNL     1      44.303   4.926  10.432  0.00  0.00    +0.000 N 
ATOM     20  H   UNL     1      43.887   4.436  11.223  0.00  0.00    +0.000 HD
BRANCH  19  24
ATOM     21  C   UNL     1      46.477   2.513   7.746  0.00  0.00    +0.000 A 
ATOM     22  C   UNL     1      45.675   1.908   8.716  0.00  0.00    +0.000 A 
ATOM     23  C   UNL     1      44.931   2.697   9.601  0.00  0.00    +0.000 A 
ATOM     24  C   UNL     1      44.945   4.096   9.521  0.00  0.00    +0.000 A 
ATOM     25  C   UNL     1      45.770   4.684   8.552  0.00  0.00    +0.000 A 
ATOM     26  C   UNL     1      46.534   3.906   7.674  0.00  0.00    +0.000 A 
BRANCH  21  28
ATOM     27  N   UNL     1      48.353   2.354   6.203  0.00  0.00    +0.000 N 
ATOM     28  C   UNL     1      47.310   1.714   6.814  0.00  0.00    +0.000 C 
ATOM     29  O   UNL     1      47.104   0.523   6.622  0.00  0.00    +0.000 OA
ATOM     30  H   UNL     1      48.976   1.771   5.660  0.00  0.00    +0.000 HD
ATOM     31  H   UNL     1      48.707   3.242   6.529  0.00  0.00    +0.000 HD
ENDBRANCH  21  28
ENDBRANCH  19  24
ENDBRANCH  18  19
ENDBRANCH   1  18
TORSDOF 6
ENDMDL
MODEL 7
REMARK VINA RESULT:    -7.693      3.494      4.558
REMARK INTER + INTRA:         -11.644
REMARK INTER:                 -10.791
REMARK INTRA:                  -0.852
REMARK UNBOUND:                -1.252
REMARK  Name = 
REMARK  6 active torsions:
REMARK  status: ('A' for Active; 'I' for Inactive)
REMARK    1  A    between atoms: C_2  and  C_4
REMARK    2  A    between atoms: C_7  and  N_8
REMARK    3  A    between atoms: N_8  and  C_9
REMARK    4  A    between atoms: C_9  and  C_10
REMARK    5  A    between atoms: C_10  and  C_13
REMARK    6  A    between atoms: C_17  and  C_18
REMARK                            x       y       z     vdW  Elec       q    Type
REMARK                         _______ _______ _______ _____ _____    ______ ____
ROOT
ATOM      1  C   UNL     1      45.236   4.436  12.773  0.00  0.00    +0.000 C 
ATOM      2  F   UNL     1      44.205   4.238  13.645  0.00  0.00    +0.000 F 
ATOM      3  F   UNL     1      45.598   3.186  12.352  0.00  0.00    +0.000 F 
ENDROOT
BRANCH   1   4
ATOM      4  C   UNL     1      46.385   5.184  13.418  0.00  0.00    +0.000 A 
ATOM      5  C   UNL     1      46.909   4.771  14.646  0.00  0.00    +0.000 A 
ATOM      6  C   UNL     1      47.995   5.443  15.200  0.00  0.00    +0.000 A 
ATOM      7  C   UNL     1      48.572   6.524  14.525  0.00  0.00    +0.000 A 
ATOM      8  C   UNL     1      48.087   6.959  13.280  0.00  0.00    +0.000 A 
ATOM      9  C   UNL     1      46.980   6.272  12.750  0.00  0.00    +0.000 A 
BRANCH   8  10
ATOM     10  C   UNL     1      48.730   8.074  12.539  0.00  0.00    +0.000 A 
ATOM     11  C   UNL     1      50.114   8.091  12.283  0.00  0.00    +0.000 A 
ATOM     12  C   UNL     1      50.720   9.155  11.602  0.00  0.00    +0.000 A 
ATOM     13  C   UNL     1      49.953  10.225  11.146  0.00  0.00    +0.000 A 
ATOM     14 CL   UNL     1      50.761  11.500  10.308  0.00  0.00    +0.000 Cl
ATOM     15  C   UNL     1      48.577  10.232  11.379  0.00  0.00    +0.000 A 
ATOM     16 CL   UNL     1      47.552  11.516  10.842  0.00  0.00    +0.000 Cl
ATOM     17  C   UNL     1      47.980   9.172  12.076  0.00  0.00    +0.000 A 
ENDBRANCH   8  10
ENDBRANCH   1   4
BRANCH   1  18
ATOM     18  C   UNL     1      44.721   5.232  11.546  0.00  0.00    +0.000 C 
BRANCH  18  19
ATOM     19  N   UNL     1      44.194   4.373  10.475  0.00  0.00    +0.000 N 
ATOM     20  H   UNL     1      43.415   3.777  10.754  0.00  0.00    +0.000 HD
BRANCH  19  24
ATOM     21  C   UNL     1      46.548   2.509   7.518  0.00  0.00    +0.000 A 
ATOM     22  C   UNL     1      46.471   3.903   7.554  0.00  0.00    +0.000 A 
ATOM     23  C   UNL     1      45.710   4.536   8.544  0.00  0.00    +0.000 A 
ATOM     24  C   UNL     1      45.038   3.802   9.530  0.00  0.00    +0.000 A 
ATOM     25  C   UNL     1      45.113   2.403   9.465  0.00  0.00    +0.000 A 
ATOM     26  C   UNL     1      45.855   1.758   8.469  0.00  0.00    +0.000 A 
BRANCH  21  28
ATOM     27  N   UNL     1      47.950   2.566   5.528  0.00  0.00    +0.000 N 
ATOM     28  C   UNL     1      47.312   1.798   6.463  0.00  0.00    +0.000 C 
ATOM     29  O   UNL     1      47.403   0.577   6.443  0.00  0.00    +0.000 OA
ATOM     30  H   UNL     1      48.555   2.072   4.885  0.00  0.00    +0.000 HD
ATOM     31  H   UNL     1      48.113   3.554   5.662  0.00  0.00    +0.000 HD
ENDBRANCH  21  28
ENDBRANCH  19  24
ENDBRANCH  18  19
ENDBRANCH   1  18
TORSDOF 6
ENDMDL
MODEL 8
REMARK VINA RESULT:    -7.411      4.902      7.968
REMARK INTER + INTRA:         -11.262
REMARK INTER:                  -9.833
REMARK INTRA:                  -1.429
REMARK UNBOUND:                -1.252
REMARK  Name = 
REMARK  6 active torsions:
REMARK  status: ('A' for Active; 'I' for Inactive)
REMARK    1  A    between atoms: C_2  and  C_4
REMARK    2  A    between atoms: C_7  and  N_8
REMARK    3  A    between atoms: N_8  and  C_9
REMARK    4  A    between atoms: C_9  and  C_10
REMARK    5  A    between atoms: C_10  and  C_13
REMARK    6  A    between atoms: C_17  and  C_18
REMARK                            x       y       z     vdW  Elec       q    Type
REMARK                         _______ _______ _______ _____ _____    ______ ____
ROOT
ATOM      1  C   UNL     1      49.104   8.705  12.245  0.00  0.00    +0.000 C 
ATOM      2  F   UNL     1      49.285   9.997  12.644  0.00  0.00    +0.000 F 
ATOM      3  F   UNL     1      49.747   8.605  11.042  0.00  0.00    +0.000 F 
ENDROOT
BRANCH   1   4
ATOM      4  C   UNL     1      47.636   8.343  12.148  0.00  0.00    +0.000 A 
ATOM      5  C   UNL     1      46.647   9.256  12.524  0.00  0.00    +0.000 A 
ATOM      6  C   UNL     1      45.303   8.923  12.384  0.00  0.00    +0.000 A 
ATOM      7  C   UNL     1      44.938   7.679  11.855  0.00  0.00    +0.000 A 
ATOM      8  C   UNL     1      45.901   6.740  11.448  0.00  0.00    +0.000 A 
ATOM      9  C   UNL     1      47.252   7.097  11.615  0.00  0.00    +0.000 A 
BRANCH   8  10
ATOM     10  C   UNL     1      45.516   5.441  10.841  0.00  0.00    +0.000 A 
ATOM     11  C   UNL     1      44.904   4.424  11.597  0.00  0.00    +0.000 A 
ATOM     12  C   UNL     1      44.562   3.191  11.026  0.00  0.00    +0.000 A 
ATOM     13  C   UNL     1      44.809   2.950   9.676  0.00  0.00    +0.000 A 
ATOM     14 CL   UNL     1      44.356   1.413   9.034  0.00  0.00    +0.000 Cl
ATOM     15  C   UNL     1      45.408   3.943   8.900  0.00  0.00    +0.000 A 
ATOM     16 CL   UNL     1      45.744   3.727   7.218  0.00  0.00    +0.000 Cl
ATOM     17  C   UNL     1      45.764   5.168   9.482  0.00  0.00    +0.000 A 
ENDBRANCH   8  10
ENDBRANCH   1   4
BRANCH   1  18
ATOM     18  C   UNL     1      49.807   7.757  13.251  0.00  0.00    +0.000 C 
BRANCH  18  19
ATOM     19  N   UNL     1      49.248   7.831  14.609  0.00  0.00    +0.000 N 
ATOM     20  H   UNL     1      49.671   8.544  15.203  0.00  0.00    +0.000 HD
BRANCH  19  24
ATOM     21  C   UNL     1      47.966   4.507  16.861  0.00  0.00    +0.000 A 
ATOM     22  C   UNL     1      47.436   4.717  15.586  0.00  0.00    +0.000 A 
ATOM     23  C   UNL     1      47.868   5.805  14.819  0.00  0.00    +0.000 A 
ATOM     24  C   UNL     1      48.853   6.684  15.287  0.00  0.00    +0.000 A 
ATOM     25  C   UNL     1      49.359   6.467  16.577  0.00  0.00    +0.000 A 
ATOM     26  C   UNL     1      48.921   5.395  17.361  0.00  0.00    +0.000 A 
BRANCH  21  28
ATOM     27  N   UNL     1      48.261   3.102  18.826  0.00  0.00    +0.000 N 
ATOM     28  C   UNL     1      47.508   3.389  17.722  0.00  0.00    +0.000 C 
ATOM     29  O   UNL     1      46.480   2.768  17.482  0.00  0.00    +0.000 OA
ATOM     30  H   UNL     1      47.876   2.414  19.461  0.00  0.00    +0.000 HD
ATOM     31  H   UNL     1      48.949   3.744  19.193  0.00  0.00    +0.000 HD
ENDBRANCH  21  28
ENDBRANCH  19  24
ENDBRANCH  18  19
ENDBRANCH   1  18
TORSDOF 6
ENDMDL
MODEL 9
REMARK VINA RESULT:    -6.734      4.664      7.344
REMARK INTER + INTRA:         -10.349
REMARK INTER:                  -9.155
REMARK INTRA:                  -1.194
REMARK UNBOUND:                -1.252
REMARK  Name = 
REMARK  6 active torsions:
REMARK  status: ('A' for Active; 'I' for Inactive)
REMARK    1  A    between atoms: C_2  and  C_4
REMARK    2  A    between atoms: C_7  and  N_8
REMARK    3  A    between atoms: N_8  and  C_9
REMARK    4  A    between atoms: C_9  and  C_10
REMARK    5  A    between atoms: C_10  and  C_13
REMARK    6  A    between atoms: C_17  and  C_18
REMARK                            x       y       z     vdW  Elec       q    Type
REMARK                         _______ _______ _______ _____ _____    ______ ____
ROOT
ATOM      1  C   UNL     1      44.316   7.551  11.555  0.00  0.00    +0.000 C 
ATOM      2  F   UNL     1      43.095   8.160  11.574  0.00  0.00    +0.000 F 
ATOM      3  F   UNL     1      45.023   8.189  10.572  0.00  0.00    +0.000 F 
ENDROOT
BRANCH   1   4
ATOM      4  C   UNL     1      44.200   6.060  11.307  0.00  0.00    +0.000 A 
ATOM      5  C   UNL     1      43.310   5.278  12.049  0.00  0.00    +0.000 A 
ATOM      6  C   UNL     1      43.184   3.919  11.775  0.00  0.00    +0.000 A 
ATOM      7  C   UNL     1      43.938   3.335  10.750  0.00  0.00    +0.000 A 
ATOM      8  C   UNL     1      44.830   4.090   9.969  0.00  0.00    +0.000 A 
ATOM      9  C   UNL     1      44.949   5.457  10.277  0.00  0.00    +0.000 A 
BRANCH   8  10
ATOM     10  C   UNL     1      45.593   3.482   8.850  0.00  0.00    +0.000 A 
ATOM     11  C   UNL     1      46.156   4.267   7.826  0.00  0.00    +0.000 A 
ATOM     12  C   UNL     1      46.857   3.689   6.760  0.00  0.00    +0.000 A 
ATOM     13  C   UNL     1      47.025   2.307   6.698  0.00  0.00    +0.000 A 
ATOM     14 CL   UNL     1      47.905   1.659   5.362  0.00  0.00    +0.000 Cl
ATOM     15  C   UNL     1      46.484   1.504   7.703  0.00  0.00    +0.000 A 
ATOM     16 CL   UNL     1      46.653  -0.216   7.705  0.00  0.00    +0.000 Cl
ATOM     17  C   UNL     1      45.769   2.088   8.758  0.00  0.00    +0.000 A 
ENDBRANCH   8  10
ENDBRANCH   1   4
BRANCH   1  18
ATOM     18  C   UNL     1      45.032   7.798  12.907  0.00  0.00    +0.000 C 
BRANCH  18  19
ATOM     19  N   UNL     1      45.973   8.927  12.869  0.00  0.00    +0.000 N 
ATOM     20  H   UNL     1      45.574   9.801  12.525  0.00  0.00    +0.000 HD
BRANCH  19  24
ATOM     21  C   UNL     1      49.946   8.170  11.683  0.00  0.00    +0.000 A 
ATOM     22  C   UNL     1      49.411   9.449  11.511  0.00  0.00    +0.000 A 
ATOM     23  C   UNL     1      48.100   9.720  11.920  0.00  0.00    +0.000 A 
ATOM     24  C   UNL     1      47.308   8.740  12.532  0.00  0.00    +0.000 A 
ATOM     25  C   UNL     1      47.857   7.458  12.679  0.00  0.00    +0.000 A 
ATOM     26  C   UNL     1      49.160   7.169  12.256  0.00  0.00    +0.000 A 
BRANCH  21  28
ATOM     27  N   UNL     1      52.322   7.926  12.151  0.00  0.00    +0.000 N 
ATOM     28  C   UNL     1      51.317   7.831  11.228  0.00  0.00    +0.000 C 
ATOM     29  O   UNL     1      51.543   7.447  10.088  0.00  0.00    +0.000 OA
ATOM     30  H   UNL     1      53.229   7.585  11.857  0.00  0.00    +0.000 HD
ATOM     31  H   UNL     1      52.141   7.981  13.143  0.00  0.00    +0.000 HD
ENDBRANCH  21  28
ENDBRANCH  19  24
ENDBRANCH  18  19
ENDBRANCH   1  18
TORSDOF 6
ENDMDL
