MODEL 1
REMARK VINA RESULT:    -7.972      0.000      0.000
REMARK INTER + INTRA:         -12.493
REMARK INTER:                 -11.468
REMARK INTRA:                  -1.025
REMARK UNBOUND:                -1.025
REMARK  Name = 
REMARK  8 active torsions:
REMARK  status: ('A' for Active; 'I' for Inactive)
REMARK    1  A    between atoms: N_1  and  C_2
REMARK    2  A    between atoms: C_2  and  C_3
REMARK    3  A    between atoms: C_3  and  N_4
REMARK    4  A    between atoms: C_3  and  C_17
REMARK    5  A    between atoms: C_5  and  C_7
REMARK    6  A    between atoms: C_20  and  C_21
REMARK    7  A    between atoms: C_21  and  N_22
REMARK    8  A    between atoms: C_23  and  C_25
REMARK                            x       y       z     vdW  Elec       q    Type
REMARK                         _______ _______ _______ _____ _____    ______ ____
ROOT
ATOM      1  C   UNL     1      47.866   7.257  13.908  0.00  0.00    +0.000 C 
ENDROOT
BRANCH   1   2
ATOM      2  C   UNL     1      46.829   6.573  13.009  0.00  0.00    +0.000 A 
ATOM      3  C   UNL     1      46.602   5.194  13.117  0.00  0.00    +0.000 A 
ATOM      4  C   UNL     1      45.680   4.546  12.283  0.00  0.00    +0.000 A 
ATOM      5  C   UNL     1      44.961   5.258  11.313  0.00  0.00    +0.000 A 
ATOM      6  C   UNL     1      45.153   6.642  11.228  0.00  0.00    +0.000 A 
ATOM      7  C   UNL     1      46.077   7.291  12.061  0.00  0.00    +0.000 A 
BRANCH   5   8
ATOM      8  C   UNL     1      44.002   4.547  10.389  0.00  0.00    +0.000 C 
BRANCH   8   9
ATOM      9  N   UNL     1      44.662   3.565   9.567  0.00  0.00    +0.000 N 
ATOM     10  C   UNL     1      45.528   3.933   8.565  0.00  0.00    +0.000 C 
ATOM     11  O   UNL     1      45.760   5.112   8.293  0.00  0.00    +0.000 OA
ATOM     12  H   UNL     1      44.581   2.591   9.824  0.00  0.00    +0.000 HD
BRANCH  10  13
ATOM     13  C   UNL     1      46.158   2.839   7.855  0.00  0.00    +0.000 A 
ATOM     14  C   UNL     1      46.855   2.784   6.656  0.00  0.00    +0.000 A 
ATOM     15  C   UNL     1      47.268   1.446   6.439  0.00  0.00    +0.000 A 
ATOM     16  C   UNL     1      46.820   0.703   7.506  0.00  0.00    +0.000 A 
ATOM     17  N   UNL     1      46.154   1.548   8.354  0.00  0.00    +0.000 N 
ATOM     18  H   UNL     1      45.713   1.286   9.228  0.00  0.00    +0.000 HD
ENDBRANCH  10  13
ENDBRANCH   8   9
ENDBRANCH   5   8
ENDBRANCH   1   2
BRANCH   1  19
ATOM     19  N   UNL     1      47.887   6.588  15.202  0.00  0.00    +0.000 N 
ATOM     20  C   UNL     1      49.031   6.344  15.919  0.00  0.00    +0.000 C 
ATOM     21  O   UNL     1      50.151   6.600  15.492  0.00  0.00    +0.000 OA
ATOM     22  H   UNL     1      46.987   6.420  15.631  0.00  0.00    +0.000 HD
BRANCH  20  23
ATOM     23  C   UNL     1      48.838   5.692  17.220  0.00  0.00    +0.000 A 
ATOM     24  C   UNL     1      49.048   4.327  17.359  0.00  0.00    +0.000 A 
ATOM     25  S   UNL     1      48.653   3.734  18.912  0.00  0.00    +0.000 S 
ATOM     26  C   UNL     1      48.239   5.292  19.460  0.00  0.00    +0.000 A 
ATOM     27  N   UNL     1      47.772   5.494  20.722  0.00  0.00    +0.000 NA
ATOM     28  C   UNL     1      47.521   6.729  21.008  0.00  0.00    +0.000 A 
ATOM     29  N   UNL     1      47.723   7.785  20.153  0.00  0.00    +0.000 N 
ATOM     30  C   UNL     1      48.214   7.629  18.884  0.00  0.00    +0.000 A 
ATOM     31  O   UNL     1      48.420   8.599  18.159  0.00  0.00    +0.000 OA
ATOM     32  C   UNL     1      48.444   6.253  18.488  0.00  0.00    +0.000 A 
ATOM     33  H   UNL     1      47.534   8.731  20.448  0.00  0.00    +0.000 HD
ENDBRANCH  20  23
ENDBRANCH   1  19
BRANCH   1  34
ATOM     34  C   UNL     1      47.616   8.791  14.047  0.00  0.00    +0.000 C 
BRANCH  34  35
ATOM     35  N   UNL     1      47.452   9.256  15.430  0.00  0.00    +0.000 NA
ATOM     36  H   UNL     1      46.476   9.138  15.702  0.00  0.00    +0.000 HD
ATOM     37  H   UNL     1      47.646  10.257  15.478  0.00  0.00    +0.000 HD
ENDBRANCH  34  35
ENDBRANCH   1  34
TORSDOF 8
ENDMDL
MODEL 2
REMARK VINA RESULT:    -7.588      2.713      4.519
REMARK INTER + INTRA:         -11.941
REMARK INTER:                 -10.727
REMARK INTRA:                  -1.214
REMARK UNBOUND:                -1.025
REMARK  Name = 
REMARK  8 active torsions:
REMARK  status: ('A' for Active; 'I' for Inactive)
REMARK    1  A    between atoms: N_1  and  C_2
REMARK    2  A    between atoms: C_2  and  C_3
REMARK    3  A    between atoms: C_3  and  N_4
REMARK    4  A    between atoms: C_3  and  C_17
REMARK    5  A    between atoms: C_5  and  C_7
REMARK    6  A    between atoms: C_20  and  C_21
REMARK    7  A    between atoms: C_21  and  N_22
REMARK    8  A    between atoms: C_23  and  C_25
REMARK                            x       y       z     vdW  Elec       q    Type
REMARK                         _______ _______ _______ _____ _____    ______ ____
ROOT
ATOM      1  C   UNL     1      47.113   5.112  15.056  0.00  0.00    +0.000 C 
ENDROOT
BRANCH   1   2
ATOM      2  C   UNL     1      46.220   4.862  13.835  0.00  0.00    +0.000 A 
ATOM      3  C   UNL     1      46.130   3.578  13.278  0.00  0.00    +0.000 A 
ATOM      4  C   UNL     1      45.342   3.337  12.144  0.00  0.00    +0.000 A 
ATOM      5  C   UNL     1      44.624   4.374  11.530  0.00  0.00    +0.000 A 
ATOM      6  C   UNL     1      44.678   5.649  12.107  0.00  0.00    +0.000 A 
ATOM      7  C   UNL     1      45.468   5.891  13.241  0.00  0.00    +0.000 A 
BRANCH   5   8
ATOM      8  C   UNL     1      43.813   4.116  10.285  0.00  0.00    +0.000 C 
BRANCH   8   9
ATOM      9  N   UNL     1      44.551   3.370   9.296  0.00  0.00    +0.000 N 
ATOM     10  C   UNL     1      45.490   3.976   8.496  0.00  0.00    +0.000 C 
ATOM     11  O   UNL     1      45.728   5.183   8.554  0.00  0.00    +0.000 OA
ATOM     12  H   UNL     1      44.463   2.364   9.288  0.00  0.00    +0.000 HD
BRANCH  10  13
ATOM     13  C   UNL     1      46.191   3.094   7.584  0.00  0.00    +0.000 A 
ATOM     14  C   UNL     1      46.746   3.300   6.329  0.00  0.00    +0.000 A 
ATOM     15  C   UNL     1      47.326   2.085   5.891  0.00  0.00    +0.000 A 
ATOM     16  C   UNL     1      47.121   1.154   6.882  0.00  0.00    +0.000 A 
ATOM     17  N   UNL     1      46.439   1.769   7.898  0.00  0.00    +0.000 N 
ATOM     18  H   UNL     1      46.146   1.334   8.765  0.00  0.00    +0.000 HD
ENDBRANCH  10  13
ENDBRANCH   8   9
ENDBRANCH   5   8
ENDBRANCH   1   2
BRANCH   1  19
ATOM     19  N   UNL     1      48.286   5.869  14.638  0.00  0.00    +0.000 N 
ATOM     20  C   UNL     1      48.942   6.770  15.439  0.00  0.00    +0.000 C 
ATOM     21  O   UNL     1      48.546   7.074  16.559  0.00  0.00    +0.000 OA
ATOM     22  H   UNL     1      48.695   5.604  13.753  0.00  0.00    +0.000 HD
BRANCH  20  23
ATOM     23  C   UNL     1      50.127   7.402  14.847  0.00  0.00    +0.000 A 
ATOM     24  C   UNL     1      51.346   7.366  15.509  0.00  0.00    +0.000 A 
ATOM     25  S   UNL     1      52.571   8.260  14.723  0.00  0.00    +0.000 S 
ATOM     26  C   UNL     1      51.523   8.678  13.448  0.00  0.00    +0.000 A 
ATOM     27  N   UNL     1      51.936   9.483  12.432  0.00  0.00    +0.000 NA
ATOM     28  C   UNL     1      51.043   9.696  11.523  0.00  0.00    +0.000 A 
ATOM     29  N   UNL     1      49.781   9.154  11.525  0.00  0.00    +0.000 N 
ATOM     30  C   UNL     1      49.334   8.321  12.516  0.00  0.00    +0.000 A 
ATOM     31  O   UNL     1      48.213   7.821  12.466  0.00  0.00    +0.000 OA
ATOM     32  C   UNL     1      50.274   8.107  13.598  0.00  0.00    +0.000 A 
ATOM     33  H   UNL     1      49.140   9.338  10.768  0.00  0.00    +0.000 HD
ENDBRANCH  20  23
ENDBRANCH   1  19
BRANCH   1  34
ATOM     34  C   UNL     1      47.502   3.792  15.792  0.00  0.00    +0.000 C 
BRANCH  34  35
ATOM     35  N   UNL     1      46.747   3.540  17.025  0.00  0.00    +0.000 NA
ATOM     36  H   UNL     1      47.147   2.729  17.496  0.00  0.00    +0.000 HD
ATOM     37  H   UNL     1      45.785   3.292  16.790  0.00  0.00    +0.000 HD
ENDBRANCH  34  35
ENDBRANCH   1  34
TORSDOF 8
ENDMDL
MODEL 3
REMARK VINA RESULT:    -7.385      2.797      4.058
REMARK INTER + INTRA:         -11.648
REMARK INTER:                 -10.761
REMARK INTRA:                  -0.887
REMARK UNBOUND:                -1.025
REMARK  Name = 
REMARK  8 active torsions:
REMARK  status: ('A' for Active; 'I' for Inactive)
REMARK    1  A    between atoms: N_1  and  C_2
REMARK    2  A    between atoms: C_2  and  C_3
REMARK    3  A    between atoms: C_3  and  N_4
REMARK    4  A    between atoms: C_3  and  C_17
REMARK    5  A    between atoms: C_5  and  C_7
REMARK    6  A    between atoms: C_20  and  C_21
REMARK    7  A    between atoms: C_21  and  N_22
REMARK    8  A    between atoms: C_23  and  C_25
REMARK                            x       y       z     vdW  Elec       q    Type
REMARK                         _______ _______ _______ _____ _____    ______ ____
ROOT
ATOM      1  C   UNL     1      46.901   4.951  15.231  0.00  0.00    +0.000 C 
ENDROOT
BRANCH   1   2
ATOM      2  C   UNL     1      46.182   4.771  13.889  0.00  0.00    +0.000 A 
ATOM      3  C   UNL     1      45.621   5.877  13.235  0.00  0.00    +0.000 A 
ATOM      4  C   UNL     1      44.933   5.727  12.023  0.00  0.00    +0.000 A 
ATOM      5  C   UNL     1      44.781   4.464  11.432  0.00  0.00    +0.000 A 
ATOM      6  C   UNL     1      45.374   3.363  12.059  0.00  0.00    +0.000 A 
ATOM      7  C   UNL     1      46.061   3.512  13.273  0.00  0.00    +0.000 A 
BRANCH   5   8
ATOM      8  C   UNL     1      44.001   4.304  10.149  0.00  0.00    +0.000 C 
BRANCH   8   9
ATOM      9  N   UNL     1      44.721   3.536   9.164  0.00  0.00    +0.000 N 
ATOM     10  C   UNL     1      45.712   4.101   8.398  0.00  0.00    +0.000 C 
ATOM     11  O   UNL     1      46.015   5.292   8.484  0.00  0.00    +0.000 OA
ATOM     12  H   UNL     1      44.577   2.537   9.136  0.00  0.00    +0.000 HD
BRANCH  10  13
ATOM     13  C   UNL     1      46.384   3.198   7.487  0.00  0.00    +0.000 A 
ATOM     14  C   UNL     1      46.725   1.856   7.587  0.00  0.00    +0.000 A 
ATOM     15  C   UNL     1      47.366   1.467   6.385  0.00  0.00    +0.000 A 
ATOM     16  C   UNL     1      47.407   2.572   5.568  0.00  0.00    +0.000 A 
ATOM     17  N   UNL     1      46.813   3.609   6.237  0.00  0.00    +0.000 N 
ATOM     18  H   UNL     1      46.695   4.552   5.886  0.00  0.00    +0.000 HD
ENDBRANCH  10  13
ENDBRANCH   8   9
ENDBRANCH   5   8
ENDBRANCH   1   2
BRANCH   1  19
ATOM     19  N   UNL     1      48.048   5.829  15.039  0.00  0.00    +0.000 N 
ATOM     20  C   UNL     1      48.795   6.350  16.066  0.00  0.00    +0.000 C 
ATOM     21  O   UNL     1      48.508   6.183  17.247  0.00  0.00    +0.000 OA
ATOM     22  H   UNL     1      48.370   5.940  14.087  0.00  0.00    +0.000 HD
BRANCH  20  23
ATOM     23  C   UNL     1      49.936   7.181  15.664  0.00  0.00    +0.000 A 
ATOM     24  C   UNL     1      49.731   8.362  14.963  0.00  0.00    +0.000 A 
ATOM     25  S   UNL     1      51.181   9.123  14.479  0.00  0.00    +0.000 S 
ATOM     26  C   UNL     1      52.126   7.925  15.236  0.00  0.00    +0.000 A 
ATOM     27  N   UNL     1      53.485   7.953  15.170  0.00  0.00    +0.000 NA
ATOM     28  C   UNL     1      54.070   6.996  15.809  0.00  0.00    +0.000 A 
ATOM     29  N   UNL     1      53.420   6.027  16.533  0.00  0.00    +0.000 N 
ATOM     30  C   UNL     1      52.055   5.976  16.645  0.00  0.00    +0.000 A 
ATOM     31  O   UNL     1      51.507   5.119  17.333  0.00  0.00    +0.000 OA
ATOM     32  C   UNL     1      51.347   6.988  15.885  0.00  0.00    +0.000 A 
ATOM     33  H   UNL     1      53.939   5.322  17.035  0.00  0.00    +0.000 HD
ENDBRANCH  20  23
ENDBRANCH   1  19
BRANCH   1  34
ATOM     34  C   UNL     1      47.308   3.591  15.878  0.00  0.00    +0.000 C 
BRANCH  34  35
ATOM     35  N   UNL     1      46.770   3.376  17.227  0.00  0.00    +0.000 NA
ATOM     36  H   UNL     1      45.853   3.817  17.289  0.00  0.00    +0.000 HD
ATOM     37  H   UNL     1      47.364   3.850  17.909  0.00  0.00    +0.000 HD
ENDBRANCH  34  35
ENDBRANCH   1  34
TORSDOF 8
ENDMDL
MODEL 4
REMARK VINA RESULT:    -7.206      4.871      9.412
REMARK INTER + INTRA:         -11.391
REMARK INTER:                 -10.527
REMARK INTRA:                  -0.864
REMARK UNBOUND:                -1.025
REMARK  Name = 
REMARK  8 active torsions:
REMARK  status: ('A' for Active; 'I' for Inactive)
REMARK    1  A    between atoms: N_1  and  C_2
REMARK    2  A    between atoms: C_2  and  C_3
REMARK    3  A    between atoms: C_3  and  N_4
REMARK    4  A    between atoms: C_3  and  C_17
REMARK    5  A    between atoms: C_5  and  C_7
REMARK    6  A    between atoms: C_20  and  C_21
REMARK    7  A    between atoms: C_21  and  N_22
REMARK    8  A    between atoms: C_23  and  C_25
REMARK                            x       y       z     vdW  Elec       q    Type
REMARK                         _______ _______ _______ _____ _____    ______ ____
ROOT
ATOM      1  C   UNL     1      47.550   4.283  17.331  0.00  0.00    +0.000 C 
ENDROOT
BRANCH   1   2
ATOM      2  C   UNL     1      49.022   3.864  17.431  0.00  0.00    +0.000 A 
ATOM      3  C   UNL     1      49.384   2.519  17.275  0.00  0.00    +0.000 A 
ATOM      4  C   UNL     1      50.721   2.113  17.393  0.00  0.00    +0.000 A 
ATOM      5  C   UNL     1      51.734   3.040  17.675  0.00  0.00    +0.000 A 
ATOM      6  C   UNL     1      51.383   4.391  17.791  0.00  0.00    +0.000 A 
ATOM      7  C   UNL     1      50.046   4.797  17.675  0.00  0.00    +0.000 A 
BRANCH   5   8
ATOM      8  C   UNL     1      53.165   2.590  17.843  0.00  0.00    +0.000 C 
BRANCH   8   9
ATOM      9  N   UNL     1      53.259   1.284  18.445  0.00  0.00    +0.000 N 
ATOM     10  C   UNL     1      53.914   0.251  17.818  0.00  0.00    +0.000 C 
ATOM     11  O   UNL     1      54.423   0.372  16.703  0.00  0.00    +0.000 OA
ATOM     12  H   UNL     1      52.948   1.171  19.400  0.00  0.00    +0.000 HD
BRANCH  10  13
ATOM     13  C   UNL     1      53.975  -0.990  18.564  0.00  0.00    +0.000 A 
ATOM     14  C   UNL     1      55.040  -1.734  19.051  0.00  0.00    +0.000 A 
ATOM     15  C   UNL     1      54.523  -2.867  19.725  0.00  0.00    +0.000 A 
ATOM     16  C   UNL     1      53.153  -2.801  19.643  0.00  0.00    +0.000 A 
ATOM     17  N   UNL     1      52.830  -1.668  18.944  0.00  0.00    +0.000 N 
ATOM     18  H   UNL     1      51.892  -1.352  18.724  0.00  0.00    +0.000 HD
ENDBRANCH  10  13
ENDBRANCH   8   9
ENDBRANCH   5   8
ENDBRANCH   1   2
BRANCH   1  19
ATOM     19  N   UNL     1      47.357   5.047  16.106  0.00  0.00    +0.000 N 
ATOM     20  C   UNL     1      47.151   4.479  14.873  0.00  0.00    +0.000 C 
ATOM     21  O   UNL     1      47.193   3.268  14.685  0.00  0.00    +0.000 OA
ATOM     22  H   UNL     1      47.242   6.045  16.216  0.00  0.00    +0.000 HD
BRANCH  20  23
ATOM     23  C   UNL     1      46.938   5.420  13.768  0.00  0.00    +0.000 A 
ATOM     24  C   UNL     1      47.973   6.235  13.331  0.00  0.00    +0.000 A 
ATOM     25  S   UNL     1      47.498   7.346  12.123  0.00  0.00    +0.000 S 
ATOM     26  C   UNL     1      45.908   6.737  12.112  0.00  0.00    +0.000 A 
ATOM     27  N   UNL     1      44.951   7.279  11.312  0.00  0.00    +0.000 NA
ATOM     28  C   UNL     1      43.798   6.701  11.390  0.00  0.00    +0.000 A 
ATOM     29  N   UNL     1      43.524   5.609  12.176  0.00  0.00    +0.000 N 
ATOM     30  C   UNL     1      44.464   5.017  12.978  0.00  0.00    +0.000 A 
ATOM     31  O   UNL     1      44.196   4.017  13.638  0.00  0.00    +0.000 OA
ATOM     32  C   UNL     1      45.757   5.673  12.981  0.00  0.00    +0.000 A 
ATOM     33  H   UNL     1      42.608   5.186  12.169  0.00  0.00    +0.000 HD
ENDBRANCH  20  23
ENDBRANCH   1  19
BRANCH   1  34
ATOM     34  C   UNL     1      47.066   5.067  18.591  0.00  0.00    +0.000 C 
BRANCH  34  35
ATOM     35  N   UNL     1      47.154   6.527  18.469  0.00  0.00    +0.000 NA
ATOM     36  H   UNL     1      48.083   6.825  18.764  0.00  0.00    +0.000 HD
ATOM     37  H   UNL     1      46.492   6.962  19.112  0.00  0.00    +0.000 HD
ENDBRANCH  34  35
ENDBRANCH   1  34
TORSDOF 8
ENDMDL
MODEL 5
REMARK VINA RESULT:    -7.073      3.054      4.022
REMARK INTER + INTRA:         -11.200
REMARK INTER:                 -10.584
REMARK INTRA:                  -0.616
REMARK UNBOUND:                -1.025
REMARK  Name = 
REMARK  8 active torsions:
REMARK  status: ('A' for Active; 'I' for Inactive)
REMARK    1  A    between atoms: N_1  and  C_2
REMARK    2  A    between atoms: C_2  and  C_3
REMARK    3  A    between atoms: C_3  and  N_4
REMARK    4  A    between atoms: C_3  and  C_17
REMARK    5  A    between atoms: C_5  and  C_7
REMARK    6  A    between atoms: C_20  and  C_21
REMARK    7  A    between atoms: C_21  and  N_22
REMARK    8  A    between atoms: C_23  and  C_25
REMARK                            x       y       z     vdW  Elec       q    Type
REMARK                         _______ _______ _______ _____ _____    ______ ____
ROOT
ATOM      1  C   UNL     1      46.730   4.835  14.988  0.00  0.00    +0.000 C 
ENDROOT
BRANCH   1   2
ATOM      2  C   UNL     1      45.932   4.704  13.685  0.00  0.00    +0.000 A 
ATOM      3  C   UNL     1      45.933   3.495  12.975  0.00  0.00    +0.000 A 
ATOM      4  C   UNL     1      45.234   3.367  11.767  0.00  0.00    +0.000 A 
ATOM      5  C   UNL     1      44.518   4.446  11.229  0.00  0.00    +0.000 A 
ATOM      6  C   UNL     1      44.480   5.643  11.954  0.00  0.00    +0.000 A 
ATOM      7  C   UNL     1      45.181   5.772  13.163  0.00  0.00    +0.000 A 
BRANCH   5   8
ATOM      8  C   UNL     1      43.804   4.313   9.906  0.00  0.00    +0.000 C 
BRANCH   8   9
ATOM      9  N   UNL     1      44.574   3.567   8.942  0.00  0.00    +0.000 N 
ATOM     10  C   UNL     1      45.672   4.114   8.324  0.00  0.00    +0.000 C 
ATOM     11  O   UNL     1      46.038   5.272   8.531  0.00  0.00    +0.000 OA
ATOM     12  H   UNL     1      44.371   2.585   8.823  0.00  0.00    +0.000 HD
BRANCH  10  13
ATOM     13  C   UNL     1      46.379   3.231   7.418  0.00  0.00    +0.000 A 
ATOM     14  C   UNL     1      46.769   1.904   7.524  0.00  0.00    +0.000 A 
ATOM     15  C   UNL     1      47.425   1.533   6.325  0.00  0.00    +0.000 A 
ATOM     16  C   UNL     1      47.426   2.635   5.503  0.00  0.00    +0.000 A 
ATOM     17  N   UNL     1      46.794   3.653   6.167  0.00  0.00    +0.000 N 
ATOM     18  H   UNL     1      46.642   4.589   5.811  0.00  0.00    +0.000 HD
ENDBRANCH  10  13
ENDBRANCH   8   9
ENDBRANCH   5   8
ENDBRANCH   1   2
BRANCH   1  19
ATOM     19  N   UNL     1      47.539   6.045  14.929  0.00  0.00    +0.000 N 
ATOM     20  C   UNL     1      48.350   6.373  13.871  0.00  0.00    +0.000 C 
ATOM     21  O   UNL     1      48.524   5.630  12.911  0.00  0.00    +0.000 OA
ATOM     22  H   UNL     1      47.379   6.724  15.659  0.00  0.00    +0.000 HD
BRANCH  20  23
ATOM     23  C   UNL     1      49.055   7.656  13.985  0.00  0.00    +0.000 A 
ATOM     24  C   UNL     1      48.631   8.756  13.253  0.00  0.00    +0.000 A 
ATOM     25  S   UNL     1      49.649  10.117  13.425  0.00  0.00    +0.000 S 
ATOM     26  C   UNL     1      50.657   9.293  14.523  0.00  0.00    +0.000 A 
ATOM     27  N   UNL     1      51.767   9.884  15.042  0.00  0.00    +0.000 NA
ATOM     28  C   UNL     1      52.422   9.150  15.878  0.00  0.00    +0.000 A 
ATOM     29  N   UNL     1      52.051   7.885  16.265  0.00  0.00    +0.000 N 
ATOM     30  C   UNL     1      50.928   7.263  15.786  0.00  0.00    +0.000 A 
ATOM     31  O   UNL     1      50.603   6.147  16.183  0.00  0.00    +0.000 OA
ATOM     32  C   UNL     1      50.196   8.017  14.788  0.00  0.00    +0.000 A 
ATOM     33  H   UNL     1      52.592   7.374  16.946  0.00  0.00    +0.000 HD
ENDBRANCH  20  23
ENDBRANCH   1  19
BRANCH   1  34
ATOM     34  C   UNL     1      47.592   3.569  15.290  0.00  0.00    +0.000 C 
BRANCH  34  35
ATOM     35  N   UNL     1      48.487   3.706  16.444  0.00  0.00    +0.000 NA
ATOM     36  H   UNL     1      49.303   3.111  16.300  0.00  0.00    +0.000 HD
ATOM     37  H   UNL     1      48.019   3.357  17.281  0.00  0.00    +0.000 HD
ENDBRANCH  34  35
ENDBRANCH   1  34
TORSDOF 8
ENDMDL
MODEL 6
REMARK VINA RESULT:    -6.983      4.851      9.280
REMARK INTER + INTRA:         -11.070
REMARK INTER:                  -9.944
REMARK INTRA:                  -1.126
REMARK UNBOUND:                -1.025
REMARK  Name = 
REMARK  8 active torsions:
REMARK  status: ('A' for Active; 'I' for Inactive)
REMARK    1  A    between atoms: N_1  and  C_2
REMARK    2  A    between atoms: C_2  and  C_3
REMARK    3  A    between atoms: C_3  and  N_4
REMARK    4  A    between atoms: C_3  and  C_17
REMARK    5  A    between atoms: C_5  and  C_7
REMARK    6  A    between atoms: C_20  and  C_21
REMARK    7  A    between atoms: C_21  and  N_22
REMARK    8  A    between atoms: C_23  and  C_25
REMARK                            x       y       z     vdW  Elec       q    Type
REMARK                         _______ _______ _______ _____ _____    ______ ____
ROOT
ATOM      1  C   UNL     1      47.594   4.340  17.334  0.00  0.00    +0.000 C 
ENDROOT
BRANCH   1   2
ATOM      2  C   UNL     1      49.023   3.804  17.472  0.00  0.00    +0.000 A 
ATOM      3  C   UNL     1      50.060   4.656  17.877  0.00  0.00    +0.000 A 
ATOM      4  C   UNL     1      51.379   4.191  17.979  0.00  0.00    +0.000 A 
ATOM      5  C   UNL     1      51.700   2.861  17.674  0.00  0.00    +0.000 A 
ATOM      6  C   UNL     1      50.663   1.996  17.308  0.00  0.00    +0.000 A 
ATOM      7  C   UNL     1      49.343   2.461  17.204  0.00  0.00    +0.000 A 
BRANCH   5   8
ATOM      8  C   UNL     1      53.129   2.379  17.744  0.00  0.00    +0.000 C 
BRANCH   8   9
ATOM      9  N   UNL     1      53.252   1.139  18.469  0.00  0.00    +0.000 N 
ATOM     10  C   UNL     1      53.806   0.023  17.890  0.00  0.00    +0.000 C 
ATOM     11  O   UNL     1      54.193   0.008  16.721  0.00  0.00    +0.000 OA
ATOM     12  H   UNL     1      53.045   1.139  19.458  0.00  0.00    +0.000 HD
BRANCH  10  13
ATOM     13  C   UNL     1      53.913  -1.136  18.754  0.00  0.00    +0.000 A 
ATOM     14  C   UNL     1      54.995  -1.724  19.395  0.00  0.00    +0.000 A 
ATOM     15  C   UNL     1      54.526  -2.840  20.130  0.00  0.00    +0.000 A 
ATOM     16  C   UNL     1      53.168  -2.919  19.930  0.00  0.00    +0.000 A 
ATOM     17  N   UNL     1      52.806  -1.890  19.102  0.00  0.00    +0.000 N 
ATOM     18  H   UNL     1      51.867  -1.690  18.777  0.00  0.00    +0.000 HD
ENDBRANCH  10  13
ENDBRANCH   8   9
ENDBRANCH   5   8
ENDBRANCH   1   2
BRANCH   1  19
ATOM     19  N   UNL     1      47.488   5.095  16.092  0.00  0.00    +0.000 N 
ATOM     20  C   UNL     1      47.258   4.524  14.866  0.00  0.00    +0.000 C 
ATOM     21  O   UNL     1      47.200   3.310  14.698  0.00  0.00    +0.000 OA
ATOM     22  H   UNL     1      47.457   6.101  16.184  0.00  0.00    +0.000 HD
BRANCH  20  23
ATOM     23  C   UNL     1      47.145   5.459  13.740  0.00  0.00    +0.000 A 
ATOM     24  C   UNL     1      46.043   5.413  12.898  0.00  0.00    +0.000 A 
ATOM     25  S   UNL     1      46.152   6.494  11.579  0.00  0.00    +0.000 S 
ATOM     26  C   UNL     1      47.651   7.092  12.123  0.00  0.00    +0.000 A 
ATOM     27  N   UNL     1      48.332   8.035  11.418  0.00  0.00    +0.000 NA
ATOM     28  C   UNL     1      49.441   8.412  11.961  0.00  0.00    +0.000 A 
ATOM     29  N   UNL     1      49.919   7.949  13.163  0.00  0.00    +0.000 N 
ATOM     30  C   UNL     1      49.254   7.017  13.916  0.00  0.00    +0.000 A 
ATOM     31  O   UNL     1      49.690   6.655  15.006  0.00  0.00    +0.000 OA
ATOM     32  C   UNL     1      48.037   6.509  13.315  0.00  0.00    +0.000 A 
ATOM     33  H   UNL     1      50.781   8.306  13.547  0.00  0.00    +0.000 HD
ENDBRANCH  20  23
ENDBRANCH   1  19
BRANCH   1  34
ATOM     34  C   UNL     1      47.150   5.183  18.570  0.00  0.00    +0.000 C 
BRANCH  34  35
ATOM     35  N   UNL     1      47.246   6.635  18.380  0.00  0.00    +0.000 NA
ATOM     36  H   UNL     1      48.100   6.843  17.864  0.00  0.00    +0.000 HD
ATOM     37  H   UNL     1      47.338   7.092  19.288  0.00  0.00    +0.000 HD
ENDBRANCH  34  35
ENDBRANCH   1  34
TORSDOF 8
ENDMDL
MODEL 7
REMARK VINA RESULT:    -6.674      1.609      2.203
REMARK INTER + INTRA:         -10.625
REMARK INTER:                  -9.852
REMARK INTRA:                  -0.773
REMARK UNBOUND:                -1.025
REMARK  Name = 
REMARK  8 active torsions:
REMARK  status: ('A' for Active; 'I' for Inactive)
REMARK    1  A    between atoms: N_1  and  C_2
REMARK    2  A    between atoms: C_2  and  C_3
REMARK    3  A    between atoms: C_3  and  N_4
REMARK    4  A    between atoms: C_3  and  C_17
REMARK    5  A    between atoms: C_5  and  C_7
REMARK    6  A    between atoms: C_20  and  C_21
REMARK    7  A    between atoms: C_21  and  N_22
REMARK    8  A    between atoms: C_23  and  C_25
REMARK                            x       y       z     vdW  Elec       q    Type
REMARK                         _______ _______ _______ _____ _____    ______ ____
ROOT
ATOM      1  C   UNL     1      47.938   8.424  13.438  0.00  0.00    +0.000 C 
ENDROOT
BRANCH   1   2
ATOM      2  C   UNL     1      47.001   7.416  12.762  0.00  0.00    +0.000 A 
ATOM      3  C   UNL     1      45.979   6.799  13.498  0.00  0.00    +0.000 A 
ATOM      4  C   UNL     1      45.133   5.852  12.904  0.00  0.00    +0.000 A 
ATOM      5  C   UNL     1      45.286   5.492  11.558  0.00  0.00    +0.000 A 
ATOM      6  C   UNL     1      46.278   6.135  10.808  0.00  0.00    +0.000 A 
ATOM      7  C   UNL     1      47.127   7.081  11.402  0.00  0.00    +0.000 A 
BRANCH   5   8
ATOM      8  C   UNL     1      44.399   4.440  10.937  0.00  0.00    +0.000 C 
BRANCH   8   9
ATOM      9  N   UNL     1      45.149   3.463  10.190  0.00  0.00    +0.000 N 
ATOM     10  C   UNL     1      45.097   3.415   8.817  0.00  0.00    +0.000 C 
ATOM     11  O   UNL     1      44.387   4.174   8.156  0.00  0.00    +0.000 OA
ATOM     12  H   UNL     1      45.821   2.893  10.684  0.00  0.00    +0.000 HD
BRANCH  10  13
ATOM     13  C   UNL     1      45.943   2.415   8.198  0.00  0.00    +0.000 A 
ATOM     14  C   UNL     1      45.908   1.028   8.209  0.00  0.00    +0.000 A 
ATOM     15  C   UNL     1      46.979   0.547   7.417  0.00  0.00    +0.000 A 
ATOM     16  C   UNL     1      47.652   1.644   6.931  0.00  0.00    +0.000 A 
ATOM     17  N   UNL     1      47.022   2.764   7.405  0.00  0.00    +0.000 N 
ATOM     18  H   UNL     1      47.291   3.722   7.214  0.00  0.00    +0.000 HD
ENDBRANCH  10  13
ENDBRANCH   8   9
ENDBRANCH   5   8
ENDBRANCH   1   2
BRANCH   1  19
ATOM     19  N   UNL     1      47.992   8.137  14.866  0.00  0.00    +0.000 N 
ATOM     20  C   UNL     1      48.940   7.336  15.451  0.00  0.00    +0.000 C 
ATOM     21  O   UNL     1      49.784   6.725  14.805  0.00  0.00    +0.000 OA
ATOM     22  H   UNL     1      47.365   8.671  15.451  0.00  0.00    +0.000 HD
BRANCH  20  23
ATOM     23  C   UNL     1      48.847   7.203  16.910  0.00  0.00    +0.000 A 
ATOM     24  C   UNL     1      48.891   8.328  17.721  0.00  0.00    +0.000 A 
ATOM     25  S   UNL     1      48.893   7.962  19.389  0.00  0.00    +0.000 S 
ATOM     26  C   UNL     1      48.783   6.291  19.078  0.00  0.00    +0.000 A 
ATOM     27  N   UNL     1      48.780   5.384  20.092  0.00  0.00    +0.000 NA
ATOM     28  C   UNL     1      48.667   4.155  19.709  0.00  0.00    +0.000 A 
ATOM     29  N   UNL     1      48.529   3.754  18.403  0.00  0.00    +0.000 N 
ATOM     30  C   UNL     1      48.504   4.635  17.354  0.00  0.00    +0.000 A 
ATOM     31  O   UNL     1      48.339   4.245  16.201  0.00  0.00    +0.000 OA
ATOM     32  C   UNL     1      48.699   6.023  17.725  0.00  0.00    +0.000 A 
ATOM     33  H   UNL     1      48.417   2.778  18.172  0.00  0.00    +0.000 HD
ENDBRANCH  20  23
ENDBRANCH   1  19
BRANCH   1  34
ATOM     34  C   UNL     1      47.529   9.903  13.154  0.00  0.00    +0.000 C 
BRANCH  34  35
ATOM     35  N   UNL     1      46.210  10.059  12.529  0.00  0.00    +0.000 NA
ATOM     36  H   UNL     1      45.939  11.041  12.575  0.00  0.00    +0.000 HD
ATOM     37  H   UNL     1      45.515   9.542  13.070  0.00  0.00    +0.000 HD
ENDBRANCH  34  35
ENDBRANCH   1  34
TORSDOF 8
ENDMDL
MODEL 8
REMARK VINA RESULT:    -6.660      4.081      6.095
REMARK INTER + INTRA:         -10.605
REMARK INTER:                  -9.463
REMARK INTRA:                  -1.142
REMARK UNBOUND:                -1.025
REMARK  Name = 
REMARK  8 active torsions:
REMARK  status: ('A' for Active; 'I' for Inactive)
REMARK    1  A    between atoms: N_1  and  C_2
REMARK    2  A    between atoms: C_2  and  C_3
REMARK    3  A    between atoms: C_3  and  N_4
REMARK    4  A    between atoms: C_3  and  C_17
REMARK    5  A    between atoms: C_5  and  C_7
REMARK    6  A    between atoms: C_20  and  C_21
REMARK    7  A    between atoms: C_21  and  N_22
REMARK    8  A    between atoms: C_23  and  C_25
REMARK                            x       y       z     vdW  Elec       q    Type
REMARK                         _______ _______ _______ _____ _____    ______ ____
ROOT
ATOM      1  C   UNL     1      47.598   8.646  13.364  0.00  0.00    +0.000 C 
ENDROOT
BRANCH   1   2
ATOM      2  C   UNL     1      46.825   7.437  12.825  0.00  0.00    +0.000 A 
ATOM      3  C   UNL     1      45.830   7.613  11.852  0.00  0.00    +0.000 A 
ATOM      4  C   UNL     1      45.091   6.524  11.370  0.00  0.00    +0.000 A 
ATOM      5  C   UNL     1      45.322   5.227  11.850  0.00  0.00    +0.000 A 
ATOM      6  C   UNL     1      46.342   5.039  12.790  0.00  0.00    +0.000 A 
ATOM      7  C   UNL     1      47.080   6.130  13.274  0.00  0.00    +0.000 A 
BRANCH   5   8
ATOM      8  C   UNL     1      44.493   4.065  11.357  0.00  0.00    +0.000 C 
BRANCH   8   9
ATOM      9  N   UNL     1      45.193   3.269  10.380  0.00  0.00    +0.000 N 
ATOM     10  C   UNL     1      45.029   3.481   9.033  0.00  0.00    +0.000 C 
ATOM     11  O   UNL     1      44.257   4.331   8.587  0.00  0.00    +0.000 OA
ATOM     12  H   UNL     1      45.911   2.636  10.702  0.00  0.00    +0.000 HD
BRANCH  10  13
ATOM     13  C   UNL     1      45.834   2.642   8.169  0.00  0.00    +0.000 A 
ATOM     14  C   UNL     1      46.552   2.912   7.012  0.00  0.00    +0.000 A 
ATOM     15  C   UNL     1      47.173   1.714   6.581  0.00  0.00    +0.000 A 
ATOM     16  C   UNL     1      46.828   0.730   7.478  0.00  0.00    +0.000 A 
ATOM     17  N   UNL     1      46.023   1.297   8.432  0.00  0.00    +0.000 N 
ATOM     18  H   UNL     1      45.614   0.817   9.224  0.00  0.00    +0.000 HD
ENDBRANCH  10  13
ENDBRANCH   8   9
ENDBRANCH   5   8
ENDBRANCH   1   2
BRANCH   1  19
ATOM     19  N   UNL     1      48.672   8.974  12.435  0.00  0.00    +0.000 N 
ATOM     20  C   UNL     1      49.157  10.243  12.243  0.00  0.00    +0.000 C 
ATOM     21  O   UNL     1      48.671  11.230  12.784  0.00  0.00    +0.000 OA
ATOM     22  H   UNL     1      49.155   8.190  12.018  0.00  0.00    +0.000 HD
BRANCH  20  23
ATOM     23  C   UNL     1      50.269  10.361  11.291  0.00  0.00    +0.000 A 
ATOM     24  C   UNL     1      50.261  11.356  10.324  0.00  0.00    +0.000 A 
ATOM     25  S   UNL     1      51.574  11.254   9.236  0.00  0.00    +0.000 S 
ATOM     26  C   UNL     1      52.220   9.909  10.056  0.00  0.00    +0.000 A 
ATOM     27  N   UNL     1      53.347   9.288   9.614  0.00  0.00    +0.000 NA
ATOM     28  C   UNL     1      53.734   8.298  10.348  0.00  0.00    +0.000 A 
ATOM     29  N   UNL     1      53.110   7.889  11.501  0.00  0.00    +0.000 N 
ATOM     30  C   UNL     1      51.987   8.501  11.994  0.00  0.00    +0.000 A 
ATOM     31  O   UNL     1      51.477   8.135  13.050  0.00  0.00    +0.000 OA
ATOM     32  C   UNL     1      51.470   9.574  11.168  0.00  0.00    +0.000 A 
ATOM     33  H   UNL     1      53.480   7.125  12.045  0.00  0.00    +0.000 HD
ENDBRANCH  20  23
ENDBRANCH   1  19
BRANCH   1  34
ATOM     34  C   UNL     1      48.129   8.417  14.813  0.00  0.00    +0.000 C 
BRANCH  34  35
ATOM     35  N   UNL     1      47.492   9.259  15.833  0.00  0.00    +0.000 NA
ATOM     36  H   UNL     1      47.927   9.069  16.735  0.00  0.00    +0.000 HD
ATOM     37  H   UNL     1      46.510   8.996  15.924  0.00  0.00    +0.000 HD
ENDBRANCH  34  35
ENDBRANCH   1  34
TORSDOF 8
ENDMDL
MODEL 9
REMARK VINA RESULT:    -6.434      4.458      7.736
REMARK INTER + INTRA:         -10.280
REMARK INTER:                  -9.402
REMARK INTRA:                  -0.879
REMARK UNBOUND:                -1.025
REMARK  Name = 
REMARK  8 active torsions:
REMARK  status: ('A' for Active; 'I' for Inactive)
REMARK    1  A    between atoms: N_1  and  C_2
REMARK    2  A    between atoms: C_2  and  C_3
REMARK    3  A    between atoms: C_3  and  N_4
REMARK    4  A    between atoms: C_3  and  C_17
REMARK    5  A    between atoms: C_5  and  C_7
REMARK    6  A    between atoms: C_20  and  C_21
REMARK    7  A    between atoms: C_21  and  N_22
REMARK    8  A    between atoms: C_23  and  C_25
REMARK                            x       y       z     vdW  Elec       q    Type
REMARK                         _______ _______ _______ _____ _____    ______ ____
ROOT
ATOM      1  C   UNL     1      45.675   8.132  12.931  0.00  0.00    +0.000 C 
ENDROOT
BRANCH   1   2
ATOM      2  C   UNL     1      47.199   8.165  12.770  0.00  0.00    +0.000 A 
ATOM      3  C   UNL     1      48.005   8.697  13.787  0.00  0.00    +0.000 A 
ATOM      4  C   UNL     1      49.398   8.763  13.644  0.00  0.00    +0.000 A 
ATOM      5  C   UNL     1      50.026   8.303  12.479  0.00  0.00    +0.000 A 
ATOM      6  C   UNL     1      49.231   7.733  11.477  0.00  0.00    +0.000 A 
ATOM      7  C   UNL     1      47.836   7.669  11.619  0.00  0.00    +0.000 A 
BRANCH   5   8
ATOM      8  C   UNL     1      51.522   8.417  12.314  0.00  0.00    +0.000 C 
BRANCH   8   9
ATOM      9  N   UNL     1      52.034   7.505  11.323  0.00  0.00    +0.000 N 
ATOM     10  C   UNL     1      52.427   7.944  10.081  0.00  0.00    +0.000 C 
ATOM     11  O   UNL     1      52.332   9.122   9.736  0.00  0.00    +0.000 OA
ATOM     12  H   UNL     1      52.226   6.553  11.600  0.00  0.00    +0.000 HD
BRANCH  10  13
ATOM     13  C   UNL     1      52.970   6.924   9.205  0.00  0.00    +0.000 A 
ATOM     14  C   UNL     1      52.767   6.646   7.861  0.00  0.00    +0.000 A 
ATOM     15  C   UNL     1      53.570   5.533   7.509  0.00  0.00    +0.000 A 
ATOM     16  C   UNL     1      54.252   5.148   8.639  0.00  0.00    +0.000 A 
ATOM     17  N   UNL     1      53.886   5.991   9.656  0.00  0.00    +0.000 N 
ATOM     18  H   UNL     1      54.226   5.953  10.609  0.00  0.00    +0.000 HD
ENDBRANCH  10  13
ENDBRANCH   8   9
ENDBRANCH   5   8
ENDBRANCH   1   2
BRANCH   1  19
ATOM     19  N   UNL     1      45.160   6.915  12.319  0.00  0.00    +0.000 N 
ATOM     20  C   UNL     1      45.321   5.661  12.854  0.00  0.00    +0.000 C 
ATOM     21  O   UNL     1      45.987   5.449  13.862  0.00  0.00    +0.000 OA
ATOM     22  H   UNL     1      44.544   7.040  11.528  0.00  0.00    +0.000 HD
BRANCH  20  23
ATOM     23  C   UNL     1      44.693   4.566  12.105  0.00  0.00    +0.000 A 
ATOM     24  C   UNL     1      43.811   3.700  12.737  0.00  0.00    +0.000 A 
ATOM     25  S   UNL     1      43.282   2.421  11.736  0.00  0.00    +0.000 S 
ATOM     26  C   UNL     1      44.176   3.014  10.414  0.00  0.00    +0.000 A 
ATOM     27  N   UNL     1      44.197   2.355   9.224  0.00  0.00    +0.000 NA
ATOM     28  C   UNL     1      44.896   2.933   8.305  0.00  0.00    +0.000 A 
ATOM     29  N   UNL     1      45.556   4.127   8.460  0.00  0.00    +0.000 N 
ATOM     30  C   UNL     1      45.541   4.835   9.633  0.00  0.00    +0.000 A 
ATOM     31  O   UNL     1      46.109   5.921   9.725  0.00  0.00    +0.000 OA
ATOM     32  C   UNL     1      44.828   4.193  10.719  0.00  0.00    +0.000 A 
ATOM     33  H   UNL     1      46.062   4.540   7.692  0.00  0.00    +0.000 HD
ENDBRANCH  20  23
ENDBRANCH   1  19
BRANCH   1  34
ATOM     34  C   UNL     1      44.986   9.411  12.359  0.00  0.00    +0.000 C 
BRANCH  34  35
ATOM     35  N   UNL     1      43.918   9.142  11.389  0.00  0.00    +0.000 NA
ATOM     36  H   UNL     1      44.160   8.306  10.858  0.00  0.00    +0.000 HD
ATOM     37  H   UNL     1      43.869   9.908  10.717  0.00  0.00    +0.000 HD
ENDBRANCH  34  35
ENDBRANCH   1  34
TORSDOF 8
ENDMDL
