MODEL 1
REMARK VINA RESULT:    -8.338      0.000      0.000
REMARK INTER + INTRA:         -12.134
REMARK INTER:                 -11.750
REMARK INTRA:                  -0.384
REMARK UNBOUND:                -0.384
REMARK  Name = 
REMARK  7 active torsions:
REMARK  status: ('A' for Active; 'I' for Inactive)
REMARK    1  A    between atoms: C_2  and  C_3
REMARK    2  A    between atoms: C_3  and  N_4
REMARK    3  A    between atoms: C_3  and  C_17
REMARK    4  A    between atoms: C_5  and  C_7
REMARK    5  A    between atoms: C_20  and  O_21
REMARK    6  A    between atoms: O_21  and  C_22
REMARK    7  A    between atoms: C_22  and  C_23
REMARK                            x       y       z     vdW  Elec       q    Type
REMARK                         _______ _______ _______ _____ _____    ______ ____
ROOT
ATOM      1  C   UNL     1      46.707   7.929  12.953  0.00  0.00    +0.000 C 
ENDROOT
BRANCH   1   2
ATOM      2  C   UNL     1      46.073   6.752  12.226  0.00  0.00    +0.000 A 
ATOM      3  C   UNL     1      46.217   6.615  10.835  0.00  0.00    +0.000 A 
ATOM      4  C   UNL     1      45.680   5.505  10.173  0.00  0.00    +0.000 A 
ATOM      5  C   UNL     1      45.002   4.519  10.889  0.00  0.00    +0.000 A 
ATOM      6  C   UNL     1      44.782   4.689  12.254  0.00  0.00    +0.000 A 
ATOM      7  C   UNL     1      45.310   5.795  12.915  0.00  0.00    +0.000 A 
BRANCH   5   8
ATOM      8  O   UNL     1      44.591   3.428  10.170  0.00  0.00    +0.000 OA
BRANCH   8   9
ATOM      9  C   UNL     1      44.490   3.649   8.757  0.00  0.00    +0.000 C 
BRANCH   9  10
ATOM     10  C   UNL     1      45.540   2.843   8.031  0.00  0.00    +0.000 A 
ATOM     11  C   UNL     1      46.317   3.445   7.042  0.00  0.00    +0.000 A 
ATOM     12  C   UNL     1      47.299   2.692   6.410  0.00  0.00    +0.000 A 
ATOM     13  C   UNL     1      47.485   1.368   6.785  0.00  0.00    +0.000 A 
ATOM     14  C   UNL     1      46.681   0.850   7.787  0.00  0.00    +0.000 A 
ATOM     15  N   UNL     1      45.722   1.556   8.421  0.00  0.00    +0.000 NA
ENDBRANCH   9  10
ENDBRANCH   8   9
ENDBRANCH   5   8
ENDBRANCH   1   2
BRANCH   1  16
ATOM     16  N   UNL     1      47.218   7.494  14.239  0.00  0.00    +0.000 N 
ATOM     17  C   UNL     1      48.295   6.659  14.341  0.00  0.00    +0.000 C 
ATOM     18  O   UNL     1      48.845   6.207  13.342  0.00  0.00    +0.000 OA
ATOM     19  H   UNL     1      46.841   7.950  15.066  0.00  0.00    +0.000 HD
BRANCH  17  20
ATOM     20  C   UNL     1      48.748   6.293  15.692  0.00  0.00    +0.000 A 
ATOM     21  C   UNL     1      49.661   7.116  16.343  0.00  0.00    +0.000 A 
ATOM     22  S   UNL     1      50.147   6.539  17.869  0.00  0.00    +0.000 S 
ATOM     23  C   UNL     1      49.154   5.166  17.725  0.00  0.00    +0.000 A 
ATOM     24  N   UNL     1      49.127   4.224  18.706  0.00  0.00    +0.000 NA
ATOM     25  C   UNL     1      48.336   3.231  18.471  0.00  0.00    +0.000 A 
ATOM     26  N   UNL     1      47.558   3.103  17.350  0.00  0.00    +0.000 N 
ATOM     27  C   UNL     1      47.529   4.045  16.348  0.00  0.00    +0.000 A 
ATOM     28  O   UNL     1      46.775   3.933  15.387  0.00  0.00    +0.000 OA
ATOM     29  C   UNL     1      48.436   5.163  16.541  0.00  0.00    +0.000 A 
ATOM     30  H   UNL     1      46.942   2.311  17.240  0.00  0.00    +0.000 HD
ENDBRANCH  17  20
ENDBRANCH   1  16
BRANCH   1  32
ATOM     31  N   UNL     1      48.635   9.097  11.559  0.00  0.00    +0.000 NA
ATOM     32  C   UNL     1      47.784   8.573  12.154  0.00  0.00    +0.000 C 
ENDBRANCH   1  32
TORSDOF 7
ENDMDL
MODEL 2
REMARK VINA RESULT:    -8.271      2.587      3.827
REMARK INTER + INTRA:         -12.039
REMARK INTER:                 -10.884
REMARK INTRA:                  -1.155
REMARK UNBOUND:                -0.384
REMARK  Name = 
REMARK  7 active torsions:
REMARK  status: ('A' for Active; 'I' for Inactive)
REMARK    1  A    between atoms: C_2  and  C_3
REMARK    2  A    between atoms: C_3  and  N_4
REMARK    3  A    between atoms: C_3  and  C_17
REMARK    4  A    between atoms: C_5  and  C_7
REMARK    5  A    between atoms: C_20  and  O_21
REMARK    6  A    between atoms: O_21  and  C_22
REMARK    7  A    between atoms: C_22  and  C_23
REMARK                            x       y       z     vdW  Elec       q    Type
REMARK                         _______ _______ _______ _____ _____    ______ ____
ROOT
ATOM      1  C   UNL     1      47.631   4.893  14.957  0.00  0.00    +0.000 C 
ENDROOT
BRANCH   1   2
ATOM      2  C   UNL     1      46.757   4.705  13.725  0.00  0.00    +0.000 A 
ATOM      3  C   UNL     1      46.469   5.794  12.885  0.00  0.00    +0.000 A 
ATOM      4  C   UNL     1      45.711   5.612  11.724  0.00  0.00    +0.000 A 
ATOM      5  C   UNL     1      45.236   4.345  11.384  0.00  0.00    +0.000 A 
ATOM      6  C   UNL     1      45.445   3.277  12.254  0.00  0.00    +0.000 A 
ATOM      7  C   UNL     1      46.196   3.456  13.414  0.00  0.00    +0.000 A 
BRANCH   5   8
ATOM      8  O   UNL     1      44.581   4.248  10.186  0.00  0.00    +0.000 OA
BRANCH   8   9
ATOM      9  C   UNL     1      44.391   2.907   9.716  0.00  0.00    +0.000 C 
BRANCH   9  10
ATOM     10  C   UNL     1      45.367   2.604   8.607  0.00  0.00    +0.000 A 
ATOM     11  C   UNL     1      45.713   3.599   7.694  0.00  0.00    +0.000 A 
ATOM     12  C   UNL     1      46.638   3.306   6.699  0.00  0.00    +0.000 A 
ATOM     13  C   UNL     1      47.199   2.037   6.647  0.00  0.00    +0.000 A 
ATOM     14  C   UNL     1      46.812   1.109   7.600  0.00  0.00    +0.000 A 
ATOM     15  N   UNL     1      45.919   1.364   8.580  0.00  0.00    +0.000 NA
ENDBRANCH   9  10
ENDBRANCH   8   9
ENDBRANCH   5   8
ENDBRANCH   1   2
BRANCH   1  16
ATOM     16  N   UNL     1      47.691   6.301  15.305  0.00  0.00    +0.000 N 
ATOM     17  C   UNL     1      48.879   6.938  15.526  0.00  0.00    +0.000 C 
ATOM     18  O   UNL     1      49.944   6.330  15.483  0.00  0.00    +0.000 OA
ATOM     19  H   UNL     1      46.828   6.832  15.232  0.00  0.00    +0.000 HD
BRANCH  17  20
ATOM     20  C   UNL     1      48.833   8.371  15.853  0.00  0.00    +0.000 A 
ATOM     21  C   UNL     1      49.276   9.293  14.909  0.00  0.00    +0.000 A 
ATOM     22  S   UNL     1      49.228  10.908  15.444  0.00  0.00    +0.000 S 
ATOM     23  C   UNL     1      48.609  10.444  16.959  0.00  0.00    +0.000 A 
ATOM     24  N   UNL     1      48.365  11.373  17.921  0.00  0.00    +0.000 NA
ATOM     25  C   UNL     1      47.902  10.888  19.025  0.00  0.00    +0.000 A 
ATOM     26  N   UNL     1      47.647   9.560  19.247  0.00  0.00    +0.000 N 
ATOM     27  C   UNL     1      47.848   8.591  18.292  0.00  0.00    +0.000 A 
ATOM     28  O   UNL     1      47.551   7.418  18.499  0.00  0.00    +0.000 OA
ATOM     29  C   UNL     1      48.412   9.076  17.045  0.00  0.00    +0.000 A 
ATOM     30  H   UNL     1      47.261   9.251  20.127  0.00  0.00    +0.000 HD
ENDBRANCH  17  20
ENDBRANCH   1  16
BRANCH   1  32
ATOM     31  N   UNL     1      46.821   3.459  17.033  0.00  0.00    +0.000 NA
ATOM     32  C   UNL     1      47.157   4.088  16.115  0.00  0.00    +0.000 C 
ENDBRANCH   1  32
TORSDOF 7
ENDMDL
MODEL 3
REMARK VINA RESULT:    -8.064      1.974      2.291
REMARK INTER + INTRA:         -11.748
REMARK INTER:                 -11.235
REMARK INTRA:                  -0.514
REMARK UNBOUND:                -0.384
REMARK  Name = 
REMARK  7 active torsions:
REMARK  status: ('A' for Active; 'I' for Inactive)
REMARK    1  A    between atoms: C_2  and  C_3
REMARK    2  A    between atoms: C_3  and  N_4
REMARK    3  A    between atoms: C_3  and  C_17
REMARK    4  A    between atoms: C_5  and  C_7
REMARK    5  A    between atoms: C_20  and  O_21
REMARK    6  A    between atoms: O_21  and  C_22
REMARK    7  A    between atoms: C_22  and  C_23
REMARK                            x       y       z     vdW  Elec       q    Type
REMARK                         _______ _______ _______ _____ _____    ______ ____
ROOT
ATOM      1  C   UNL     1      47.510   6.740  13.557  0.00  0.00    +0.000 C 
ENDROOT
BRANCH   1   2
ATOM      2  C   UNL     1      46.575   5.955  12.648  0.00  0.00    +0.000 A 
ATOM      3  C   UNL     1      46.153   6.499  11.423  0.00  0.00    +0.000 A 
ATOM      4  C   UNL     1      45.338   5.757  10.562  0.00  0.00    +0.000 A 
ATOM      5  C   UNL     1      44.940   4.465  10.908  0.00  0.00    +0.000 A 
ATOM      6  C   UNL     1      45.284   3.951  12.156  0.00  0.00    +0.000 A 
ATOM      7  C   UNL     1      46.093   4.689  13.018  0.00  0.00    +0.000 A 
BRANCH   5   8
ATOM      8  O   UNL     1      44.220   3.784   9.964  0.00  0.00    +0.000 OA
BRANCH   8   9
ATOM      9  C   UNL     1      44.642   2.430   9.753  0.00  0.00    +0.000 C 
BRANCH   9  10
ATOM     10  C   UNL     1      45.539   2.351   8.542  0.00  0.00    +0.000 A 
ATOM     11  C   UNL     1      45.664   3.452   7.696  0.00  0.00    +0.000 A 
ATOM     12  C   UNL     1      46.521   3.366   6.606  0.00  0.00    +0.000 A 
ATOM     13  C   UNL     1      47.234   2.193   6.393  0.00  0.00    +0.000 A 
ATOM     14  C   UNL     1      47.063   1.150   7.289  0.00  0.00    +0.000 A 
ATOM     15  N   UNL     1      46.242   1.204   8.359  0.00  0.00    +0.000 NA
ENDBRANCH   9  10
ENDBRANCH   8   9
ENDBRANCH   5   8
ENDBRANCH   1   2
BRANCH   1  16
ATOM     16  N   UNL     1      47.715   6.012  14.796  0.00  0.00    +0.000 N 
ATOM     17  C   UNL     1      48.425   6.544  15.835  0.00  0.00    +0.000 C 
ATOM     18  O   UNL     1      48.958   7.646  15.742  0.00  0.00    +0.000 OA
ATOM     19  H   UNL     1      47.186   5.154  14.921  0.00  0.00    +0.000 HD
BRANCH  17  20
ATOM     20  C   UNL     1      48.558   5.734  17.055  0.00  0.00    +0.000 A 
ATOM     21  C   UNL     1      48.997   4.419  16.947  0.00  0.00    +0.000 A 
ATOM     22  S   UNL     1      49.041   3.579  18.427  0.00  0.00    +0.000 S 
ATOM     23  C   UNL     1      48.478   4.941  19.276  0.00  0.00    +0.000 A 
ATOM     24  N   UNL     1      48.263   4.881  20.617  0.00  0.00    +0.000 NA
ATOM     25  C   UNL     1      47.831   5.980  21.139  0.00  0.00    +0.000 A 
ATOM     26  N   UNL     1      47.610   7.140  20.442  0.00  0.00    +0.000 N 
ATOM     27  C   UNL     1      47.845   7.255  19.091  0.00  0.00    +0.000 A 
ATOM     28  O   UNL     1      47.697   8.324  18.506  0.00  0.00    +0.000 OA
ATOM     29  C   UNL     1      48.288   6.033  18.446  0.00  0.00    +0.000 A 
ATOM     30  H   UNL     1      47.295   7.972  20.916  0.00  0.00    +0.000 HD
ENDBRANCH  17  20
ENDBRANCH   1  16
BRANCH   1  32
ATOM     31  N   UNL     1      49.820   7.255  12.365  0.00  0.00    +0.000 NA
ATOM     32  C   UNL     1      48.814   7.039  12.905  0.00  0.00    +0.000 C 
ENDBRANCH   1  32
TORSDOF 7
ENDMDL
MODEL 4
REMARK VINA RESULT:    -7.966      1.187      1.399
REMARK INTER + INTRA:         -11.610
REMARK INTER:                 -10.653
REMARK INTRA:                  -0.957
REMARK UNBOUND:                -0.384
REMARK  Name = 
REMARK  7 active torsions:
REMARK  status: ('A' for Active; 'I' for Inactive)
REMARK    1  A    between atoms: C_2  and  C_3
REMARK    2  A    between atoms: C_3  and  N_4
REMARK    3  A    between atoms: C_3  and  C_17
REMARK    4  A    between atoms: C_5  and  C_7
REMARK    5  A    between atoms: C_20  and  O_21
REMARK    6  A    between atoms: O_21  and  C_22
REMARK    7  A    between atoms: C_22  and  C_23
REMARK                            x       y       z     vdW  Elec       q    Type
REMARK                         _______ _______ _______ _____ _____    ______ ____
ROOT
ATOM      1  C   UNL     1      47.981   7.251  13.006  0.00  0.00    +0.000 C 
ENDROOT
BRANCH   1   2
ATOM      2  C   UNL     1      46.940   6.333  12.381  0.00  0.00    +0.000 A 
ATOM      3  C   UNL     1      46.298   6.698  11.185  0.00  0.00    +0.000 A 
ATOM      4  C   UNL     1      45.381   5.831  10.581  0.00  0.00    +0.000 A 
ATOM      5  C   UNL     1      45.099   4.592  11.156  0.00  0.00    +0.000 A 
ATOM      6  C   UNL     1      45.666   4.259  12.384  0.00  0.00    +0.000 A 
ATOM      7  C   UNL     1      46.576   5.122  12.991  0.00  0.00    +0.000 A 
BRANCH   5   8
ATOM      8  O   UNL     1      44.259   3.777  10.447  0.00  0.00    +0.000 OA
BRANCH   8   9
ATOM      9  C   UNL     1      44.233   4.029   9.035  0.00  0.00    +0.000 C 
BRANCH   9  10
ATOM     10  C   UNL     1      45.335   3.257   8.352  0.00  0.00    +0.000 A 
ATOM     11  C   UNL     1      45.508   1.901   8.627  0.00  0.00    +0.000 A 
ATOM     12  C   UNL     1      46.508   1.203   7.961  0.00  0.00    +0.000 A 
ATOM     13  C   UNL     1      47.301   1.872   7.037  0.00  0.00    +0.000 A 
ATOM     14  C   UNL     1      47.055   3.216   6.811  0.00  0.00    +0.000 A 
ATOM     15  N   UNL     1      46.089   3.919   7.439  0.00  0.00    +0.000 NA
ENDBRANCH   9  10
ENDBRANCH   8   9
ENDBRANCH   5   8
ENDBRANCH   1   2
BRANCH   1  16
ATOM     16  N   UNL     1      48.468   6.669  14.243  0.00  0.00    +0.000 N 
ATOM     17  C   UNL     1      48.588   7.405  15.387  0.00  0.00    +0.000 C 
ATOM     18  O   UNL     1      48.330   8.605  15.401  0.00  0.00    +0.000 OA
ATOM     19  H   UNL     1      48.576   5.658  14.268  0.00  0.00    +0.000 HD
BRANCH  17  20
ATOM     20  C   UNL     1      49.072   6.716  16.594  0.00  0.00    +0.000 A 
ATOM     21  C   UNL     1      50.051   7.325  17.371  0.00  0.00    +0.000 A 
ATOM     22  S   UNL     1      50.564   6.389  18.697  0.00  0.00    +0.000 S 
ATOM     23  C   UNL     1      49.494   5.131  18.289  0.00  0.00    +0.000 A 
ATOM     24  N   UNL     1      49.455   3.989  19.027  0.00  0.00    +0.000 NA
ATOM     25  C   UNL     1      48.604   3.112  18.609  0.00  0.00    +0.000 A 
ATOM     26  N   UNL     1      47.778   3.281  17.527  0.00  0.00    +0.000 N 
ATOM     27  C   UNL     1      47.761   4.431  16.773  0.00  0.00    +0.000 A 
ATOM     28  O   UNL     1      46.966   4.578  15.850  0.00  0.00    +0.000 OA
ATOM     29  C   UNL     1      48.733   5.433  17.174  0.00  0.00    +0.000 A 
ATOM     30  H   UNL     1      47.117   2.564  17.269  0.00  0.00    +0.000 HD
ENDBRANCH  17  20
ENDBRANCH   1  16
BRANCH   1  32
ATOM     31  N   UNL     1      50.015   7.733  11.377  0.00  0.00    +0.000 NA
ATOM     32  C   UNL     1      49.111   7.536  12.082  0.00  0.00    +0.000 C 
ENDBRANCH   1  32
TORSDOF 7
ENDMDL
MODEL 5
REMARK VINA RESULT:    -7.793      4.411      8.497
REMARK INTER + INTRA:         -11.366
REMARK INTER:                 -10.255
REMARK INTRA:                  -1.111
REMARK UNBOUND:                -0.384
REMARK  Name = 
REMARK  7 active torsions:
REMARK  status: ('A' for Active; 'I' for Inactive)
REMARK    1  A    between atoms: C_2  and  C_3
REMARK    2  A    between atoms: C_3  and  N_4
REMARK    3  A    between atoms: C_3  and  C_17
REMARK    4  A    between atoms: C_5  and  C_7
REMARK    5  A    between atoms: C_20  and  O_21
REMARK    6  A    between atoms: O_21  and  C_22
REMARK    7  A    between atoms: C_22  and  C_23
REMARK                            x       y       z     vdW  Elec       q    Type
REMARK                         _______ _______ _______ _____ _____    ______ ____
ROOT
ATOM      1  C   UNL     1      48.828   5.990  17.061  0.00  0.00    +0.000 C 
ENDROOT
BRANCH   1   2
ATOM      2  C   UNL     1      49.555   4.656  17.167  0.00  0.00    +0.000 A 
ATOM      3  C   UNL     1      50.944   4.619  17.375  0.00  0.00    +0.000 A 
ATOM      4  C   UNL     1      51.606   3.396  17.526  0.00  0.00    +0.000 A 
ATOM      5  C   UNL     1      50.891   2.199  17.479  0.00  0.00    +0.000 A 
ATOM      6  C   UNL     1      49.529   2.223  17.190  0.00  0.00    +0.000 A 
ATOM      7  C   UNL     1      48.867   3.439  17.034  0.00  0.00    +0.000 A 
BRANCH   5   8
ATOM      8  O   UNL     1      51.608   1.059  17.727  0.00  0.00    +0.000 OA
BRANCH   8   9
ATOM      9  C   UNL     1      52.990   1.280  18.039  0.00  0.00    +0.000 C 
BRANCH   9  10
ATOM     10  C   UNL     1      53.792   0.036  17.748  0.00  0.00    +0.000 A 
ATOM     11  C   UNL     1      54.352  -0.150  16.485  0.00  0.00    +0.000 A 
ATOM     12  C   UNL     1      55.114  -1.288  16.250  0.00  0.00    +0.000 A 
ATOM     13  C   UNL     1      55.303  -2.203  17.278  0.00  0.00    +0.000 A 
ATOM     14  C   UNL     1      54.723  -1.937  18.508  0.00  0.00    +0.000 A 
ATOM     15  N   UNL     1      53.982  -0.839  18.768  0.00  0.00    +0.000 NA
ENDBRANCH   9  10
ENDBRANCH   8   9
ENDBRANCH   5   8
ENDBRANCH   1   2
BRANCH   1  16
ATOM     16  N   UNL     1      47.903   5.956  15.944  0.00  0.00    +0.000 N 
ATOM     17  C   UNL     1      48.276   6.343  14.688  0.00  0.00    +0.000 C 
ATOM     18  O   UNL     1      49.401   6.779  14.466  0.00  0.00    +0.000 OA
ATOM     19  H   UNL     1      47.011   5.493  16.096  0.00  0.00    +0.000 HD
BRANCH  17  20
ATOM     20  C   UNL     1      47.269   6.251  13.620  0.00  0.00    +0.000 A 
ATOM     21  C   UNL     1      46.882   7.411  12.957  0.00  0.00    +0.000 A 
ATOM     22  S   UNL     1      45.664   7.168  11.791  0.00  0.00    +0.000 S 
ATOM     23  C   UNL     1      45.607   5.501  12.122  0.00  0.00    +0.000 A 
ATOM     24  N   UNL     1      44.727   4.696  11.469  0.00  0.00    +0.000 NA
ATOM     25  C   UNL     1      44.782   3.453  11.816  0.00  0.00    +0.000 A 
ATOM     26  N   UNL     1      45.649   2.941  12.747  0.00  0.00    +0.000 N 
ATOM     27  C   UNL     1      46.577   3.712  13.407  0.00  0.00    +0.000 A 
ATOM     28  O   UNL     1      47.381   3.214  14.189  0.00  0.00    +0.000 OA
ATOM     29  C   UNL     1      46.527   5.128  13.087  0.00  0.00    +0.000 A 
ATOM     30  H   UNL     1      45.656   1.954  12.954  0.00  0.00    +0.000 HD
ENDBRANCH  17  20
ENDBRANCH   1  16
BRANCH   1  32
ATOM     31  N   UNL     1      47.528   6.618  19.284  0.00  0.00    +0.000 NA
ATOM     32  C   UNL     1      48.117   6.347  18.319  0.00  0.00    +0.000 C 
ENDBRANCH   1  32
TORSDOF 7
ENDMDL
MODEL 6
REMARK VINA RESULT:    -7.692      2.408      4.239
REMARK INTER + INTRA:         -11.223
REMARK INTER:                 -10.346
REMARK INTRA:                  -0.877
REMARK UNBOUND:                -0.384
REMARK  Name = 
REMARK  7 active torsions:
REMARK  status: ('A' for Active; 'I' for Inactive)
REMARK    1  A    between atoms: C_2  and  C_3
REMARK    2  A    between atoms: C_3  and  N_4
REMARK    3  A    between atoms: C_3  and  C_17
REMARK    4  A    between atoms: C_5  and  C_7
REMARK    5  A    between atoms: C_20  and  O_21
REMARK    6  A    between atoms: O_21  and  C_22
REMARK    7  A    between atoms: C_22  and  C_23
REMARK                            x       y       z     vdW  Elec       q    Type
REMARK                         _______ _______ _______ _____ _____    ______ ____
ROOT
ATOM      1  C   UNL     1      47.733   4.954  14.789  0.00  0.00    +0.000 C 
ENDROOT
BRANCH   1   2
ATOM      2  C   UNL     1      46.828   4.881  13.567  0.00  0.00    +0.000 A 
ATOM      3  C   UNL     1      46.700   5.987  12.711  0.00  0.00    +0.000 A 
ATOM      4  C   UNL     1      45.911   5.904  11.559  0.00  0.00    +0.000 A 
ATOM      5  C   UNL     1      45.247   4.717  11.245  0.00  0.00    +0.000 A 
ATOM      6  C   UNL     1      45.301   3.644  12.131  0.00  0.00    +0.000 A 
ATOM      7  C   UNL     1      46.083   3.725  13.282  0.00  0.00    +0.000 A 
BRANCH   5   8
ATOM      8  O   UNL     1      44.574   4.702  10.053  0.00  0.00    +0.000 OA
BRANCH   8   9
ATOM      9  C   UNL     1      44.204   3.395   9.594  0.00  0.00    +0.000 C 
BRANCH   9  10
ATOM     10  C   UNL     1      45.252   2.863   8.648  0.00  0.00    +0.000 A 
ATOM     11  C   UNL     1      45.862   3.720   7.733  0.00  0.00    +0.000 A 
ATOM     12  C   UNL     1      46.848   3.215   6.894  0.00  0.00    +0.000 A 
ATOM     13  C   UNL     1      47.204   1.876   6.995  0.00  0.00    +0.000 A 
ATOM     14  C   UNL     1      46.559   1.095   7.940  0.00  0.00    +0.000 A 
ATOM     15  N   UNL     1      45.601   1.557   8.771  0.00  0.00    +0.000 NA
ENDBRANCH   9  10
ENDBRANCH   8   9
ENDBRANCH   5   8
ENDBRANCH   1   2
BRANCH   1  16
ATOM     16  N   UNL     1      47.976   6.342  15.137  0.00  0.00    +0.000 N 
ATOM     17  C   UNL     1      49.101   6.730  15.808  0.00  0.00    +0.000 C 
ATOM     18  O   UNL     1      49.931   5.909  16.185  0.00  0.00    +0.000 OA
ATOM     19  H   UNL     1      47.353   7.036  14.732  0.00  0.00    +0.000 HD
BRANCH  17  20
ATOM     20  C   UNL     1      49.263   8.164  16.095  0.00  0.00    +0.000 A 
ATOM     21  C   UNL     1      48.278   8.821  16.823  0.00  0.00    +0.000 A 
ATOM     22  S   UNL     1      48.562  10.488  17.024  0.00  0.00    +0.000 S 
ATOM     23  C   UNL     1      50.016  10.399  16.148  0.00  0.00    +0.000 A 
ATOM     24  N   UNL     1      50.759  11.516  15.922  0.00  0.00    +0.000 NA
ATOM     25  C   UNL     1      51.836  11.313  15.241  0.00  0.00    +0.000 A 
ATOM     26  N   UNL     1      52.246  10.089  14.777  0.00  0.00    +0.000 N 
ATOM     27  C   UNL     1      51.545   8.929  15.010  0.00  0.00    +0.000 A 
ATOM     28  O   UNL     1      51.970   7.840  14.636  0.00  0.00    +0.000 OA
ATOM     29  C   UNL     1      50.299   9.108  15.734  0.00  0.00    +0.000 A 
ATOM     30  H   UNL     1      53.114   9.996  14.271  0.00  0.00    +0.000 HD
ENDBRANCH  17  20
ENDBRANCH   1  16
BRANCH   1  32
ATOM     31  N   UNL     1      46.736   3.605  16.841  0.00  0.00    +0.000 NA
ATOM     32  C   UNL     1      47.173   4.214  15.953  0.00  0.00    +0.000 C 
ENDBRANCH   1  32
TORSDOF 7
ENDMDL
MODEL 7
REMARK VINA RESULT:    -7.453      1.926      2.490
REMARK INTER + INTRA:         -10.887
REMARK INTER:                  -9.736
REMARK INTRA:                  -1.151
REMARK UNBOUND:                -0.384
REMARK  Name = 
REMARK  7 active torsions:
REMARK  status: ('A' for Active; 'I' for Inactive)
REMARK    1  A    between atoms: C_2  and  C_3
REMARK    2  A    between atoms: C_3  and  N_4
REMARK    3  A    between atoms: C_3  and  C_17
REMARK    4  A    between atoms: C_5  and  C_7
REMARK    5  A    between atoms: C_20  and  O_21
REMARK    6  A    between atoms: O_21  and  C_22
REMARK    7  A    between atoms: C_22  and  C_23
REMARK                            x       y       z     vdW  Elec       q    Type
REMARK                         _______ _______ _______ _____ _____    ______ ____
ROOT
ATOM      1  C   UNL     1      48.233   7.200  13.356  0.00  0.00    +0.000 C 
ENDROOT
BRANCH   1   2
ATOM      2  C   UNL     1      47.151   6.353  12.701  0.00  0.00    +0.000 A 
ATOM      3  C   UNL     1      46.533   6.783  11.514  0.00  0.00    +0.000 A 
ATOM      4  C   UNL     1      45.578   5.981  10.883  0.00  0.00    +0.000 A 
ATOM      5  C   UNL     1      45.232   4.741  11.421  0.00  0.00    +0.000 A 
ATOM      6  C   UNL     1      45.776   4.346  12.641  0.00  0.00    +0.000 A 
ATOM      7  C   UNL     1      46.726   5.144  13.275  0.00  0.00    +0.000 A 
BRANCH   5   8
ATOM      8  O   UNL     1      44.356   3.989  10.687  0.00  0.00    +0.000 OA
BRANCH   8   9
ATOM      9  C   UNL     1      44.342   4.289   9.285  0.00  0.00    +0.000 C 
BRANCH   9  10
ATOM     10  C   UNL     1      45.299   3.382   8.551  0.00  0.00    +0.000 A 
ATOM     11  C   UNL     1      46.235   3.924   7.672  0.00  0.00    +0.000 A 
ATOM     12  C   UNL     1      47.128   3.073   7.033  0.00  0.00    +0.000 A 
ATOM     13  C   UNL     1      47.069   1.709   7.293  0.00  0.00    +0.000 A 
ATOM     14  C   UNL     1      46.118   1.252   8.190  0.00  0.00    +0.000 A 
ATOM     15  N   UNL     1      45.241   2.055   8.829  0.00  0.00    +0.000 NA
ENDBRANCH   9  10
ENDBRANCH   8   9
ENDBRANCH   5   8
ENDBRANCH   1   2
BRANCH   1  16
ATOM     16  N   UNL     1      48.715   6.540  14.555  0.00  0.00    +0.000 N 
ATOM     17  C   UNL     1      48.684   7.152  15.776  0.00  0.00    +0.000 C 
ATOM     18  O   UNL     1      48.289   8.307  15.898  0.00  0.00    +0.000 OA
ATOM     19  H   UNL     1      48.936   5.551  14.481  0.00  0.00    +0.000 HD
BRANCH  17  20
ATOM     20  C   UNL     1      49.177   6.388  16.933  0.00  0.00    +0.000 A 
ATOM     21  C   UNL     1      48.260   5.901  17.859  0.00  0.00    +0.000 A 
ATOM     22  S   UNL     1      48.971   5.095  19.179  0.00  0.00    +0.000 S 
ATOM     23  C   UNL     1      50.535   5.360  18.566  0.00  0.00    +0.000 A 
ATOM     24  N   UNL     1      51.629   4.934  19.252  0.00  0.00    +0.000 NA
ATOM     25  C   UNL     1      52.755   5.202  18.680  0.00  0.00    +0.000 A 
ATOM     26  N   UNL     1      52.885   5.845  17.476  0.00  0.00    +0.000 N 
ATOM     27  C   UNL     1      51.806   6.265  16.733  0.00  0.00    +0.000 A 
ATOM     28  O   UNL     1      51.952   6.782  15.630  0.00  0.00    +0.000 OA
ATOM     29  C   UNL     1      50.514   6.028  17.353  0.00  0.00    +0.000 A 
ATOM     30  H   UNL     1      53.796   6.002  17.073  0.00  0.00    +0.000 HD
ENDBRANCH  17  20
ENDBRANCH   1  16
BRANCH   1  32
ATOM     31  N   UNL     1      50.226   7.749  11.697  0.00  0.00    +0.000 NA
ATOM     32  C   UNL     1      49.361   7.490  12.430  0.00  0.00    +0.000 C 
ENDBRANCH   1  32
TORSDOF 7
ENDMDL
MODEL 8
REMARK VINA RESULT:    -7.056      1.914      2.620
REMARK INTER + INTRA:         -10.327
REMARK INTER:                  -9.038
REMARK INTRA:                  -1.289
REMARK UNBOUND:                -0.384
REMARK  Name = 
REMARK  7 active torsions:
REMARK  status: ('A' for Active; 'I' for Inactive)
REMARK    1  A    between atoms: C_2  and  C_3
REMARK    2  A    between atoms: C_3  and  N_4
REMARK    3  A    between atoms: C_3  and  C_17
REMARK    4  A    between atoms: C_5  and  C_7
REMARK    5  A    between atoms: C_20  and  O_21
REMARK    6  A    between atoms: O_21  and  C_22
REMARK    7  A    between atoms: C_22  and  C_23
REMARK                            x       y       z     vdW  Elec       q    Type
REMARK                         _______ _______ _______ _____ _____    ______ ____
ROOT
ATOM      1  C   UNL     1      49.091   8.652  14.179  0.00  0.00    +0.000 C 
ENDROOT
BRANCH   1   2
ATOM      2  C   UNL     1      47.962   8.174  13.276  0.00  0.00    +0.000 A 
ATOM      3  C   UNL     1      48.168   7.107  12.385  0.00  0.00    +0.000 A 
ATOM      4  C   UNL     1      47.117   6.633  11.594  0.00  0.00    +0.000 A 
ATOM      5  C   UNL     1      45.850   7.210  11.686  0.00  0.00    +0.000 A 
ATOM      6  C   UNL     1      45.659   8.322  12.503  0.00  0.00    +0.000 A 
ATOM      7  C   UNL     1      46.705   8.800  13.290  0.00  0.00    +0.000 A 
BRANCH   5   8
ATOM      8  O   UNL     1      44.865   6.622  10.940  0.00  0.00    +0.000 OA
BRANCH   8   9
ATOM      9  C   UNL     1      44.525   5.289  11.347  0.00  0.00    +0.000 C 
BRANCH   9  10
ATOM     10  C   UNL     1      44.776   4.323  10.215  0.00  0.00    +0.000 A 
ATOM     11  C   UNL     1      45.410   4.762   9.054  0.00  0.00    +0.000 A 
ATOM     12  C   UNL     1      45.660   3.847   8.039  0.00  0.00    +0.000 A 
ATOM     13  C   UNL     1      45.279   2.522   8.211  0.00  0.00    +0.000 A 
ATOM     14  C   UNL     1      44.666   2.164   9.400  0.00  0.00    +0.000 A 
ATOM     15  N   UNL     1      44.414   3.029  10.405  0.00  0.00    +0.000 NA
ENDBRANCH   9  10
ENDBRANCH   8   9
ENDBRANCH   5   8
ENDBRANCH   1   2
BRANCH   1  16
ATOM     16  N   UNL     1      49.155   7.820  15.366  0.00  0.00    +0.000 N 
ATOM     17  C   UNL     1      48.555   8.189  16.537  0.00  0.00    +0.000 C 
ATOM     18  O   UNL     1      47.976   9.265  16.643  0.00  0.00    +0.000 OA
ATOM     19  H   UNL     1      49.533   6.883  15.255  0.00  0.00    +0.000 HD
BRANCH  17  20
ATOM     20  C   UNL     1      48.660   7.265  17.677  0.00  0.00    +0.000 A 
ATOM     21  C   UNL     1      48.933   7.780  18.940  0.00  0.00    +0.000 A 
ATOM     22  S   UNL     1      49.091   6.595  20.152  0.00  0.00    +0.000 S 
ATOM     23  C   UNL     1      48.798   5.343  19.039  0.00  0.00    +0.000 A 
ATOM     24  N   UNL     1      48.824   4.043  19.437  0.00  0.00    +0.000 NA
ATOM     25  C   UNL     1      48.590   3.191  18.495  0.00  0.00    +0.000 A 
ATOM     26  N   UNL     1      48.319   3.524  17.193  0.00  0.00    +0.000 N 
ATOM     27  C   UNL     1      48.251   4.826  16.753  0.00  0.00    +0.000 A 
ATOM     28  O   UNL     1      47.945   5.094  15.595  0.00  0.00    +0.000 OA
ATOM     29  C   UNL     1      48.551   5.824  17.764  0.00  0.00    +0.000 A 
ATOM     30  H   UNL     1      48.121   2.808  16.510  0.00  0.00    +0.000 HD
ENDBRANCH  17  20
ENDBRANCH   1  16
BRANCH   1  32
ATOM     31  N   UNL     1      51.449   8.677  12.968  0.00  0.00    +0.000 NA
ATOM     32  C   UNL     1      50.405   8.667  13.481  0.00  0.00    +0.000 C 
ENDBRANCH   1  32
TORSDOF 7
ENDMDL
MODEL 9
REMARK VINA RESULT:    -6.966      3.817      8.103
REMARK INTER + INTRA:         -10.200
REMARK INTER:                  -9.235
REMARK INTRA:                  -0.965
REMARK UNBOUND:                -0.384
REMARK  Name = 
REMARK  7 active torsions:
REMARK  status: ('A' for Active; 'I' for Inactive)
REMARK    1  A    between atoms: C_2  and  C_3
REMARK    2  A    between atoms: C_3  and  N_4
REMARK    3  A    between atoms: C_3  and  C_17
REMARK    4  A    between atoms: C_5  and  C_7
REMARK    5  A    between atoms: C_20  and  O_21
REMARK    6  A    between atoms: O_21  and  C_22
REMARK    7  A    between atoms: C_22  and  C_23
REMARK                            x       y       z     vdW  Elec       q    Type
REMARK                         _______ _______ _______ _____ _____    ______ ____
ROOT
ATOM      1  C   UNL     1      48.919   7.921  15.580  0.00  0.00    +0.000 C 
ENDROOT
BRANCH   1   2
ATOM      2  C   UNL     1      49.536   6.720  16.282  0.00  0.00    +0.000 A 
ATOM      3  C   UNL     1      48.718   5.698  16.793  0.00  0.00    +0.000 A 
ATOM      4  C   UNL     1      49.286   4.568  17.391  0.00  0.00    +0.000 A 
ATOM      5  C   UNL     1      50.673   4.441  17.480  0.00  0.00    +0.000 A 
ATOM      6  C   UNL     1      51.488   5.486  17.053  0.00  0.00    +0.000 A 
ATOM      7  C   UNL     1      50.925   6.615  16.461  0.00  0.00    +0.000 A 
BRANCH   5   8
ATOM      8  O   UNL     1      51.137   3.262  17.999  0.00  0.00    +0.000 OA
BRANCH   8   9
ATOM      9  C   UNL     1      52.443   3.342  18.585  0.00  0.00    +0.000 C 
BRANCH   9  10
ATOM     10  C   UNL     1      53.377   2.375  17.900  0.00  0.00    +0.000 A 
ATOM     11  C   UNL     1      52.995   1.047  17.722  0.00  0.00    +0.000 A 
ATOM     12  C   UNL     1      53.858   0.183  17.059  0.00  0.00    +0.000 A 
ATOM     13  C   UNL     1      55.072   0.667  16.587  0.00  0.00    +0.000 A 
ATOM     14  C   UNL     1      55.370   2.004  16.793  0.00  0.00    +0.000 A 
ATOM     15  N   UNL     1      54.551   2.867  17.429  0.00  0.00    +0.000 NA
ENDBRANCH   9  10
ENDBRANCH   8   9
ENDBRANCH   5   8
ENDBRANCH   1   2
BRANCH   1  16
ATOM     16  N   UNL     1      47.794   7.491  14.771  0.00  0.00    +0.000 N 
ATOM     17  C   UNL     1      47.968   6.849  13.578  0.00  0.00    +0.000 C 
ATOM     18  O   UNL     1      49.089   6.651  13.121  0.00  0.00    +0.000 OA
ATOM     19  H   UNL     1      46.871   7.550  15.193  0.00  0.00    +0.000 HD
BRANCH  17  20
ATOM     20  C   UNL     1      46.762   6.435  12.844  0.00  0.00    +0.000 A 
ATOM     21  C   UNL     1      46.028   7.396  12.157  0.00  0.00    +0.000 A 
ATOM     22  S   UNL     1      44.624   6.790  11.409  0.00  0.00    +0.000 S 
ATOM     23  C   UNL     1      44.941   5.216  11.969  0.00  0.00    +0.000 A 
ATOM     24  N   UNL     1      44.083   4.197  11.695  0.00  0.00    +0.000 NA
ATOM     25  C   UNL     1      44.437   3.055  12.182  0.00  0.00    +0.000 A 
ATOM     26  N   UNL     1      45.581   2.837  12.906  0.00  0.00    +0.000 N 
ATOM     27  C   UNL     1      46.493   3.830  13.178  0.00  0.00    +0.000 A 
ATOM     28  O   UNL     1      47.539   3.591  13.774  0.00  0.00    +0.000 OA
ATOM     29  C   UNL     1      46.120   5.146  12.692  0.00  0.00    +0.000 A 
ATOM     30  H   UNL     1      45.811   1.912  13.236  0.00  0.00    +0.000 HD
ENDBRANCH  17  20
ENDBRANCH   1  16
BRANCH   1  32
ATOM     31  N   UNL     1      48.141   9.790  17.290  0.00  0.00    +0.000 NA
ATOM     32  C   UNL     1      48.500   8.981  16.536  0.00  0.00    +0.000 C 
ENDBRANCH   1  32
TORSDOF 7
ENDMDL
