MODEL 1
REMARK VINA RESULT:    -8.019      0.000      0.000
REMARK INTER + INTRA:         -12.800
REMARK INTER:                 -11.535
REMARK INTRA:                  -1.265
REMARK UNBOUND:                -1.265
REMARK  Name = 
REMARK  8 active torsions:
REMARK  status: ('A' for Active; 'I' for Inactive)
REMARK    1  A    between atoms: C_2  and  C_20
REMARK    2  A    between atoms: N_3  and  C_4
REMARK    3  A    between atoms: C_4  and  C_5
REMARK    4  A    between atoms: C_8  and  C_9
REMARK    5  A    between atoms: C_9  and  O_10
REMARK    6  A    between atoms: C_9  and  C_11
REMARK    7  A    between atoms: C_11  and  C_12
REMARK    8  A    between atoms: C_12  and  C_13
REMARK                            x       y       z     vdW  Elec       q    Type
REMARK                         _______ _______ _______ _____ _____    ______ ____
ROOT
ATOM      1  C   UNL     1      45.913   6.773  12.345  0.00  0.00    +0.000 A 
ATOM      2  C   UNL     1      44.832   6.091  12.915  0.00  0.00    +0.000 A 
ATOM      3  C   UNL     1      44.154   5.104  12.194  0.00  0.00    +0.000 A 
ATOM      4  C   UNL     1      44.536   4.767  10.883  0.00  0.00    +0.000 A 
ATOM      5  C   UNL     1      45.616   5.460  10.318  0.00  0.00    +0.000 A 
ATOM      6  C   UNL     1      46.301   6.442  11.041  0.00  0.00    +0.000 A 
ENDROOT
BRANCH   1   7
ATOM      7  C   UNL     1      46.650   7.829  13.124  0.00  0.00    +0.000 C 
BRANCH   7  10
ATOM      8  O   UNL     1      49.205   6.586  13.335  0.00  0.00    +0.000 OA
ATOM      9  C   UNL     1      48.516   6.731  14.340  0.00  0.00    +0.000 C 
ATOM     10  N   UNL     1      47.268   7.293  14.311  0.00  0.00    +0.000 N 
ATOM     11  H   UNL     1      46.818   7.545  15.183  0.00  0.00    +0.000 HD
BRANCH   9  12
ATOM     12  C   UNL     1      48.961   6.252  15.656  0.00  0.00    +0.000 A 
ATOM     13  C   UNL     1      49.985   6.899  16.334  0.00  0.00    +0.000 A 
ATOM     14  S   UNL     1      50.350   6.193  17.847  0.00  0.00    +0.000 S 
ATOM     15  C   UNL     1      49.131   5.019  17.660  0.00  0.00    +0.000 A 
ATOM     16  N   UNL     1      48.891   4.090  18.625  0.00  0.00    +0.000 NA
ATOM     17  C   UNL     1      47.913   3.287  18.358  0.00  0.00    +0.000 A 
ATOM     18  N   UNL     1      47.169   3.313  17.214  0.00  0.00    +0.000 N 
ATOM     19  C   UNL     1      47.435   4.171  16.176  0.00  0.00    +0.000 A 
ATOM     20  O   UNL     1      46.859   4.049  15.098  0.00  0.00    +0.000 OA
ATOM     21  C   UNL     1      48.481   5.141  16.446  0.00  0.00    +0.000 A 
ATOM     22  H   UNL     1      46.450   2.627  17.035  0.00  0.00    +0.000 HD
ENDBRANCH   9  12
ENDBRANCH   7  10
ENDBRANCH   1   7
BRANCH   4  23
ATOM     23  C   UNL     1      43.849   3.620  10.159  0.00  0.00    +0.000 C 
BRANCH  23  24
ATOM     24  O   UNL     1      43.908   2.417  10.928  0.00  0.00    +0.000 OA
ATOM     25  H   UNL     1      44.833   2.115  10.906  0.00  0.00    +0.000 HD
ENDBRANCH  23  24
BRANCH  23  26
ATOM     26  C   UNL     1      44.417   3.346   8.759  0.00  0.00    +0.000 C 
BRANCH  26  27
ATOM     27  C   UNL     1      45.418   2.191   8.771  0.00  0.00    +0.000 C 
BRANCH  27  28
ATOM     28  C   UNL     1      46.361   2.303   7.604  0.00  0.00    +0.000 C 
ATOM     29  N   UNL     1      47.282   1.404   7.373  0.00  0.00    +0.000 NA
ATOM     30  C   UNL     1      47.957   1.900   6.134  0.00  0.00    +0.000 C 
ATOM     31  C   UNL     1      47.022   2.959   5.539  0.00  0.00    +0.000 C 
ATOM     32  N   UNL     1      46.281   3.347   6.715  0.00  0.00    +0.000 N 
ATOM     33  H   UNL     1      45.385   3.803   6.588  0.00  0.00    +0.000 HD
ENDBRANCH  27  28
ENDBRANCH  26  27
ENDBRANCH  23  26
ENDBRANCH   4  23
TORSDOF 8
ENDMDL
MODEL 2
REMARK VINA RESULT:    -7.675      1.591      1.794
REMARK INTER + INTRA:         -12.305
REMARK INTER:                 -11.371
REMARK INTRA:                  -0.934
REMARK UNBOUND:                -1.265
REMARK  Name = 
REMARK  8 active torsions:
REMARK  status: ('A' for Active; 'I' for Inactive)
REMARK    1  A    between atoms: C_2  and  C_20
REMARK    2  A    between atoms: N_3  and  C_4
REMARK    3  A    between atoms: C_4  and  C_5
REMARK    4  A    between atoms: C_8  and  C_9
REMARK    5  A    between atoms: C_9  and  O_10
REMARK    6  A    between atoms: C_9  and  C_11
REMARK    7  A    between atoms: C_11  and  C_12
REMARK    8  A    between atoms: C_12  and  C_13
REMARK                            x       y       z     vdW  Elec       q    Type
REMARK                         _______ _______ _______ _____ _____    ______ ____
ROOT
ATOM      1  C   UNL     1      46.921   6.174  12.723  0.00  0.00    +0.000 A 
ATOM      2  C   UNL     1      46.586   4.878  13.128  0.00  0.00    +0.000 A 
ATOM      3  C   UNL     1      45.547   4.184  12.500  0.00  0.00    +0.000 A 
ATOM      4  C   UNL     1      44.815   4.762  11.449  0.00  0.00    +0.000 A 
ATOM      5  C   UNL     1      45.154   6.064  11.055  0.00  0.00    +0.000 A 
ATOM      6  C   UNL     1      46.198   6.758  11.676  0.00  0.00    +0.000 A 
ENDROOT
BRANCH   1   7
ATOM      7  C   UNL     1      48.045   6.920  13.392  0.00  0.00    +0.000 C 
BRANCH   7  10
ATOM      8  O   UNL     1      50.171   6.815  15.287  0.00  0.00    +0.000 OA
ATOM      9  C   UNL     1      49.010   6.861  15.680  0.00  0.00    +0.000 C 
ATOM     10  N   UNL     1      47.937   6.885  14.829  0.00  0.00    +0.000 N 
ATOM     11  H   UNL     1      47.017   7.097  15.197  0.00  0.00    +0.000 HD
BRANCH   9  12
ATOM     12  C   UNL     1      48.677   6.835  17.111  0.00  0.00    +0.000 A 
ATOM     13  C   UNL     1      48.221   7.979  17.751  0.00  0.00    +0.000 A 
ATOM     14  S   UNL     1      47.886   7.742  19.410  0.00  0.00    +0.000 S 
ATOM     15  C   UNL     1      48.310   6.095  19.320  0.00  0.00    +0.000 A 
ATOM     16  N   UNL     1      48.231   5.284  20.411  0.00  0.00    +0.000 NA
ATOM     17  C   UNL     1      48.552   4.053  20.182  0.00  0.00    +0.000 A 
ATOM     18  N   UNL     1      48.961   3.562  18.976  0.00  0.00    +0.000 N 
ATOM     19  C   UNL     1      49.144   4.359  17.874  0.00  0.00    +0.000 A 
ATOM     20  O   UNL     1      49.677   3.916  16.860  0.00  0.00    +0.000 OA
ATOM     21  C   UNL     1      48.736   5.742  18.054  0.00  0.00    +0.000 A 
ATOM     22  H   UNL     1      49.250   2.600  18.868  0.00  0.00    +0.000 HD
ENDBRANCH   9  12
ENDBRANCH   7  10
ENDBRANCH   1   7
BRANCH   4  23
ATOM     23  C   UNL     1      43.759   3.949  10.715  0.00  0.00    +0.000 C 
BRANCH  23  24
ATOM     24  O   UNL     1      42.923   3.243  11.635  0.00  0.00    +0.000 OA
ATOM     25  H   UNL     1      42.567   2.474  11.157  0.00  0.00    +0.000 HD
ENDBRANCH  23  24
BRANCH  23  26
ATOM     26  C   UNL     1      44.342   2.952   9.703  0.00  0.00    +0.000 C 
BRANCH  26  27
ATOM     27  C   UNL     1      44.792   3.648   8.418  0.00  0.00    +0.000 C 
BRANCH  27  28
ATOM     28  C   UNL     1      45.960   2.922   7.811  0.00  0.00    +0.000 C 
ATOM     29  N   UNL     1      46.206   1.665   8.079  0.00  0.00    +0.000 NA
ATOM     30  C   UNL     1      47.422   1.361   7.264  0.00  0.00    +0.000 C 
ATOM     31  C   UNL     1      47.546   2.503   6.248  0.00  0.00    +0.000 C 
ATOM     32  N   UNL     1      46.811   3.543   6.930  0.00  0.00    +0.000 N 
ATOM     33  H   UNL     1      46.454   4.315   6.381  0.00  0.00    +0.000 HD
ENDBRANCH  27  28
ENDBRANCH  26  27
ENDBRANCH  23  26
ENDBRANCH   4  23
TORSDOF 8
ENDMDL
MODEL 3
REMARK VINA RESULT:    -7.634      2.159      2.653
REMARK INTER + INTRA:         -12.245
REMARK INTER:                 -11.292
REMARK INTRA:                  -0.953
REMARK UNBOUND:                -1.265
REMARK  Name = 
REMARK  8 active torsions:
REMARK  status: ('A' for Active; 'I' for Inactive)
REMARK    1  A    between atoms: C_2  and  C_20
REMARK    2  A    between atoms: N_3  and  C_4
REMARK    3  A    between atoms: C_4  and  C_5
REMARK    4  A    between atoms: C_8  and  C_9
REMARK    5  A    between atoms: C_9  and  O_10
REMARK    6  A    between atoms: C_9  and  C_11
REMARK    7  A    between atoms: C_11  and  C_12
REMARK    8  A    between atoms: C_12  and  C_13
REMARK                            x       y       z     vdW  Elec       q    Type
REMARK                         _______ _______ _______ _____ _____    ______ ____
ROOT
ATOM      1  C   UNL     1      46.903   6.197  12.938  0.00  0.00    +0.000 A 
ATOM      2  C   UNL     1      46.544   6.661  11.668  0.00  0.00    +0.000 A 
ATOM      3  C   UNL     1      45.602   5.972  10.898  0.00  0.00    +0.000 A 
ATOM      4  C   UNL     1      44.989   4.800  11.375  0.00  0.00    +0.000 A 
ATOM      5  C   UNL     1      45.360   4.338  12.646  0.00  0.00    +0.000 A 
ATOM      6  C   UNL     1      46.296   5.031  13.421  0.00  0.00    +0.000 A 
ENDROOT
BRANCH   1   7
ATOM      7  C   UNL     1      47.910   6.943  13.771  0.00  0.00    +0.000 C 
BRANCH   7  10
ATOM      8  O   UNL     1      50.140   6.504  15.491  0.00  0.00    +0.000 OA
ATOM      9  C   UNL     1      49.001   6.361  15.925  0.00  0.00    +0.000 C 
ATOM     10  N   UNL     1      47.884   6.527  15.151  0.00  0.00    +0.000 N 
ATOM     11  H   UNL     1      46.974   6.567  15.596  0.00  0.00    +0.000 HD
BRANCH   9  12
ATOM     12  C   UNL     1      48.751   5.938  17.310  0.00  0.00    +0.000 A 
ATOM     13  C   UNL     1      48.976   4.625  17.700  0.00  0.00    +0.000 A 
ATOM     14  S   UNL     1      48.630   4.336  19.348  0.00  0.00    +0.000 S 
ATOM     15  C   UNL     1      48.197   5.963  19.603  0.00  0.00    +0.000 A 
ATOM     16  N   UNL     1      47.810   6.407  20.830  0.00  0.00    +0.000 NA
ATOM     17  C   UNL     1      47.545   7.672  20.878  0.00  0.00    +0.000 A 
ATOM     18  N   UNL     1      47.613   8.526  19.816  0.00  0.00    +0.000 N 
ATOM     19  C   UNL     1      47.909   8.106  18.543  0.00  0.00    +0.000 A 
ATOM     20  O   UNL     1      47.790   8.868  17.587  0.00  0.00    +0.000 OA
ATOM     21  C   UNL     1      48.280   6.706  18.440  0.00  0.00    +0.000 A 
ATOM     22  H   UNL     1      47.344   9.496  19.900  0.00  0.00    +0.000 HD
ENDBRANCH   9  12
ENDBRANCH   7  10
ENDBRANCH   1   7
BRANCH   4  23
ATOM     23  C   UNL     1      43.894   4.126  10.563  0.00  0.00    +0.000 C 
BRANCH  23  24
ATOM     24  O   UNL     1      42.939   3.490  11.416  0.00  0.00    +0.000 OA
ATOM     25  H   UNL     1      42.307   4.177  11.692  0.00  0.00    +0.000 HD
ENDBRANCH  23  24
BRANCH  23  26
ATOM     26  C   UNL     1      44.420   3.100   9.549  0.00  0.00    +0.000 C 
BRANCH  26  27
ATOM     27  C   UNL     1      44.850   3.766   8.242  0.00  0.00    +0.000 C 
BRANCH  27  28
ATOM     28  C   UNL     1      46.005   3.021   7.631  0.00  0.00    +0.000 C 
ATOM     29  N   UNL     1      46.333   1.817   8.022  0.00  0.00    +0.000 NA
ATOM     30  C   UNL     1      47.498   1.467   7.152  0.00  0.00    +0.000 C 
ATOM     31  C   UNL     1      47.486   2.483   6.003  0.00  0.00    +0.000 C 
ATOM     32  N   UNL     1      46.753   3.565   6.616  0.00  0.00    +0.000 N 
ATOM     33  H   UNL     1      46.318   4.251   6.012  0.00  0.00    +0.000 HD
ENDBRANCH  27  28
ENDBRANCH  26  27
ENDBRANCH  23  26
ENDBRANCH   4  23
TORSDOF 8
ENDMDL
MODEL 4
REMARK VINA RESULT:    -6.810      1.644      2.706
REMARK INTER + INTRA:         -11.061
REMARK INTER:                 -10.621
REMARK INTRA:                  -0.439
REMARK UNBOUND:                -1.265
REMARK  Name = 
REMARK  8 active torsions:
REMARK  status: ('A' for Active; 'I' for Inactive)
REMARK    1  A    between atoms: C_2  and  C_20
REMARK    2  A    between atoms: N_3  and  C_4
REMARK    3  A    between atoms: C_4  and  C_5
REMARK    4  A    between atoms: C_8  and  C_9
REMARK    5  A    between atoms: C_9  and  O_10
REMARK    6  A    between atoms: C_9  and  C_11
REMARK    7  A    between atoms: C_11  and  C_12
REMARK    8  A    between atoms: C_12  and  C_13
REMARK                            x       y       z     vdW  Elec       q    Type
REMARK                         _______ _______ _______ _____ _____    ______ ____
ROOT
ATOM      1  C   UNL     1      45.909   6.587  12.510  0.00  0.00    +0.000 A 
ATOM      2  C   UNL     1      45.814   6.518  11.117  0.00  0.00    +0.000 A 
ATOM      3  C   UNL     1      45.168   5.442  10.500  0.00  0.00    +0.000 A 
ATOM      4  C   UNL     1      44.597   4.404  11.257  0.00  0.00    +0.000 A 
ATOM      5  C   UNL     1      44.704   4.479  12.653  0.00  0.00    +0.000 A 
ATOM      6  C   UNL     1      45.342   5.559  13.273  0.00  0.00    +0.000 A 
ENDROOT
BRANCH   1   7
ATOM      7  C   UNL     1      46.596   7.750  13.175  0.00  0.00    +0.000 C 
BRANCH   7  10
ATOM      8  O   UNL     1      49.067   6.332  13.245  0.00  0.00    +0.000 OA
ATOM      9  C   UNL     1      48.539   6.684  14.295  0.00  0.00    +0.000 C 
ATOM     10  N   UNL     1      47.340   7.343  14.341  0.00  0.00    +0.000 N 
ATOM     11  H   UNL     1      47.037   7.760  15.213  0.00  0.00    +0.000 HD
BRANCH   9  12
ATOM     12  C   UNL     1      49.135   6.368  15.601  0.00  0.00    +0.000 A 
ATOM     13  C   UNL     1      48.448   5.585  16.519  0.00  0.00    +0.000 A 
ATOM     14  S   UNL     1      49.310   5.329  17.973  0.00  0.00    +0.000 S 
ATOM     15  C   UNL     1      50.641   6.230  17.411  0.00  0.00    +0.000 A 
ATOM     16  N   UNL     1      51.757   6.392  18.174  0.00  0.00    +0.000 NA
ATOM     17  C   UNL     1      52.697   7.070  17.601  0.00  0.00    +0.000 A 
ATOM     18  N   UNL     1      52.620   7.614  16.352  0.00  0.00    +0.000 N 
ATOM     19  C   UNL     1      51.484   7.554  15.585  0.00  0.00    +0.000 A 
ATOM     20  O   UNL     1      51.394   8.201  14.545  0.00  0.00    +0.000 OA
ATOM     21  C   UNL     1      50.416   6.748  16.150  0.00  0.00    +0.000 A 
ATOM     22  H   UNL     1      53.368   8.180  15.975  0.00  0.00    +0.000 HD
ENDBRANCH   9  12
ENDBRANCH   7  10
ENDBRANCH   1   7
BRANCH   4  23
ATOM     23  C   UNL     1      43.813   3.299  10.569  0.00  0.00    +0.000 C 
BRANCH  23  24
ATOM     24  O   UNL     1      43.285   2.373  11.521  0.00  0.00    +0.000 OA
ATOM     25  H   UNL     1      42.634   2.860  12.055  0.00  0.00    +0.000 HD
ENDBRANCH  23  24
BRANCH  23  26
ATOM     26  C   UNL     1      44.625   2.527   9.519  0.00  0.00    +0.000 C 
BRANCH  26  27
ATOM     27  C   UNL     1      44.874   3.367   8.266  0.00  0.00    +0.000 C 
BRANCH  27  28
ATOM     28  C   UNL     1      46.093   2.872   7.538  0.00  0.00    +0.000 C 
ATOM     29  N   UNL     1      46.656   1.729   7.833  0.00  0.00    +0.000 NA
ATOM     30  C   UNL     1      47.797   1.638   6.871  0.00  0.00    +0.000 C 
ATOM     31  C   UNL     1      47.523   2.691   5.790  0.00  0.00    +0.000 C 
ATOM     32  N   UNL     1      46.658   3.592   6.514  0.00  0.00    +0.000 N 
ATOM     33  H   UNL     1      46.065   4.217   5.982  0.00  0.00    +0.000 HD
ENDBRANCH  27  28
ENDBRANCH  26  27
ENDBRANCH  23  26
ENDBRANCH   4  23
TORSDOF 8
ENDMDL
MODEL 5
REMARK VINA RESULT:    -6.689      3.928      6.327
REMARK INTER + INTRA:         -10.886
REMARK INTER:                  -9.733
REMARK INTRA:                  -1.154
REMARK UNBOUND:                -1.265
REMARK  Name = 
REMARK  8 active torsions:
REMARK  status: ('A' for Active; 'I' for Inactive)
REMARK    1  A    between atoms: C_2  and  C_20
REMARK    2  A    between atoms: N_3  and  C_4
REMARK    3  A    between atoms: C_4  and  C_5
REMARK    4  A    between atoms: C_8  and  C_9
REMARK    5  A    between atoms: C_9  and  O_10
REMARK    6  A    between atoms: C_9  and  C_11
REMARK    7  A    between atoms: C_11  and  C_12
REMARK    8  A    between atoms: C_12  and  C_13
REMARK                            x       y       z     vdW  Elec       q    Type
REMARK                         _______ _______ _______ _____ _____    ______ ____
ROOT
ATOM      1  C   UNL     1      48.187   4.193  16.850  0.00  0.00    +0.000 A 
ATOM      2  C   UNL     1      47.343   3.859  15.786  0.00  0.00    +0.000 A 
ATOM      3  C   UNL     1      47.153   4.747  14.723  0.00  0.00    +0.000 A 
ATOM      4  C   UNL     1      47.802   5.993  14.690  0.00  0.00    +0.000 A 
ATOM      5  C   UNL     1      48.641   6.322  15.764  0.00  0.00    +0.000 A 
ATOM      6  C   UNL     1      48.839   5.432  16.825  0.00  0.00    +0.000 A 
ENDROOT
BRANCH   1   7
ATOM      7  C   UNL     1      48.399   3.234  17.991  0.00  0.00    +0.000 C 
BRANCH   7  10
ATOM      8  O   UNL     1      49.977   1.656  16.220  0.00  0.00    +0.000 OA
ATOM      9  C   UNL     1      50.488   2.127  17.231  0.00  0.00    +0.000 C 
ATOM     10  N   UNL     1      49.786   2.871  18.141  0.00  0.00    +0.000 N 
ATOM     11  H   UNL     1      50.289   3.377  18.860  0.00  0.00    +0.000 HD
BRANCH   9  12
ATOM     12  C   UNL     1      51.895   1.876  17.574  0.00  0.00    +0.000 A 
ATOM     13  C   UNL     1      52.371   0.579  17.698  0.00  0.00    +0.000 A 
ATOM     14  S   UNL     1      54.031   0.498  18.097  0.00  0.00    +0.000 S 
ATOM     15  C   UNL     1      54.175   2.195  18.086  0.00  0.00    +0.000 A 
ATOM     16  N   UNL     1      55.367   2.804  18.335  0.00  0.00    +0.000 NA
ATOM     17  C   UNL     1      55.330   4.094  18.258  0.00  0.00    +0.000 A 
ATOM     18  N   UNL     1      54.215   4.830  17.976  0.00  0.00    +0.000 N 
ATOM     19  C   UNL     1      52.976   4.265  17.809  0.00  0.00    +0.000 A 
ATOM     20  O   UNL     1      51.972   4.967  17.730  0.00  0.00    +0.000 OA
ATOM     21  C   UNL     1      52.968   2.812  17.819  0.00  0.00    +0.000 A 
ATOM     22  H   UNL     1      54.234   5.840  17.980  0.00  0.00    +0.000 HD
ENDBRANCH   9  12
ENDBRANCH   7  10
ENDBRANCH   1   7
BRANCH   4  23
ATOM     23  C   UNL     1      47.660   6.897  13.475  0.00  0.00    +0.000 C 
BRANCH  23  24
ATOM     24  O   UNL     1      46.936   8.085  13.800  0.00  0.00    +0.000 OA
ATOM     25  H   UNL     1      46.309   7.848  14.505  0.00  0.00    +0.000 HD
ENDBRANCH  23  24
BRANCH  23  26
ATOM     26  C   UNL     1      46.987   6.215  12.275  0.00  0.00    +0.000 C 
BRANCH  26  27
ATOM     27  C   UNL     1      45.783   7.013  11.773  0.00  0.00    +0.000 C 
BRANCH  27  28
ATOM     28  C   UNL     1      44.512   6.241  12.000  0.00  0.00    +0.000 C 
ATOM     29  N   UNL     1      44.198   5.761  13.176  0.00  0.00    +0.000 NA
ATOM     30  C   UNL     1      42.877   5.099  12.945  0.00  0.00    +0.000 C 
ATOM     31  C   UNL     1      42.369   5.627  11.598  0.00  0.00    +0.000 C 
ATOM     32  N   UNL     1      43.614   6.023  10.984  0.00  0.00    +0.000 N 
ATOM     33  H   UNL     1      43.581   6.688  10.221  0.00  0.00    +0.000 HD
ENDBRANCH  27  28
ENDBRANCH  26  27
ENDBRANCH  23  26
ENDBRANCH   4  23
TORSDOF 8
ENDMDL
MODEL 6
REMARK VINA RESULT:    -6.473      2.839      8.497
REMARK INTER + INTRA:         -10.575
REMARK INTER:                  -9.139
REMARK INTRA:                  -1.436
REMARK UNBOUND:                -1.265
REMARK  Name = 
REMARK  8 active torsions:
REMARK  status: ('A' for Active; 'I' for Inactive)
REMARK    1  A    between atoms: C_2  and  C_20
REMARK    2  A    between atoms: N_3  and  C_4
REMARK    3  A    between atoms: C_4  and  C_5
REMARK    4  A    between atoms: C_8  and  C_9
REMARK    5  A    between atoms: C_9  and  O_10
REMARK    6  A    between atoms: C_9  and  C_11
REMARK    7  A    between atoms: C_11  and  C_12
REMARK    8  A    between atoms: C_12  and  C_13
REMARK                            x       y       z     vdW  Elec       q    Type
REMARK                         _______ _______ _______ _____ _____    ______ ____
ROOT
ATOM      1  C   UNL     1      48.300   7.904  13.384  0.00  0.00    +0.000 A 
ATOM      2  C   UNL     1      47.765   8.893  14.215  0.00  0.00    +0.000 A 
ATOM      3  C   UNL     1      48.217   9.038  15.530  0.00  0.00    +0.000 A 
ATOM      4  C   UNL     1      49.218   8.200  16.053  0.00  0.00    +0.000 A 
ATOM      5  C   UNL     1      49.743   7.207  15.214  0.00  0.00    +0.000 A 
ATOM      6  C   UNL     1      49.298   7.066  13.895  0.00  0.00    +0.000 A 
ENDROOT
BRANCH   1   7
ATOM      7  C   UNL     1      47.820   7.753  11.965  0.00  0.00    +0.000 C 
BRANCH   7  10
ATOM      8  O   UNL     1      44.981   7.543  12.097  0.00  0.00    +0.000 OA
ATOM      9  C   UNL     1      45.652   6.548  11.841  0.00  0.00    +0.000 C 
ATOM     10  N   UNL     1      47.020   6.566  11.788  0.00  0.00    +0.000 N 
ATOM     11  H   UNL     1      47.512   5.767  11.406  0.00  0.00    +0.000 HD
BRANCH   9  12
ATOM     12  C   UNL     1      45.031   5.233  11.627  0.00  0.00    +0.000 A 
ATOM     13  C   UNL     1      44.358   4.593  12.658  0.00  0.00    +0.000 A 
ATOM     14  S   UNL     1      43.705   3.079  12.208  0.00  0.00    +0.000 S 
ATOM     15  C   UNL     1      44.274   3.244  10.611  0.00  0.00    +0.000 A 
ATOM     16  N   UNL     1      44.035   2.285   9.674  0.00  0.00    +0.000 NA
ATOM     17  C   UNL     1      44.498   2.564   8.499  0.00  0.00    +0.000 A 
ATOM     18  N   UNL     1      45.190   3.696   8.179  0.00  0.00    +0.000 N 
ATOM     19  C   UNL     1      45.532   4.645   9.110  0.00  0.00    +0.000 A 
ATOM     20  O   UNL     1      46.300   5.559   8.822  0.00  0.00    +0.000 OA
ATOM     21  C   UNL     1      44.982   4.417  10.435  0.00  0.00    +0.000 A 
ATOM     22  H   UNL     1      45.573   3.838   7.255  0.00  0.00    +0.000 HD
ENDBRANCH   9  12
ENDBRANCH   7  10
ENDBRANCH   1   7
BRANCH   4  23
ATOM     23  C   UNL     1      49.765   8.444  17.451  0.00  0.00    +0.000 C 
BRANCH  23  24
ATOM     24  O   UNL     1      50.944   9.251  17.408  0.00  0.00    +0.000 OA
ATOM     25  H   UNL     1      51.581   8.787  16.837  0.00  0.00    +0.000 HD
ENDBRANCH  23  24
BRANCH  23  26
ATOM     26  C   UNL     1      50.070   7.154  18.227  0.00  0.00    +0.000 C 
BRANCH  26  27
ATOM     27  C   UNL     1      48.813   6.574  18.875  0.00  0.00    +0.000 C 
BRANCH  27  28
ATOM     28  C   UNL     1      48.439   5.273  18.220  0.00  0.00    +0.000 C 
ATOM     29  N   UNL     1      49.016   4.145  18.546  0.00  0.00    +0.000 NA
ATOM     30  C   UNL     1      48.337   3.136  17.675  0.00  0.00    +0.000 C 
ATOM     31  C   UNL     1      47.075   3.822  17.138  0.00  0.00    +0.000 C 
ATOM     32  N   UNL     1      47.457   5.210  17.262  0.00  0.00    +0.000 N 
ATOM     33  H   UNL     1      46.724   5.908  17.278  0.00  0.00    +0.000 HD
ENDBRANCH  27  28
ENDBRANCH  26  27
ENDBRANCH  23  26
ENDBRANCH   4  23
TORSDOF 8
ENDMDL
MODEL 7
REMARK VINA RESULT:    -6.462      3.310      4.796
REMARK INTER + INTRA:         -10.561
REMARK INTER:                  -9.308
REMARK INTRA:                  -1.252
REMARK UNBOUND:                -1.265
REMARK  Name = 
REMARK  8 active torsions:
REMARK  status: ('A' for Active; 'I' for Inactive)
REMARK    1  A    between atoms: C_2  and  C_20
REMARK    2  A    between atoms: N_3  and  C_4
REMARK    3  A    between atoms: C_4  and  C_5
REMARK    4  A    between atoms: C_8  and  C_9
REMARK    5  A    between atoms: C_9  and  O_10
REMARK    6  A    between atoms: C_9  and  C_11
REMARK    7  A    between atoms: C_11  and  C_12
REMARK    8  A    between atoms: C_12  and  C_13
REMARK                            x       y       z     vdW  Elec       q    Type
REMARK                         _______ _______ _______ _____ _____    ______ ____
ROOT
ATOM      1  C   UNL     1      48.470   5.720  16.705  0.00  0.00    +0.000 A 
ATOM      2  C   UNL     1      47.683   4.582  16.502  0.00  0.00    +0.000 A 
ATOM      3  C   UNL     1      47.091   4.339  15.258  0.00  0.00    +0.000 A 
ATOM      4  C   UNL     1      47.268   5.225  14.181  0.00  0.00    +0.000 A 
ATOM      5  C   UNL     1      48.053   6.368  14.397  0.00  0.00    +0.000 A 
ATOM      6  C   UNL     1      48.653   6.608  15.637  0.00  0.00    +0.000 A 
ENDROOT
BRANCH   1   7
ATOM      7  C   UNL     1      49.115   5.978  18.040  0.00  0.00    +0.000 C 
BRANCH   7  10
ATOM      8  O   UNL     1      51.791   6.237  17.094  0.00  0.00    +0.000 OA
ATOM      9  C   UNL     1      51.492   5.292  17.817  0.00  0.00    +0.000 C 
ATOM     10  N   UNL     1      50.222   5.087  18.286  0.00  0.00    +0.000 N 
ATOM     11  H   UNL     1      50.067   4.398  19.012  0.00  0.00    +0.000 HD
BRANCH   9  12
ATOM     12  C   UNL     1      52.474   4.263  18.190  0.00  0.00    +0.000 A 
ATOM     13  C   UNL     1      53.656   4.614  18.827  0.00  0.00    +0.000 A 
ATOM     14  S   UNL     1      54.660   3.277  19.180  0.00  0.00    +0.000 S 
ATOM     15  C   UNL     1      53.535   2.183  18.520  0.00  0.00    +0.000 A 
ATOM     16  N   UNL     1      53.770   0.842  18.518  0.00  0.00    +0.000 NA
ATOM     17  C   UNL     1      52.811   0.135  18.015  0.00  0.00    +0.000 A 
ATOM     18  N   UNL     1      51.654   0.641  17.499  0.00  0.00    +0.000 N 
ATOM     19  C   UNL     1      51.413   1.988  17.396  0.00  0.00    +0.000 A 
ATOM     20  O   UNL     1      50.443   2.407  16.771  0.00  0.00    +0.000 OA
ATOM     21  C   UNL     1      52.428   2.831  18.005  0.00  0.00    +0.000 A 
ATOM     22  H   UNL     1      50.961   0.044  17.071  0.00  0.00    +0.000 HD
ENDBRANCH   9  12
ENDBRANCH   7  10
ENDBRANCH   1   7
BRANCH   4  23
ATOM     23  C   UNL     1      46.699   4.887  12.812  0.00  0.00    +0.000 C 
BRANCH  23  24
ATOM     24  O   UNL     1      46.123   6.042  12.196  0.00  0.00    +0.000 OA
ATOM     25  H   UNL     1      46.737   6.780  12.354  0.00  0.00    +0.000 HD
ENDBRANCH  23  24
BRANCH  23  26
ATOM     26  C   UNL     1      45.654   3.762  12.839  0.00  0.00    +0.000 C 
BRANCH  26  27
ATOM     27  C   UNL     1      44.397   4.139  12.055  0.00  0.00    +0.000 C 
BRANCH  27  28
ATOM     28  C   UNL     1      44.503   3.660  10.634  0.00  0.00    +0.000 C 
ATOM     29  N   UNL     1      44.754   4.480   9.646  0.00  0.00    +0.000 NA
ATOM     30  C   UNL     1      44.785   3.589   8.446  0.00  0.00    +0.000 C 
ATOM     31  C   UNL     1      44.902   2.158   8.985  0.00  0.00    +0.000 C 
ATOM     32  N   UNL     1      44.362   2.332  10.313  0.00  0.00    +0.000 N 
ATOM     33  H   UNL     1      44.589   1.640  11.016  0.00  0.00    +0.000 HD
ENDBRANCH  27  28
ENDBRANCH  26  27
ENDBRANCH  23  26
ENDBRANCH   4  23
TORSDOF 8
ENDMDL
MODEL 8
REMARK VINA RESULT:    -6.364      3.307      8.066
REMARK INTER + INTRA:         -10.419
REMARK INTER:                  -8.980
REMARK INTRA:                  -1.439
REMARK UNBOUND:                -1.265
REMARK  Name = 
REMARK  8 active torsions:
REMARK  status: ('A' for Active; 'I' for Inactive)
REMARK    1  A    between atoms: C_2  and  C_20
REMARK    2  A    between atoms: N_3  and  C_4
REMARK    3  A    between atoms: C_4  and  C_5
REMARK    4  A    between atoms: C_8  and  C_9
REMARK    5  A    between atoms: C_9  and  O_10
REMARK    6  A    between atoms: C_9  and  C_11
REMARK    7  A    between atoms: C_11  and  C_12
REMARK    8  A    between atoms: C_12  and  C_13
REMARK                            x       y       z     vdW  Elec       q    Type
REMARK                         _______ _______ _______ _____ _____    ______ ____
ROOT
ATOM      1  C   UNL     1      48.529   8.061  13.375  0.00  0.00    +0.000 A 
ATOM      2  C   UNL     1      47.871   8.927  14.254  0.00  0.00    +0.000 A 
ATOM      3  C   UNL     1      48.084   8.838  15.633  0.00  0.00    +0.000 A 
ATOM      4  C   UNL     1      48.963   7.882  16.174  0.00  0.00    +0.000 A 
ATOM      5  C   UNL     1      49.612   7.014  15.286  0.00  0.00    +0.000 A 
ATOM      6  C   UNL     1      49.406   7.107  13.905  0.00  0.00    +0.000 A 
ENDROOT
BRANCH   1   7
ATOM      7  C   UNL     1      48.307   8.161  11.890  0.00  0.00    +0.000 C 
BRANCH   7  10
ATOM      8  O   UNL     1      45.472   7.969  11.681  0.00  0.00    +0.000 OA
ATOM      9  C   UNL     1      46.173   7.043  11.288  0.00  0.00    +0.000 C 
ATOM     10  N   UNL     1      47.539   7.052  11.381  0.00  0.00    +0.000 N 
ATOM     11  H   UNL     1      48.074   6.347  10.889  0.00  0.00    +0.000 HD
BRANCH   9  12
ATOM     12  C   UNL     1      45.588   5.813  10.734  0.00  0.00    +0.000 A 
ATOM     13  C   UNL     1      45.796   5.469   9.406  0.00  0.00    +0.000 A 
ATOM     14  S   UNL     1      45.039   4.004   8.956  0.00  0.00    +0.000 S 
ATOM     15  C   UNL     1      44.434   3.766  10.531  0.00  0.00    +0.000 A 
ATOM     16  N   UNL     1      43.697   2.666  10.845  0.00  0.00    +0.000 NA
ATOM     17  C   UNL     1      43.337   2.606  12.086  0.00  0.00    +0.000 A 
ATOM     18  N   UNL     1      43.626   3.546  13.032  0.00  0.00    +0.000 N 
ATOM     19  C   UNL     1      44.287   4.713  12.740  0.00  0.00    +0.000 A 
ATOM     20  O   UNL     1      44.376   5.609  13.575  0.00  0.00    +0.000 OA
ATOM     21  C   UNL     1      44.774   4.806  11.375  0.00  0.00    +0.000 A 
ATOM     22  H   UNL     1      43.274   3.472  13.976  0.00  0.00    +0.000 HD
ENDBRANCH   9  12
ENDBRANCH   7  10
ENDBRANCH   1   7
BRANCH   4  23
ATOM     23  C   UNL     1      49.256   7.873  17.667  0.00  0.00    +0.000 C 
BRANCH  23  24
ATOM     24  O   UNL     1      50.504   7.232  17.941  0.00  0.00    +0.000 OA
ATOM     25  H   UNL     1      51.143   7.938  18.142  0.00  0.00    +0.000 HD
ENDBRANCH  23  24
BRANCH  23  26
ATOM     26  C   UNL     1      48.157   7.206  18.507  0.00  0.00    +0.000 C 
BRANCH  26  27
ATOM     27  C   UNL     1      48.650   5.915  19.161  0.00  0.00    +0.000 C 
BRANCH  27  28
ATOM     28  C   UNL     1      48.383   4.738  18.263  0.00  0.00    +0.000 C 
ATOM     29  N   UNL     1      49.333   4.178  17.560  0.00  0.00    +0.000 NA
ATOM     30  C   UNL     1      48.636   3.065  16.846  0.00  0.00    +0.000 C 
ATOM     31  C   UNL     1      47.293   2.881  17.563  0.00  0.00    +0.000 C 
ATOM     32  N   UNL     1      47.130   4.186  18.159  0.00  0.00    +0.000 N 
ATOM     33  H   UNL     1      46.497   4.278  18.943  0.00  0.00    +0.000 HD
ENDBRANCH  27  28
ENDBRANCH  26  27
ENDBRANCH  23  26
ENDBRANCH   4  23
TORSDOF 8
ENDMDL
MODEL 9
REMARK VINA RESULT:    -6.129      3.616      8.202
REMARK INTER + INTRA:         -10.081
REMARK INTER:                  -8.673
REMARK INTRA:                  -1.408
REMARK UNBOUND:                -1.265
REMARK  Name = 
REMARK  8 active torsions:
REMARK  status: ('A' for Active; 'I' for Inactive)
REMARK    1  A    between atoms: C_2  and  C_20
REMARK    2  A    between atoms: N_3  and  C_4
REMARK    3  A    between atoms: C_4  and  C_5
REMARK    4  A    between atoms: C_8  and  C_9
REMARK    5  A    between atoms: C_9  and  O_10
REMARK    6  A    between atoms: C_9  and  C_11
REMARK    7  A    between atoms: C_11  and  C_12
REMARK    8  A    between atoms: C_12  and  C_13
REMARK                            x       y       z     vdW  Elec       q    Type
REMARK                         _______ _______ _______ _____ _____    ______ ____
ROOT
ATOM      1  C   UNL     1      48.625   8.294  15.575  0.00  0.00    +0.000 A 
ATOM      2  C   UNL     1      48.186   8.863  16.774  0.00  0.00    +0.000 A 
ATOM      3  C   UNL     1      48.600   8.341  18.003  0.00  0.00    +0.000 A 
ATOM      4  C   UNL     1      49.466   7.235  18.070  0.00  0.00    +0.000 A 
ATOM      5  C   UNL     1      49.896   6.667  16.863  0.00  0.00    +0.000 A 
ATOM      6  C   UNL     1      49.490   7.194  15.632  0.00  0.00    +0.000 A 
ENDROOT
BRANCH   1   7
ATOM      7  C   UNL     1      48.188   8.861  14.251  0.00  0.00    +0.000 C 
BRANCH   7  10
ATOM      8  O   UNL     1      48.199   6.935  12.151  0.00  0.00    +0.000 OA
ATOM      9  C   UNL     1      47.144   7.217  12.710  0.00  0.00    +0.000 C 
ATOM     10  N   UNL     1      47.057   8.152  13.706  0.00  0.00    +0.000 N 
ATOM     11  H   UNL     1      46.203   8.222  14.247  0.00  0.00    +0.000 HD
BRANCH   9  12
ATOM     12  C   UNL     1      45.869   6.608  12.305  0.00  0.00    +0.000 A 
ATOM     13  C   UNL     1      44.875   7.376  11.715  0.00  0.00    +0.000 A 
ATOM     14  S   UNL     1      43.473   6.484  11.314  0.00  0.00    +0.000 S 
ATOM     15  C   UNL     1      44.161   5.035  11.889  0.00  0.00    +0.000 A 
ATOM     16  N   UNL     1      43.482   3.857  11.824  0.00  0.00    +0.000 NA
ATOM     17  C   UNL     1      44.145   2.838  12.266  0.00  0.00    +0.000 A 
ATOM     18  N   UNL     1      45.407   2.889  12.782  0.00  0.00    +0.000 N 
ATOM     19  C   UNL     1      46.093   4.066  12.951  0.00  0.00    +0.000 A 
ATOM     20  O   UNL     1      47.150   4.093  13.575  0.00  0.00    +0.000 OA
ATOM     21  C   UNL     1      45.424   5.237  12.411  0.00  0.00    +0.000 A 
ATOM     22  H   UNL     1      45.857   2.068  13.161  0.00  0.00    +0.000 HD
ENDBRANCH   9  12
ENDBRANCH   7  10
ENDBRANCH   1   7
BRANCH   4  23
ATOM     23  C   UNL     1      49.983   6.750  19.416  0.00  0.00    +0.000 C 
BRANCH  23  24
ATOM     24  O   UNL     1      51.092   5.863  19.251  0.00  0.00    +0.000 OA
ATOM     25  H   UNL     1      51.063   5.544  18.333  0.00  0.00    +0.000 HD
ENDBRANCH  23  24
BRANCH  23  26
ATOM     26  C   UNL     1      48.914   6.058  20.274  0.00  0.00    +0.000 C 
BRANCH  26  27
ATOM     27  C   UNL     1      49.067   4.537  20.251  0.00  0.00    +0.000 C 
BRANCH  27  28
ATOM     28  C   UNL     1      48.628   3.987  18.922  0.00  0.00    +0.000 C 
ATOM     29  N   UNL     1      49.433   3.284  18.167  0.00  0.00    +0.000 NA
ATOM     30  C   UNL     1      48.592   2.939  16.979  0.00  0.00    +0.000 C 
ATOM     31  C   UNL     1      47.143   3.224  17.391  0.00  0.00    +0.000 C 
ATOM     32  N   UNL     1      47.353   4.182  18.451  0.00  0.00    +0.000 N 
ATOM     33  H   UNL     1      46.609   4.324  19.122  0.00  0.00    +0.000 HD
ENDBRANCH  27  28
ENDBRANCH  26  27
ENDBRANCH  23  26
ENDBRANCH   4  23
TORSDOF 8
ENDMDL
