MODEL 1
REMARK VINA RESULT:    -6.429      0.000      0.000
REMARK INTER + INTRA:         -10.499
REMARK INTER:                  -9.435
REMARK INTRA:                  -1.064
REMARK UNBOUND:                -1.064
REMARK  Name = 
REMARK  9 active torsions:
REMARK  status: ('A' for Active; 'I' for Inactive)
REMARK    1  A    between atoms: C_1  and  O_2
REMARK    2  A    between atoms: O_2  and  C_3
REMARK    3  A    between atoms: C_10  and  C_11
REMARK    4  A    between atoms: N_13  and  C_14
REMARK    5  A    between atoms: C_14  and  C_15
REMARK    6  A    between atoms: C_18  and  N_19
REMARK    7  A    between atoms: N_19  and  C_20
REMARK    8  A    between atoms: C_20  and  C_21
REMARK    9  A    between atoms: C_21  and  N_22
REMARK                            x       y       z     vdW  Elec       q    Type
REMARK                         _______ _______ _______ _____ _____    ______ ____
ROOT
ATOM      1  C   UNL     1      47.753   3.679  17.152  0.00  0.00    +0.000 C 
ENDROOT
BRANCH   1   2
ATOM      2  C   UNL     1      47.628   4.402  15.839  0.00  0.00    +0.000 A 
ATOM      3  C   UNL     1      46.907   3.835  14.784  0.00  0.00    +0.000 A 
ATOM      4  C   UNL     1      46.648   4.572  13.623  0.00  0.00    +0.000 A 
ATOM      5  C   UNL     1      47.078   5.896  13.498  0.00  0.00    +0.000 A 
ATOM      6  C   UNL     1      47.925   6.400  14.492  0.00  0.00    +0.000 A 
ATOM      7  C   UNL     1      48.191   5.669  15.657  0.00  0.00    +0.000 A 
BRANCH   5   8
ATOM      8  N   UNL     1      46.810   6.701  12.378  0.00  0.00    +0.000 N 
ATOM      9  H   UNL     1      47.561   6.579  11.701  0.00  0.00    +0.000 HD
BRANCH   8  10
ATOM     10  C   UNL     1      45.487   6.570  11.738  0.00  0.00    +0.000 C 
BRANCH  10  11
ATOM     11  C   UNL     1      45.538   5.570  10.558  0.00  0.00    +0.000 C 
BRANCH  11  12
ATOM     12  N   UNL     1      44.226   5.121  10.040  0.00  0.00    +0.000 NA
ATOM     13  C   UNL     1      43.267   4.688  11.077  0.00  0.00    +0.000 C 
ATOM     14  C   UNL     1      43.549   3.305  11.696  0.00  0.00    +0.000 C 
ATOM     15  O   UNL     1      43.737   2.290  10.702  0.00  0.00    +0.000 OA
ATOM     16  C   UNL     1      44.761   2.668   9.774  0.00  0.00    +0.000 C 
ATOM     17  C   UNL     1      44.403   3.997   9.087  0.00  0.00    +0.000 C 
ENDBRANCH  11  12
ENDBRANCH  10  11
ENDBRANCH   8  10
ENDBRANCH   5   8
ENDBRANCH   1   2
BRANCH   1  20
ATOM     18  C   UNL     1      49.883   2.509  16.998  0.00  0.00    +0.000 C 
ATOM     19  O   UNL     1      49.417   1.765  16.136  0.00  0.00    +0.000 OA
ATOM     20  N   UNL     1      49.119   3.494  17.565  0.00  0.00    +0.000 N 
ATOM     21  H   UNL     1      49.506   4.124  18.254  0.00  0.00    +0.000 HD
BRANCH  18  29
ATOM     22  C   UNL     1      52.375   4.755  17.794  0.00  0.00    +0.000 A 
ATOM     23  N   UNL     1      53.517   5.386  18.134  0.00  0.00    +0.000 NA
ATOM     24  C   UNL     1      54.575   4.640  18.467  0.00  0.00    +0.000 A 
ATOM     25  N   UNL     1      54.638   3.314  18.506  0.00  0.00    +0.000 NA
ATOM     26  C   UNL     1      53.485   2.723  18.152  0.00  0.00    +0.000 A 
ATOM     27  S   UNL     1      53.383   1.029  18.154  0.00  0.00    +0.000 S 
ATOM     28  C   UNL     1      51.772   1.077  17.630  0.00  0.00    +0.000 A 
ATOM     29  C   UNL     1      51.274   2.363  17.451  0.00  0.00    +0.000 A 
ATOM     30  C   UNL     1      52.299   3.349  17.771  0.00  0.00    +0.000 A 
BRANCH  22  32
ATOM     31  C   UNL     1      50.949   6.491  18.444  0.00  0.00    +0.000 C 
ATOM     32  O   UNL     1      51.288   5.530  17.443  0.00  0.00    +0.000 OA
ENDBRANCH  22  32
ENDBRANCH  18  29
ENDBRANCH   1  20
TORSDOF 8
ENDMDL
MODEL 2
REMARK VINA RESULT:    -6.398      3.243      4.793
REMARK INTER + INTRA:         -10.454
REMARK INTER:                  -9.499
REMARK INTRA:                  -0.956
REMARK UNBOUND:                -1.064
REMARK  Name = 
REMARK  9 active torsions:
REMARK  status: ('A' for Active; 'I' for Inactive)
REMARK    1  A    between atoms: C_1  and  O_2
REMARK    2  A    between atoms: O_2  and  C_3
REMARK    3  A    between atoms: C_10  and  C_11
REMARK    4  A    between atoms: N_13  and  C_14
REMARK    5  A    between atoms: C_14  and  C_15
REMARK    6  A    between atoms: C_18  and  N_19
REMARK    7  A    between atoms: N_19  and  C_20
REMARK    8  A    between atoms: C_20  and  C_21
REMARK    9  A    between atoms: C_21  and  N_22
REMARK                            x       y       z     vdW  Elec       q    Type
REMARK                         _______ _______ _______ _____ _____    ______ ____
ROOT
ATOM      1  C   UNL     1      47.319   8.210  13.124  0.00  0.00    +0.000 C 
ENDROOT
BRANCH   1   2
ATOM      2  C   UNL     1      46.158   7.295  12.846  0.00  0.00    +0.000 A 
ATOM      3  C   UNL     1      45.216   7.623  11.866  0.00  0.00    +0.000 A 
ATOM      4  C   UNL     1      44.232   6.702  11.489  0.00  0.00    +0.000 A 
ATOM      5  C   UNL     1      44.182   5.427  12.060  0.00  0.00    +0.000 A 
ATOM      6  C   UNL     1      45.029   5.166  13.143  0.00  0.00    +0.000 A 
ATOM      7  C   UNL     1      46.016   6.082  13.527  0.00  0.00    +0.000 A 
BRANCH   5   8
ATOM      8  N   UNL     1      43.247   4.444  11.692  0.00  0.00    +0.000 N 
ATOM      9  H   UNL     1      42.805   4.723  10.818  0.00  0.00    +0.000 HD
BRANCH   8  10
ATOM     10  C   UNL     1      43.710   3.044  11.634  0.00  0.00    +0.000 C 
BRANCH  10  11
ATOM     11  C   UNL     1      44.826   2.871  10.576  0.00  0.00    +0.000 C 
BRANCH  11  12
ATOM     12  N   UNL     1      44.366   2.602   9.196  0.00  0.00    +0.000 NA
ATOM     13  C   UNL     1      45.012   1.444   8.543  0.00  0.00    +0.000 C 
ATOM     14  C   UNL     1      46.458   1.682   8.066  0.00  0.00    +0.000 C 
ATOM     15  O   UNL     1      46.582   2.866   7.269  0.00  0.00    +0.000 OA
ATOM     16  C   UNL     1      46.065   4.006   7.966  0.00  0.00    +0.000 C 
ATOM     17  C   UNL     1      44.588   3.790   8.334  0.00  0.00    +0.000 C 
ENDBRANCH  11  12
ENDBRANCH  10  11
ENDBRANCH   8  10
ENDBRANCH   5   8
ENDBRANCH   1   2
BRANCH   1  20
ATOM     18  C   UNL     1      48.934   7.549  14.822  0.00  0.00    +0.000 C 
ATOM     19  O   UNL     1      49.632   7.019  13.960  0.00  0.00    +0.000 OA
ATOM     20  N   UNL     1      47.755   8.165  14.494  0.00  0.00    +0.000 N 
ATOM     21  H   UNL     1      47.192   8.624  15.196  0.00  0.00    +0.000 HD
BRANCH  18  29
ATOM     22  C   UNL     1      48.863   5.146  17.295  0.00  0.00    +0.000 A 
ATOM     23  N   UNL     1      48.931   4.432  18.437  0.00  0.00    +0.000 NA
ATOM     24  C   UNL     1      49.423   5.029  19.526  0.00  0.00    +0.000 A 
ATOM     25  N   UNL     1      49.870   6.276  19.622  0.00  0.00    +0.000 NA
ATOM     26  C   UNL     1      49.777   6.957  18.469  0.00  0.00    +0.000 A 
ATOM     27  S   UNL     1      50.310   8.567  18.407  0.00  0.00    +0.000 S 
ATOM     28  C   UNL     1      49.881   8.697  16.772  0.00  0.00    +0.000 A 
ATOM     29  C   UNL     1      49.337   7.535  16.237  0.00  0.00    +0.000 A 
ATOM     30  C   UNL     1      49.282   6.490  17.252  0.00  0.00    +0.000 A 
BRANCH  22  32
ATOM     31  C   UNL     1      47.628   3.333  16.486  0.00  0.00    +0.000 C 
ATOM     32  O   UNL     1      48.346   4.528  16.175  0.00  0.00    +0.000 OA
ENDBRANCH  22  32
ENDBRANCH  18  29
ENDBRANCH   1  20
TORSDOF 8
ENDMDL
MODEL 3
REMARK VINA RESULT:    -6.370      2.714      8.767
REMARK INTER + INTRA:         -10.413
REMARK INTER:                  -9.193
REMARK INTRA:                  -1.220
REMARK UNBOUND:                -1.064
REMARK  Name = 
REMARK  9 active torsions:
REMARK  status: ('A' for Active; 'I' for Inactive)
REMARK    1  A    between atoms: C_1  and  O_2
REMARK    2  A    between atoms: O_2  and  C_3
REMARK    3  A    between atoms: C_10  and  C_11
REMARK    4  A    between atoms: N_13  and  C_14
REMARK    5  A    between atoms: C_14  and  C_15
REMARK    6  A    between atoms: C_18  and  N_19
REMARK    7  A    between atoms: N_19  and  C_20
REMARK    8  A    between atoms: C_20  and  C_21
REMARK    9  A    between atoms: C_21  and  N_22
REMARK                            x       y       z     vdW  Elec       q    Type
REMARK                         _______ _______ _______ _____ _____    ______ ____
ROOT
ATOM      1  C   UNL     1      47.169   3.277  16.942  0.00  0.00    +0.000 C 
ENDROOT
BRANCH   1   2
ATOM      2  C   UNL     1      48.577   3.307  17.471  0.00  0.00    +0.000 A 
ATOM      3  C   UNL     1      49.530   2.398  17.002  0.00  0.00    +0.000 A 
ATOM      4  C   UNL     1      50.875   2.527  17.365  0.00  0.00    +0.000 A 
ATOM      5  C   UNL     1      51.304   3.578  18.181  0.00  0.00    +0.000 A 
ATOM      6  C   UNL     1      50.323   4.388  18.766  0.00  0.00    +0.000 A 
ATOM      7  C   UNL     1      48.974   4.265  18.409  0.00  0.00    +0.000 A 
BRANCH   5   8
ATOM      8  N   UNL     1      52.645   3.786  18.545  0.00  0.00    +0.000 N 
ATOM      9  H   UNL     1      53.229   3.128  18.032  0.00  0.00    +0.000 HD
BRANCH   8  10
ATOM     10  C   UNL     1      53.177   5.160  18.449  0.00  0.00    +0.000 C 
BRANCH  10  11
ATOM     11  C   UNL     1      53.070   5.697  17.002  0.00  0.00    +0.000 C 
BRANCH  11  12
ATOM     12  N   UNL     1      53.079   7.171  16.862  0.00  0.00    +0.000 NA
ATOM     13  C   UNL     1      52.309   7.895  17.894  0.00  0.00    +0.000 C 
ATOM     14  C   UNL     1      50.778   7.842  17.729  0.00  0.00    +0.000 C 
ATOM     15  O   UNL     1      50.358   8.210  16.409  0.00  0.00    +0.000 OA
ATOM     16  C   UNL     1      51.020   7.412  15.421  0.00  0.00    +0.000 C 
ATOM     17  C   UNL     1      52.546   7.568  15.535  0.00  0.00    +0.000 C 
ENDBRANCH  11  12
ENDBRANCH  10  11
ENDBRANCH   8  10
ENDBRANCH   5   8
ENDBRANCH   1   2
BRANCH   1  20
ATOM     18  C   UNL     1      47.011   4.183  14.687  0.00  0.00    +0.000 C 
ATOM     19  O   UNL     1      47.374   3.104  14.223  0.00  0.00    +0.000 OA
ATOM     20  N   UNL     1      46.884   4.361  16.040  0.00  0.00    +0.000 N 
ATOM     21  H   UNL     1      46.560   5.238  16.423  0.00  0.00    +0.000 HD
BRANCH  18  29
ATOM     22  C   UNL     1      44.293   5.017  12.735  0.00  0.00    +0.000 A 
ATOM     23  N   UNL     1      43.405   5.571  11.885  0.00  0.00    +0.000 NA
ATOM     24  C   UNL     1      43.728   6.730  11.303  0.00  0.00    +0.000 A 
ATOM     25  N   UNL     1      44.849   7.422  11.467  0.00  0.00    +0.000 NA
ATOM     26  C   UNL     1      45.711   6.833  12.312  0.00  0.00    +0.000 A 
ATOM     27  S   UNL     1      47.195   7.586  12.645  0.00  0.00    +0.000 S 
ATOM     28  C   UNL     1      47.655   6.327  13.683  0.00  0.00    +0.000 A 
ATOM     29  C   UNL     1      46.703   5.321  13.807  0.00  0.00    +0.000 A 
ATOM     30  C   UNL     1      45.535   5.629  12.991  0.00  0.00    +0.000 A 
BRANCH  22  32
ATOM     31  C   UNL     1      43.613   2.808  12.377  0.00  0.00    +0.000 C 
ATOM     32  O   UNL     1      43.958   3.816  13.328  0.00  0.00    +0.000 OA
ENDBRANCH  22  32
ENDBRANCH  18  29
ENDBRANCH   1  20
TORSDOF 8
ENDMDL
MODEL 4
REMARK VINA RESULT:    -6.326      3.420      4.492
REMARK INTER + INTRA:         -10.349
REMARK INTER:                  -9.352
REMARK INTRA:                  -0.996
REMARK UNBOUND:                -1.064
REMARK  Name = 
REMARK  9 active torsions:
REMARK  status: ('A' for Active; 'I' for Inactive)
REMARK    1  A    between atoms: C_1  and  O_2
REMARK    2  A    between atoms: O_2  and  C_3
REMARK    3  A    between atoms: C_10  and  C_11
REMARK    4  A    between atoms: N_13  and  C_14
REMARK    5  A    between atoms: C_14  and  C_15
REMARK    6  A    between atoms: C_18  and  N_19
REMARK    7  A    between atoms: N_19  and  C_20
REMARK    8  A    between atoms: C_20  and  C_21
REMARK    9  A    between atoms: C_21  and  N_22
REMARK                            x       y       z     vdW  Elec       q    Type
REMARK                         _______ _______ _______ _____ _____    ______ ____
ROOT
ATOM      1  C   UNL     1      48.933   7.238  14.039  0.00  0.00    +0.000 C 
ENDROOT
BRANCH   1   2
ATOM      2  C   UNL     1      47.580   6.781  13.568  0.00  0.00    +0.000 A 
ATOM      3  C   UNL     1      47.139   5.481  13.831  0.00  0.00    +0.000 A 
ATOM      4  C   UNL     1      45.822   5.104  13.543  0.00  0.00    +0.000 A 
ATOM      5  C   UNL     1      44.910   6.021  13.012  0.00  0.00    +0.000 A 
ATOM      6  C   UNL     1      45.401   7.269  12.613  0.00  0.00    +0.000 A 
ATOM      7  C   UNL     1      46.718   7.654  12.897  0.00  0.00    +0.000 A 
BRANCH   5   8
ATOM      8  N   UNL     1      43.565   5.716  12.743  0.00  0.00    +0.000 N 
ATOM      9  H   UNL     1      42.979   6.184  13.433  0.00  0.00    +0.000 HD
BRANCH   8  10
ATOM     10  C   UNL     1      43.068   5.950  11.373  0.00  0.00    +0.000 C 
BRANCH  10  11
ATOM     11  C   UNL     1      43.428   4.768  10.442  0.00  0.00    +0.000 C 
BRANCH  11  12
ATOM     12  N   UNL     1      44.854   4.371  10.430  0.00  0.00    +0.000 NA
ATOM     13  C   UNL     1      45.592   4.754   9.209  0.00  0.00    +0.000 C 
ATOM     14  C   UNL     1      45.294   3.895   7.965  0.00  0.00    +0.000 C 
ATOM     15  O   UNL     1      45.414   2.492   8.229  0.00  0.00    +0.000 OA
ATOM     16  C   UNL     1      44.593   2.109   9.339  0.00  0.00    +0.000 C 
ATOM     17  C   UNL     1      44.984   2.902  10.598  0.00  0.00    +0.000 C 
ENDBRANCH  11  12
ENDBRANCH  10  11
ENDBRANCH   8  10
ENDBRANCH   5   8
ENDBRANCH   1   2
BRANCH   1  20
ATOM     18  C   UNL     1      48.975   7.960  16.364  0.00  0.00    +0.000 C 
ATOM     19  O   UNL     1      48.615   9.086  16.026  0.00  0.00    +0.000 OA
ATOM     20  N   UNL     1      49.163   6.972  15.434  0.00  0.00    +0.000 N 
ATOM     21  H   UNL     1      49.432   6.038  15.711  0.00  0.00    +0.000 HD
BRANCH  18  29
ATOM     22  C   UNL     1      48.516   5.124  18.272  0.00  0.00    +0.000 A 
ATOM     23  N   UNL     1      48.422   4.193  19.243  0.00  0.00    +0.000 NA
ATOM     24  C   UNL     1      48.820   4.525  20.475  0.00  0.00    +0.000 A 
ATOM     25  N   UNL     1      49.314   5.694  20.868  0.00  0.00    +0.000 NA
ATOM     26  C   UNL     1      49.382   6.596  19.876  0.00  0.00    +0.000 A 
ATOM     27  S   UNL     1      49.996   8.145  20.199  0.00  0.00    +0.000 S 
ATOM     28  C   UNL     1      49.757   8.628  18.592  0.00  0.00    +0.000 A 
ATOM     29  C   UNL     1      49.219   7.636  17.778  0.00  0.00    +0.000 A 
ATOM     30  C   UNL     1      49.002   6.416  18.547  0.00  0.00    +0.000 A 
BRANCH  22  32
ATOM     31  C   UNL     1      47.365   3.552  16.978  0.00  0.00    +0.000 C 
ATOM     32  O   UNL     1      48.096   4.779  17.003  0.00  0.00    +0.000 OA
ENDBRANCH  22  32
ENDBRANCH  18  29
ENDBRANCH   1  20
TORSDOF 8
ENDMDL
MODEL 5
REMARK VINA RESULT:    -6.149      2.825      4.542
REMARK INTER + INTRA:         -10.089
REMARK INTER:                  -9.029
REMARK INTRA:                  -1.059
REMARK UNBOUND:                -1.064
REMARK  Name = 
REMARK  9 active torsions:
REMARK  status: ('A' for Active; 'I' for Inactive)
REMARK    1  A    between atoms: C_1  and  O_2
REMARK    2  A    between atoms: O_2  and  C_3
REMARK    3  A    between atoms: C_10  and  C_11
REMARK    4  A    between atoms: N_13  and  C_14
REMARK    5  A    between atoms: C_14  and  C_15
REMARK    6  A    between atoms: C_18  and  N_19
REMARK    7  A    between atoms: N_19  and  C_20
REMARK    8  A    between atoms: C_20  and  C_21
REMARK    9  A    between atoms: C_21  and  N_22
REMARK                            x       y       z     vdW  Elec       q    Type
REMARK                         _______ _______ _______ _____ _____    ______ ____
ROOT
ATOM      1  C   UNL     1      48.190   8.939  13.787  0.00  0.00    +0.000 C 
ENDROOT
BRANCH   1   2
ATOM      2  C   UNL     1      46.879   8.521  13.179  0.00  0.00    +0.000 A 
ATOM      3  C   UNL     1      46.096   9.444  12.479  0.00  0.00    +0.000 A 
ATOM      4  C   UNL     1      44.964   9.024  11.773  0.00  0.00    +0.000 A 
ATOM      5  C   UNL     1      44.602   7.674  11.726  0.00  0.00    +0.000 A 
ATOM      6  C   UNL     1      45.301   6.786  12.551  0.00  0.00    +0.000 A 
ATOM      7  C   UNL     1      46.436   7.197  13.262  0.00  0.00    +0.000 A 
BRANCH   5   8
ATOM      8  N   UNL     1      43.503   7.186  10.999  0.00  0.00    +0.000 N 
ATOM      9  H   UNL     1      43.719   7.239  10.005  0.00  0.00    +0.000 HD
BRANCH   8  10
ATOM     10  C   UNL     1      42.977   5.855  11.361  0.00  0.00    +0.000 C 
BRANCH  10  11
ATOM     11  C   UNL     1      43.411   4.787  10.330  0.00  0.00    +0.000 C 
BRANCH  11  12
ATOM     12  N   UNL     1      44.828   4.365  10.400  0.00  0.00    +0.000 NA
ATOM     13  C   UNL     1      45.652   4.767   9.241  0.00  0.00    +0.000 C 
ATOM     14  C   UNL     1      45.423   3.947   7.957  0.00  0.00    +0.000 C 
ATOM     15  O   UNL     1      45.502   2.536   8.189  0.00  0.00    +0.000 OA
ATOM     16  C   UNL     1      44.604   2.138   9.232  0.00  0.00    +0.000 C 
ATOM     17  C   UNL     1      44.924   2.890  10.535  0.00  0.00    +0.000 C 
ENDBRANCH  11  12
ENDBRANCH  10  11
ENDBRANCH   8  10
ENDBRANCH   5   8
ENDBRANCH   1   2
BRANCH   1  20
ATOM     18  C   UNL     1      49.757   7.571  15.053  0.00  0.00    +0.000 C 
ATOM     19  O   UNL     1      50.575   7.655  14.139  0.00  0.00    +0.000 OA
ATOM     20  N   UNL     1      48.533   8.181  14.960  0.00  0.00    +0.000 N 
ATOM     21  H   UNL     1      47.869   8.137  15.720  0.00  0.00    +0.000 HD
BRANCH  18  29
ATOM     22  C   UNL     1      48.266   4.886  16.622  0.00  0.00    +0.000 A 
ATOM     23  N   UNL     1      47.891   3.887  17.446  0.00  0.00    +0.000 NA
ATOM     24  C   UNL     1      48.629   3.658  18.536  0.00  0.00    +0.000 A 
ATOM     25  N   UNL     1      49.720   4.313  18.915  0.00  0.00    +0.000 NA
ATOM     26  C   UNL     1      50.056   5.305  18.075  0.00  0.00    +0.000 A 
ATOM     27  S   UNL     1      51.433   6.243  18.401  0.00  0.00    +0.000 S 
ATOM     28  C   UNL     1      51.178   7.185  17.015  0.00  0.00    +0.000 A 
ATOM     29  C   UNL     1      50.061   6.812  16.276  0.00  0.00    +0.000 A 
ATOM     30  C   UNL     1      49.394   5.680  16.907  0.00  0.00    +0.000 A 
BRANCH  22  32
ATOM     31  C   UNL     1      47.149   3.926  14.805  0.00  0.00    +0.000 C 
ATOM     32  O   UNL     1      47.496   5.124  15.501  0.00  0.00    +0.000 OA
ENDBRANCH  22  32
ENDBRANCH  18  29
ENDBRANCH   1  20
TORSDOF 8
ENDMDL
MODEL 6
REMARK VINA RESULT:    -6.138      3.853      4.928
REMARK INTER + INTRA:         -10.072
REMARK INTER:                  -9.043
REMARK INTRA:                  -1.029
REMARK UNBOUND:                -1.064
REMARK  Name = 
REMARK  9 active torsions:
REMARK  status: ('A' for Active; 'I' for Inactive)
REMARK    1  A    between atoms: C_1  and  O_2
REMARK    2  A    between atoms: O_2  and  C_3
REMARK    3  A    between atoms: C_10  and  C_11
REMARK    4  A    between atoms: N_13  and  C_14
REMARK    5  A    between atoms: C_14  and  C_15
REMARK    6  A    between atoms: C_18  and  N_19
REMARK    7  A    between atoms: N_19  and  C_20
REMARK    8  A    between atoms: C_20  and  C_21
REMARK    9  A    between atoms: C_21  and  N_22
REMARK                            x       y       z     vdW  Elec       q    Type
REMARK                         _______ _______ _______ _____ _____    ______ ____
ROOT
ATOM      1  C   UNL     1      47.375   4.212  15.326  0.00  0.00    +0.000 C 
ENDROOT
BRANCH   1   2
ATOM      2  C   UNL     1      46.751   4.750  14.068  0.00  0.00    +0.000 A 
ATOM      3  C   UNL     1      47.336   5.823  13.389  0.00  0.00    +0.000 A 
ATOM      4  C   UNL     1      46.856   6.218  12.136  0.00  0.00    +0.000 A 
ATOM      5  C   UNL     1      45.802   5.537  11.520  0.00  0.00    +0.000 A 
ATOM      6  C   UNL     1      45.128   4.568  12.271  0.00  0.00    +0.000 A 
ATOM      7  C   UNL     1      45.600   4.167  13.527  0.00  0.00    +0.000 A 
BRANCH   5   8
ATOM      8  N   UNL     1      45.306   5.857  10.245  0.00  0.00    +0.000 N 
ATOM      9  H   UNL     1      45.967   6.478   9.782  0.00  0.00    +0.000 HD
BRANCH   8  10
ATOM     10  C   UNL     1      44.912   4.743   9.361  0.00  0.00    +0.000 C 
BRANCH  10  11
ATOM     11  C   UNL     1      46.024   4.432   8.331  0.00  0.00    +0.000 C 
BRANCH  11  12
ATOM     12  N   UNL     1      45.641   3.522   7.228  0.00  0.00    +0.000 NA
ATOM     13  C   UNL     1      45.254   2.161   7.654  0.00  0.00    +0.000 C 
ATOM     14  C   UNL     1      46.423   1.246   8.066  0.00  0.00    +0.000 C 
ATOM     15  O   UNL     1      47.462   1.208   7.080  0.00  0.00    +0.000 OA
ATOM     16  C   UNL     1      47.917   2.531   6.768  0.00  0.00    +0.000 C 
ATOM     17  C   UNL     1      46.753   3.394   6.253  0.00  0.00    +0.000 C 
ENDBRANCH  11  12
ENDBRANCH  10  11
ENDBRANCH   8  10
ENDBRANCH   5   8
ENDBRANCH   1   2
BRANCH   1  20
ATOM     18  C   UNL     1      48.454   5.577  17.029  0.00  0.00    +0.000 C 
ATOM     19  O   UNL     1      49.557   5.193  16.645  0.00  0.00    +0.000 OA
ATOM     20  N   UNL     1      47.305   5.133  16.428  0.00  0.00    +0.000 N 
ATOM     21  H   UNL     1      46.399   5.467  16.724  0.00  0.00    +0.000 HD
BRANCH  18  29
ATOM     22  C   UNL     1      49.034   8.960  17.365  0.00  0.00    +0.000 A 
ATOM     23  N   UNL     1      49.197  10.230  17.786  0.00  0.00    +0.000 NA
ATOM     24  C   UNL     1      48.914  10.514  19.061  0.00  0.00    +0.000 A 
ATOM     25  N   UNL     1      48.476   9.672  19.990  0.00  0.00    +0.000 NA
ATOM     26  C   UNL     1      48.336   8.416  19.535  0.00  0.00    +0.000 A 
ATOM     27  S   UNL     1      47.776   7.207  20.587  0.00  0.00    +0.000 S 
ATOM     28  C   UNL     1      47.881   6.032  19.371  0.00  0.00    +0.000 A 
ATOM     29  C   UNL     1      48.330   6.522  18.149  0.00  0.00    +0.000 A 
ATOM     30  C   UNL     1      48.594   7.953  18.246  0.00  0.00    +0.000 A 
BRANCH  22  32
ATOM     31  C   UNL     1      48.248   8.934  15.163  0.00  0.00    +0.000 C 
ATOM     32  O   UNL     1      49.335   8.669  16.050  0.00  0.00    +0.000 OA
ENDBRANCH  22  32
ENDBRANCH  18  29
ENDBRANCH   1  20
TORSDOF 8
ENDMDL
MODEL 7
REMARK VINA RESULT:    -6.132      6.054      7.507
REMARK INTER + INTRA:         -10.064
REMARK INTER:                  -9.223
REMARK INTRA:                  -0.841
REMARK UNBOUND:                -1.064
REMARK  Name = 
REMARK  9 active torsions:
REMARK  status: ('A' for Active; 'I' for Inactive)
REMARK    1  A    between atoms: C_1  and  O_2
REMARK    2  A    between atoms: O_2  and  C_3
REMARK    3  A    between atoms: C_10  and  C_11
REMARK    4  A    between atoms: N_13  and  C_14
REMARK    5  A    between atoms: C_14  and  C_15
REMARK    6  A    between atoms: C_18  and  N_19
REMARK    7  A    between atoms: N_19  and  C_20
REMARK    8  A    between atoms: C_20  and  C_21
REMARK    9  A    between atoms: C_21  and  N_22
REMARK                            x       y       z     vdW  Elec       q    Type
REMARK                         _______ _______ _______ _____ _____    ______ ____
ROOT
ATOM      1  C   UNL     1      50.943   8.344  11.012  0.00  0.00    +0.000 C 
ENDROOT
BRANCH   1   2
ATOM      2  C   UNL     1      49.837   7.870  11.915  0.00  0.00    +0.000 A 
ATOM      3  C   UNL     1      48.562   7.617  11.401  0.00  0.00    +0.000 A 
ATOM      4  C   UNL     1      47.580   7.020  12.198  0.00  0.00    +0.000 A 
ATOM      5  C   UNL     1      47.853   6.639  13.515  0.00  0.00    +0.000 A 
ATOM      6  C   UNL     1      49.079   7.034  14.064  0.00  0.00    +0.000 A 
ATOM      7  C   UNL     1      50.067   7.633  13.273  0.00  0.00    +0.000 A 
BRANCH   5   8
ATOM      8  N   UNL     1      46.924   5.996  14.350  0.00  0.00    +0.000 N 
ATOM      9  H   UNL     1      46.025   6.467  14.263  0.00  0.00    +0.000 HD
BRANCH   8  10
ATOM     10  C   UNL     1      46.775   4.534  14.216  0.00  0.00    +0.000 C 
BRANCH  10  11
ATOM     11  C   UNL     1      45.969   4.172  12.946  0.00  0.00    +0.000 C 
BRANCH  11  12
ATOM     12  N   UNL     1      44.501   4.102  13.115  0.00  0.00    +0.000 NA
ATOM     13  C   UNL     1      43.814   3.179  12.189  0.00  0.00    +0.000 C 
ATOM     14  C   UNL     1      43.670   3.688  10.741  0.00  0.00    +0.000 C 
ATOM     15  O   UNL     1      43.108   5.004  10.679  0.00  0.00    +0.000 OA
ATOM     16  C   UNL     1      43.860   5.920  11.484  0.00  0.00    +0.000 C 
ATOM     17  C   UNL     1      43.896   5.447  12.948  0.00  0.00    +0.000 C 
ENDBRANCH  11  12
ENDBRANCH  10  11
ENDBRANCH   8  10
ENDBRANCH   5   8
ENDBRANCH   1   2
BRANCH   1  20
ATOM     18  C   UNL     1      53.090   7.427  10.321  0.00  0.00    +0.000 C 
ATOM     19  O   UNL     1      53.642   8.486  10.614  0.00  0.00    +0.000 OA
ATOM     20  N   UNL     1      51.739   7.269  10.484  0.00  0.00    +0.000 N 
ATOM     21  H   UNL     1      51.287   6.392  10.270  0.00  0.00    +0.000 HD
BRANCH  18  29
ATOM     22  C   UNL     1      53.045   5.732   7.318  0.00  0.00    +0.000 A 
ATOM     23  N   UNL     1      53.229   4.893   6.279  0.00  0.00    +0.000 NA
ATOM     24  C   UNL     1      54.163   3.943   6.393  0.00  0.00    +0.000 A 
ATOM     25  N   UNL     1      54.955   3.722   7.436  0.00  0.00    +0.000 NA
ATOM     26  C   UNL     1      54.735   4.571   8.453  0.00  0.00    +0.000 A 
ATOM     27  S   UNL     1      55.666   4.438   9.865  0.00  0.00    +0.000 S 
ATOM     28  C   UNL     1      54.844   5.733  10.587  0.00  0.00    +0.000 A 
ATOM     29  C   UNL     1      53.860   6.296   9.782  0.00  0.00    +0.000 A 
ATOM     30  C   UNL     1      53.801   5.605   8.499  0.00  0.00    +0.000 A 
BRANCH  22  32
ATOM     31  C   UNL     1      52.572   7.913   6.620  0.00  0.00    +0.000 C 
ATOM     32  O   UNL     1      52.075   6.706   7.199  0.00  0.00    +0.000 OA
ENDBRANCH  22  32
ENDBRANCH  18  29
ENDBRANCH   1  20
TORSDOF 8
ENDMDL
MODEL 8
REMARK VINA RESULT:    -5.764      3.580      8.498
REMARK INTER + INTRA:          -9.523
REMARK INTER:                  -7.789
REMARK INTRA:                  -1.735
REMARK UNBOUND:                -1.064
REMARK  Name = 
REMARK  9 active torsions:
REMARK  status: ('A' for Active; 'I' for Inactive)
REMARK    1  A    between atoms: C_1  and  O_2
REMARK    2  A    between atoms: O_2  and  C_3
REMARK    3  A    between atoms: C_10  and  C_11
REMARK    4  A    between atoms: N_13  and  C_14
REMARK    5  A    between atoms: C_14  and  C_15
REMARK    6  A    between atoms: C_18  and  N_19
REMARK    7  A    between atoms: N_19  and  C_20
REMARK    8  A    between atoms: C_20  and  C_21
REMARK    9  A    between atoms: C_21  and  N_22
REMARK                            x       y       z     vdW  Elec       q    Type
REMARK                         _______ _______ _______ _____ _____    ______ ____
ROOT
ATOM      1  C   UNL     1      48.351   8.886  12.437  0.00  0.00    +0.000 C 
ENDROOT
BRANCH   1   2
ATOM      2  C   UNL     1      49.124   8.670  13.709  0.00  0.00    +0.000 A 
ATOM      3  C   UNL     1      48.557   8.988  14.947  0.00  0.00    +0.000 A 
ATOM      4  C   UNL     1      49.203   8.636  16.137  0.00  0.00    +0.000 A 
ATOM      5  C   UNL     1      50.413   7.937  16.121  0.00  0.00    +0.000 A 
ATOM      6  C   UNL     1      51.044   7.759  14.884  0.00  0.00    +0.000 A 
ATOM      7  C   UNL     1      50.405   8.109  13.688  0.00  0.00    +0.000 A 
BRANCH   5   8
ATOM      8  N   UNL     1      51.087   7.516  17.280  0.00  0.00    +0.000 N 
ATOM      9  H   UNL     1      51.324   8.336  17.836  0.00  0.00    +0.000 HD
BRANCH   8  10
ATOM     10  C   UNL     1      50.446   6.476  18.108  0.00  0.00    +0.000 C 
BRANCH  10  11
ATOM     11  C   UNL     1      50.386   5.126  17.356  0.00  0.00    +0.000 C 
BRANCH  11  12
ATOM     12  N   UNL     1      50.101   3.938  18.191  0.00  0.00    +0.000 NA
ATOM     13  C   UNL     1      49.965   2.672  17.440  0.00  0.00    +0.000 C 
ATOM     14  C   UNL     1      48.642   2.506  16.669  0.00  0.00    +0.000 C 
ATOM     15  O   UNL     1      47.495   2.750  17.493  0.00  0.00    +0.000 OA
ATOM     16  C   UNL     1      47.580   4.036  18.117  0.00  0.00    +0.000 C 
ATOM     17  C   UNL     1      48.855   4.139  18.971  0.00  0.00    +0.000 C 
ENDBRANCH  11  12
ENDBRANCH  10  11
ENDBRANCH   8  10
ENDBRANCH   5   8
ENDBRANCH   1   2
BRANCH   1  20
ATOM     18  C   UNL     1      46.090   7.984  12.450  0.00  0.00    +0.000 C 
ATOM     19  O   UNL     1      45.673   9.023  12.959  0.00  0.00    +0.000 OA
ATOM     20  N   UNL     1      47.419   7.827  12.158  0.00  0.00    +0.000 N 
ATOM     21  H   UNL     1      47.760   6.986  11.716  0.00  0.00    +0.000 HD
BRANCH  18  29
ATOM     22  C   UNL     1      46.264   4.567  12.883  0.00  0.00    +0.000 A 
ATOM     23  N   UNL     1      46.072   3.233  12.902  0.00  0.00    +0.000 NA
ATOM     24  C   UNL     1      44.928   2.753  12.404  0.00  0.00    +0.000 A 
ATOM     25  N   UNL     1      43.928   3.453  11.880  0.00  0.00    +0.000 NA
ATOM     26  C   UNL     1      44.161   4.775  11.870  0.00  0.00    +0.000 A 
ATOM     27  S   UNL     1      42.983   5.824  11.242  0.00  0.00    +0.000 S 
ATOM     28  C   UNL     1      43.954   7.178  11.553  0.00  0.00    +0.000 A 
ATOM     29  C   UNL     1      45.176   6.874  12.141  0.00  0.00    +0.000 A 
ATOM     30  C   UNL     1      45.297   5.434  12.338  0.00  0.00    +0.000 A 
BRANCH  22  32
ATOM     31  C   UNL     1      47.375   5.347  14.787  0.00  0.00    +0.000 C 
ATOM     32  O   UNL     1      47.450   5.058  13.390  0.00  0.00    +0.000 OA
ENDBRANCH  22  32
ENDBRANCH  18  29
ENDBRANCH   1  20
TORSDOF 8
ENDMDL
MODEL 9
REMARK VINA RESULT:    -5.384      3.167      9.830
REMARK INTER + INTRA:          -8.966
REMARK INTER:                  -7.982
REMARK INTRA:                  -0.984
REMARK UNBOUND:                -1.064
REMARK  Name = 
REMARK  9 active torsions:
REMARK  status: ('A' for Active; 'I' for Inactive)
REMARK    1  A    between atoms: C_1  and  O_2
REMARK    2  A    between atoms: O_2  and  C_3
REMARK    3  A    between atoms: C_10  and  C_11
REMARK    4  A    between atoms: N_13  and  C_14
REMARK    5  A    between atoms: C_14  and  C_15
REMARK    6  A    between atoms: C_18  and  N_19
REMARK    7  A    between atoms: N_19  and  C_20
REMARK    8  A    between atoms: C_20  and  C_21
REMARK    9  A    between atoms: C_21  and  N_22
REMARK                            x       y       z     vdW  Elec       q    Type
REMARK                         _______ _______ _______ _____ _____    ______ ____
ROOT
ATOM      1  C   UNL     1      47.408   3.442  16.785  0.00  0.00    +0.000 C 
ENDROOT
BRANCH   1   2
ATOM      2  C   UNL     1      48.862   3.468  17.169  0.00  0.00    +0.000 A 
ATOM      3  C   UNL     1      49.416   4.602  17.770  0.00  0.00    +0.000 A 
ATOM      4  C   UNL     1      50.719   4.572  18.278  0.00  0.00    +0.000 A 
ATOM      5  C   UNL     1      51.488   3.406  18.224  0.00  0.00    +0.000 A 
ATOM      6  C   UNL     1      50.981   2.328  17.488  0.00  0.00    +0.000 A 
ATOM      7  C   UNL     1      49.679   2.350  16.975  0.00  0.00    +0.000 A 
BRANCH   5   8
ATOM      8  N   UNL     1      52.784   3.300  18.757  0.00  0.00    +0.000 N 
ATOM      9  H   UNL     1      52.739   2.770  19.625  0.00  0.00    +0.000 HD
BRANCH   8  10
ATOM     10  C   UNL     1      53.850   2.788  17.873  0.00  0.00    +0.000 C 
BRANCH  10  11
ATOM     11  C   UNL     1      54.566   1.575  18.512  0.00  0.00    +0.000 C 
BRANCH  11  12
ATOM     12  N   UNL     1      53.865   0.277  18.386  0.00  0.00    +0.000 NA
ATOM     13  C   UNL     1      54.509  -0.846  19.100  0.00  0.00    +0.000 C 
ATOM     14  C   UNL     1      55.775  -1.410  18.428  0.00  0.00    +0.000 C 
ATOM     15  O   UNL     1      55.566  -1.722  17.045  0.00  0.00    +0.000 OA
ATOM     16  C   UNL     1      55.060  -0.584  16.336  0.00  0.00    +0.000 C 
ATOM     17  C   UNL     1      53.737  -0.106  16.958  0.00  0.00    +0.000 C 
ENDBRANCH  11  12
ENDBRANCH  10  11
ENDBRANCH   8  10
ENDBRANCH   5   8
ENDBRANCH   1   2
BRANCH   1  20
ATOM     18  C   UNL     1      46.988   4.304  14.547  0.00  0.00    +0.000 C 
ATOM     19  O   UNL     1      47.258   3.204  14.067  0.00  0.00    +0.000 OA
ATOM     20  N   UNL     1      47.040   4.514  15.899  0.00  0.00    +0.000 N 
ATOM     21  H   UNL     1      46.793   5.409  16.299  0.00  0.00    +0.000 HD
BRANCH  18  29
ATOM     22  C   UNL     1      44.214   4.982  12.613  0.00  0.00    +0.000 A 
ATOM     23  N   UNL     1      43.288   5.489  11.774  0.00  0.00    +0.000 NA
ATOM     24  C   UNL     1      43.531   6.675  11.208  0.00  0.00    +0.000 A 
ATOM     25  N   UNL     1      44.604   7.438  11.380  0.00  0.00    +0.000 NA
ATOM     26  C   UNL     1      45.506   6.896  12.214  0.00  0.00    +0.000 A 
ATOM     27  S   UNL     1      46.938   7.741  12.556  0.00  0.00    +0.000 S 
ATOM     28  C   UNL     1      47.484   6.500  13.573  0.00  0.00    +0.000 A 
ATOM     29  C   UNL     1      46.602   5.431  13.684  0.00  0.00    +0.000 A 
ATOM     30  C   UNL     1      45.413   5.673  12.876  0.00  0.00    +0.000 A 
BRANCH  22  32
ATOM     31  C   UNL     1      43.500   2.786  12.245  0.00  0.00    +0.000 C 
ATOM     32  O   UNL     1      43.962   3.753  13.189  0.00  0.00    +0.000 OA
ENDBRANCH  22  32
ENDBRANCH  18  29
ENDBRANCH   1  20
TORSDOF 8
ENDMDL
