MODEL 1
REMARK VINA RESULT:    -7.737      0.000      0.000
REMARK INTER + INTRA:         -11.787
REMARK INTER:                 -10.903
REMARK INTRA:                  -0.883
REMARK UNBOUND:                -0.883
REMARK  Name = 
REMARK  7 active torsions:
REMARK  status: ('A' for Active; 'I' for Inactive)
REMARK    1  A    between atoms: C_2  and  C_19
REMARK    2  A    between atoms: N_3  and  C_4
REMARK    3  A    between atoms: C_4  and  C_5
REMARK    4  A    between atoms: C_8  and  C_9
REMARK    5  A    between atoms: C_9  and  C_10
REMARK    6  A    between atoms: C_10  and  C_11
REMARK    7  A    between atoms: C_11  and  N_12
REMARK                            x       y       z     vdW  Elec       q    Type
REMARK                         _______ _______ _______ _____ _____    ______ ____
ROOT
ATOM      1  O   UNL     1      49.679   7.036  14.056  0.00  0.00    +0.000 OA
ATOM      2  C   UNL     1      48.695   6.866  14.768  0.00  0.00    +0.000 C 
ATOM      3  N   UNL     1      47.420   7.179  14.374  0.00  0.00    +0.000 N 
ATOM      4  H   UNL     1      46.648   6.991  14.998  0.00  0.00    +0.000 HD
ENDROOT
BRANCH   2   5
ATOM      5  C   UNL     1      48.802   6.367  16.138  0.00  0.00    +0.000 A 
ATOM      6  C   UNL     1      49.388   7.133  17.134  0.00  0.00    +0.000 A 
ATOM      7  S   UNL     1      49.365   6.373  18.663  0.00  0.00    +0.000 S 
ATOM      8  C   UNL     1      48.615   4.982  18.028  0.00  0.00    +0.000 A 
ATOM      9  N   UNL     1      48.305   3.922  18.821  0.00  0.00    +0.000 NA
ATOM     10  C   UNL     1      47.774   2.923  18.195  0.00  0.00    +0.000 A 
ATOM     11  N   UNL     1      47.529   2.882  16.847  0.00  0.00    +0.000 N 
ATOM     12  C   UNL     1      47.799   3.943  16.007  0.00  0.00    +0.000 A 
ATOM     13  O   UNL     1      47.515   3.893  14.817  0.00  0.00    +0.000 OA
ATOM     14  C   UNL     1      48.391   5.093  16.670  0.00  0.00    +0.000 A 
ATOM     15  H   UNL     1      47.106   2.072  16.419  0.00  0.00    +0.000 HD
ENDBRANCH   2   5
BRANCH   3  16
ATOM     16  C   UNL     1      47.084   7.558  13.029  0.00  0.00    +0.000 C 
BRANCH  16  17
ATOM     17  C   UNL     1      46.275   6.496  12.358  0.00  0.00    +0.000 A 
ATOM     18  C   UNL     1      46.176   6.434  10.967  0.00  0.00    +0.000 A 
ATOM     19  C   UNL     1      45.417   5.432  10.374  0.00  0.00    +0.000 A 
ATOM     20  C   UNL     1      44.763   4.517  11.193  0.00  0.00    +0.000 A 
ATOM     21  N   UNL     1      44.822   4.571  12.545  0.00  0.00    +0.000 NA
ATOM     22  C   UNL     1      45.563   5.558  13.093  0.00  0.00    +0.000 A 
BRANCH  20  23
ATOM     23  C   UNL     1      43.971   3.384  10.596  0.00  0.00    +0.000 C 
BRANCH  23  24
ATOM     24  C   UNL     1      44.381   3.075   9.152  0.00  0.00    +0.000 C 
BRANCH  24  25
ATOM     25  C   UNL     1      45.572   2.109   9.040  0.00  0.00    +0.000 C 
BRANCH  25  26
ATOM     26  N   UNL     1      45.980   1.881   7.650  0.00  0.00    +0.000 NA
ATOM     27  C   UNL     1      46.647   3.033   7.052  0.00  0.00    +0.000 C 
ATOM     28  C   UNL     1      48.010   2.562   6.596  0.00  0.00    +0.000 C 
ATOM     29  O   UNL     1      48.182   1.231   7.069  0.00  0.00    +0.000 OA
ATOM     30  C   UNL     1      46.914   0.771   7.522  0.00  0.00    +0.000 C 
ENDBRANCH  25  26
ENDBRANCH  24  25
ENDBRANCH  23  24
ENDBRANCH  20  23
ENDBRANCH  16  17
ENDBRANCH   3  16
TORSDOF 7
ENDMDL
MODEL 2
REMARK VINA RESULT:    -7.448      2.951      7.999
REMARK INTER + INTRA:         -11.379
REMARK INTER:                 -10.238
REMARK INTRA:                  -1.140
REMARK UNBOUND:                -0.883
REMARK  Name = 
REMARK  7 active torsions:
REMARK  status: ('A' for Active; 'I' for Inactive)
REMARK    1  A    between atoms: C_2  and  C_19
REMARK    2  A    between atoms: N_3  and  C_4
REMARK    3  A    between atoms: C_4  and  C_5
REMARK    4  A    between atoms: C_8  and  C_9
REMARK    5  A    between atoms: C_9  and  C_10
REMARK    6  A    between atoms: C_10  and  C_11
REMARK    7  A    between atoms: C_11  and  N_12
REMARK                            x       y       z     vdW  Elec       q    Type
REMARK                         _______ _______ _______ _____ _____    ______ ____
ROOT
ATOM      1  O   UNL     1      44.631   7.534  11.474  0.00  0.00    +0.000 OA
ATOM      2  C   UNL     1      45.325   6.523  11.526  0.00  0.00    +0.000 C 
ATOM      3  N   UNL     1      46.679   6.552  11.732  0.00  0.00    +0.000 N 
ATOM      4  H   UNL     1      47.191   5.683  11.791  0.00  0.00    +0.000 HD
ENDROOT
BRANCH   2   5
ATOM      5  C   UNL     1      44.771   5.188  11.310  0.00  0.00    +0.000 A 
ATOM      6  C   UNL     1      44.012   4.562  12.286  0.00  0.00    +0.000 A 
ATOM      7  S   UNL     1      43.431   3.031  11.804  0.00  0.00    +0.000 S 
ATOM      8  C   UNL     1      44.216   3.140  10.297  0.00  0.00    +0.000 A 
ATOM      9  N   UNL     1      44.127   2.141   9.379  0.00  0.00    +0.000 NA
ATOM     10  C   UNL     1      44.805   2.346   8.298  0.00  0.00    +0.000 A 
ATOM     11  N   UNL     1      45.572   3.456   8.050  0.00  0.00    +0.000 N 
ATOM     12  C   UNL     1      45.670   4.508   8.937  0.00  0.00    +0.000 A 
ATOM     13  O   UNL     1      46.318   5.509   8.660  0.00  0.00    +0.000 OA
ATOM     14  C   UNL     1      44.916   4.324  10.167  0.00  0.00    +0.000 A 
ATOM     15  H   UNL     1      46.074   3.558   7.181  0.00  0.00    +0.000 HD
ENDBRANCH   2   5
BRANCH   3  16
ATOM     16  C   UNL     1      47.393   7.745  12.094  0.00  0.00    +0.000 C 
BRANCH  16  17
ATOM     17  C   UNL     1      48.355   7.480  13.207  0.00  0.00    +0.000 A 
ATOM     18  C   UNL     1      49.593   8.122  13.260  0.00  0.00    +0.000 A 
ATOM     19  C   UNL     1      50.464   7.855  14.310  0.00  0.00    +0.000 A 
ATOM     20  C   UNL     1      50.076   6.938  15.282  0.00  0.00    +0.000 A 
ATOM     21  N   UNL     1      48.891   6.282  15.238  0.00  0.00    +0.000 NA
ATOM     22  C   UNL     1      48.069   6.558  14.205  0.00  0.00    +0.000 A 
BRANCH  20  23
ATOM     23  C   UNL     1      50.963   6.654  16.464  0.00  0.00    +0.000 C 
BRANCH  23  24
ATOM     24  C   UNL     1      50.338   5.652  17.442  0.00  0.00    +0.000 C 
BRANCH  24  25
ATOM     25  C   UNL     1      51.141   4.349  17.589  0.00  0.00    +0.000 C 
BRANCH  25  26
ATOM     26  N   UNL     1      50.283   3.187  17.844  0.00  0.00    +0.000 NA
ATOM     27  C   UNL     1      48.866   3.464  17.631  0.00  0.00    +0.000 C 
ATOM     28  C   UNL     1      48.379   2.478  16.593  0.00  0.00    +0.000 C 
ATOM     29  O   UNL     1      49.516   1.775  16.105  0.00  0.00    +0.000 OA
ATOM     30  C   UNL     1      50.602   2.061  16.978  0.00  0.00    +0.000 C 
ENDBRANCH  25  26
ENDBRANCH  24  25
ENDBRANCH  23  24
ENDBRANCH  20  23
ENDBRANCH  16  17
ENDBRANCH   3  16
TORSDOF 7
ENDMDL
MODEL 3
REMARK VINA RESULT:    -7.038      1.582      1.869
REMARK INTER + INTRA:         -10.802
REMARK INTER:                  -9.932
REMARK INTRA:                  -0.870
REMARK UNBOUND:                -0.883
REMARK  Name = 
REMARK  7 active torsions:
REMARK  status: ('A' for Active; 'I' for Inactive)
REMARK    1  A    between atoms: C_2  and  C_19
REMARK    2  A    between atoms: N_3  and  C_4
REMARK    3  A    between atoms: C_4  and  C_5
REMARK    4  A    between atoms: C_8  and  C_9
REMARK    5  A    between atoms: C_9  and  C_10
REMARK    6  A    between atoms: C_10  and  C_11
REMARK    7  A    between atoms: C_11  and  N_12
REMARK                            x       y       z     vdW  Elec       q    Type
REMARK                         _______ _______ _______ _____ _____    ______ ____
ROOT
ATOM      1  O   UNL     1      50.428   6.747  15.461  0.00  0.00    +0.000 OA
ATOM      2  C   UNL     1      49.247   6.811  15.786  0.00  0.00    +0.000 C 
ATOM      3  N   UNL     1      48.224   6.924  14.881  0.00  0.00    +0.000 N 
ATOM      4  H   UNL     1      47.269   6.946  15.211  0.00  0.00    +0.000 HD
ENDROOT
BRANCH   2   5
ATOM      5  C   UNL     1      48.825   6.834  17.185  0.00  0.00    +0.000 A 
ATOM      6  C   UNL     1      48.340   7.996  17.766  0.00  0.00    +0.000 A 
ATOM      7  S   UNL     1      47.865   7.783  19.392  0.00  0.00    +0.000 S 
ATOM      8  C   UNL     1      48.336   6.147  19.379  0.00  0.00    +0.000 A 
ATOM      9  N   UNL     1      48.196   5.362  20.481  0.00  0.00    +0.000 NA
ATOM     10  C   UNL     1      48.631   4.153  20.335  0.00  0.00    +0.000 A 
ATOM     11  N   UNL     1      49.201   3.656  19.191  0.00  0.00    +0.000 N 
ATOM     12  C   UNL     1      49.337   4.404  18.041  0.00  0.00    +0.000 A 
ATOM     13  O   UNL     1      49.799   3.911  17.019  0.00  0.00    +0.000 OA
ATOM     14  C   UNL     1      48.855   5.770  18.156  0.00  0.00    +0.000 A 
ATOM     15  H   UNL     1      49.516   2.699  19.141  0.00  0.00    +0.000 HD
ENDBRANCH   2   5
BRANCH   3  16
ATOM     16  C   UNL     1      48.412   6.789  13.462  0.00  0.00    +0.000 C 
BRANCH  16  17
ATOM     17  C   UNL     1      47.219   6.160  12.818  0.00  0.00    +0.000 A 
ATOM     18  C   UNL     1      46.738   6.615  11.590  0.00  0.00    +0.000 A 
ATOM     19  C   UNL     1      45.628   6.006  11.017  0.00  0.00    +0.000 A 
ATOM     20  C   UNL     1      45.016   4.958  11.696  0.00  0.00    +0.000 A 
ATOM     21  N   UNL     1      45.448   4.516  12.902  0.00  0.00    +0.000 NA
ATOM     22  C   UNL     1      46.525   5.129  13.436  0.00  0.00    +0.000 A 
BRANCH  20  23
ATOM     23  C   UNL     1      43.842   4.234  11.092  0.00  0.00    +0.000 C 
BRANCH  23  24
ATOM     24  C   UNL     1      44.178   2.792  10.699  0.00  0.00    +0.000 C 
BRANCH  24  25
ATOM     25  C   UNL     1      44.392   2.596   9.189  0.00  0.00    +0.000 C 
BRANCH  25  26
ATOM     26  N   UNL     1      45.778   2.845   8.781  0.00  0.00    +0.000 NA
ATOM     27  C   UNL     1      46.333   1.777   7.956  0.00  0.00    +0.000 C 
ATOM     28  C   UNL     1      46.773   2.413   6.656  0.00  0.00    +0.000 C 
ATOM     29  O   UNL     1      46.330   3.765   6.670  0.00  0.00    +0.000 OA
ATOM     30  C   UNL     1      45.916   4.064   7.998  0.00  0.00    +0.000 C 
ENDBRANCH  25  26
ENDBRANCH  24  25
ENDBRANCH  23  24
ENDBRANCH  20  23
ENDBRANCH  16  17
ENDBRANCH   3  16
TORSDOF 7
ENDMDL
MODEL 4
REMARK VINA RESULT:    -6.457      3.793      8.905
REMARK INTER + INTRA:          -9.982
REMARK INTER:                  -8.577
REMARK INTRA:                  -1.406
REMARK UNBOUND:                -0.883
REMARK  Name = 
REMARK  7 active torsions:
REMARK  status: ('A' for Active; 'I' for Inactive)
REMARK    1  A    between atoms: C_2  and  C_19
REMARK    2  A    between atoms: N_3  and  C_4
REMARK    3  A    between atoms: C_4  and  C_5
REMARK    4  A    between atoms: C_8  and  C_9
REMARK    5  A    between atoms: C_9  and  C_10
REMARK    6  A    between atoms: C_10  and  C_11
REMARK    7  A    between atoms: C_11  and  N_12
REMARK                            x       y       z     vdW  Elec       q    Type
REMARK                         _______ _______ _______ _____ _____    ______ ____
ROOT
ATOM      1  O   UNL     1      47.363   3.304  13.641  0.00  0.00    +0.000 OA
ATOM      2  C   UNL     1      46.806   4.265  14.163  0.00  0.00    +0.000 C 
ATOM      3  N   UNL     1      46.676   4.413  15.519  0.00  0.00    +0.000 N 
ATOM      4  H   UNL     1      46.230   5.241  15.887  0.00  0.00    +0.000 HD
ENDROOT
BRANCH   2   5
ATOM      5  C   UNL     1      46.171   5.319  13.373  0.00  0.00    +0.000 A 
ATOM      6  C   UNL     1      46.797   6.539  13.176  0.00  0.00    +0.000 A 
ATOM      7  S   UNL     1      45.897   7.602  12.188  0.00  0.00    +0.000 S 
ATOM      8  C   UNL     1      44.625   6.479  12.036  0.00  0.00    +0.000 A 
ATOM      9  N   UNL     1      43.515   6.762  11.303  0.00  0.00    +0.000 NA
ATOM     10  C   UNL     1      42.618   5.832  11.308  0.00  0.00    +0.000 A 
ATOM     11  N   UNL     1      42.724   4.644  11.985  0.00  0.00    +0.000 N 
ATOM     12  C   UNL     1      43.841   4.299  12.717  0.00  0.00    +0.000 A 
ATOM     13  O   UNL     1      43.925   3.206  13.263  0.00  0.00    +0.000 OA
ATOM     14  C   UNL     1      44.881   5.314  12.733  0.00  0.00    +0.000 A 
ATOM     15  H   UNL     1      41.988   3.955  11.945  0.00  0.00    +0.000 HD
ENDBRANCH   2   5
BRANCH   3  16
ATOM     16  C   UNL     1      47.339   3.562  16.469  0.00  0.00    +0.000 C 
BRANCH  16  17
ATOM     17  C   UNL     1      47.996   4.365  17.544  0.00  0.00    +0.000 A 
ATOM     18  C   UNL     1      47.251   5.196  18.382  0.00  0.00    +0.000 A 
ATOM     19  C   UNL     1      47.893   5.928  19.374  0.00  0.00    +0.000 A 
ATOM     20  C   UNL     1      49.274   5.817  19.498  0.00  0.00    +0.000 A 
ATOM     21  N   UNL     1      50.022   5.037  18.681  0.00  0.00    +0.000 NA
ATOM     22  C   UNL     1      49.373   4.342  17.723  0.00  0.00    +0.000 A 
BRANCH  20  23
ATOM     23  C   UNL     1      50.007   6.550  20.589  0.00  0.00    +0.000 C 
BRANCH  23  24
ATOM     24  C   UNL     1      49.983   8.070  20.398  0.00  0.00    +0.000 C 
BRANCH  24  25
ATOM     25  C   UNL     1      50.917   8.568  19.281  0.00  0.00    +0.000 C 
BRANCH  25  26
ATOM     26  N   UNL     1      50.196   9.291  18.228  0.00  0.00    +0.000 NA
ATOM     27  C   UNL     1      50.120   8.550  16.974  0.00  0.00    +0.000 C 
ATOM     28  C   UNL     1      48.652   8.400  16.643  0.00  0.00    +0.000 C 
ATOM     29  O   UNL     1      47.911   8.890  17.755  0.00  0.00    +0.000 OA
ATOM     30  C   UNL     1      48.820   9.585  18.600  0.00  0.00    +0.000 C 
ENDBRANCH  25  26
ENDBRANCH  24  25
ENDBRANCH  23  24
ENDBRANCH  20  23
ENDBRANCH  16  17
ENDBRANCH   3  16
TORSDOF 7
ENDMDL
MODEL 5
REMARK VINA RESULT:    -6.399      3.803      9.025
REMARK INTER + INTRA:          -9.901
REMARK INTER:                  -8.580
REMARK INTRA:                  -1.321
REMARK UNBOUND:                -0.883
REMARK  Name = 
REMARK  7 active torsions:
REMARK  status: ('A' for Active; 'I' for Inactive)
REMARK    1  A    between atoms: C_2  and  C_19
REMARK    2  A    between atoms: N_3  and  C_4
REMARK    3  A    between atoms: C_4  and  C_5
REMARK    4  A    between atoms: C_8  and  C_9
REMARK    5  A    between atoms: C_9  and  C_10
REMARK    6  A    between atoms: C_10  and  C_11
REMARK    7  A    between atoms: C_11  and  N_12
REMARK                            x       y       z     vdW  Elec       q    Type
REMARK                         _______ _______ _______ _____ _____    ______ ____
ROOT
ATOM      1  O   UNL     1      47.170   3.200  13.758  0.00  0.00    +0.000 OA
ATOM      2  C   UNL     1      46.730   4.232  14.254  0.00  0.00    +0.000 C 
ATOM      3  N   UNL     1      46.712   4.470  15.603  0.00  0.00    +0.000 N 
ATOM      4  H   UNL     1      46.360   5.352  15.947  0.00  0.00    +0.000 HD
ENDROOT
BRANCH   2   5
ATOM      5  C   UNL     1      46.123   5.287  13.443  0.00  0.00    +0.000 A 
ATOM      6  C   UNL     1      46.781   6.487  13.223  0.00  0.00    +0.000 A 
ATOM      7  S   UNL     1      45.909   7.553  12.214  0.00  0.00    +0.000 S 
ATOM      8  C   UNL     1      44.609   6.460  12.081  0.00  0.00    +0.000 A 
ATOM      9  N   UNL     1      43.508   6.758  11.340  0.00  0.00    +0.000 NA
ATOM     10  C   UNL     1      42.588   5.851  11.362  0.00  0.00    +0.000 A 
ATOM     11  N   UNL     1      42.662   4.673  12.062  0.00  0.00    +0.000 N 
ATOM     12  C   UNL     1      43.769   4.314  12.802  0.00  0.00    +0.000 A 
ATOM     13  O   UNL     1      43.824   3.230  13.369  0.00  0.00    +0.000 OA
ATOM     14  C   UNL     1      44.834   5.303  12.801  0.00  0.00    +0.000 A 
ATOM     15  H   UNL     1      41.908   4.003  12.033  0.00  0.00    +0.000 HD
ENDBRANCH   2   5
BRANCH   3  16
ATOM     16  C   UNL     1      47.374   3.624  16.558  0.00  0.00    +0.000 C 
BRANCH  16  17
ATOM     17  C   UNL     1      48.203   4.429  17.506  0.00  0.00    +0.000 A 
ATOM     18  C   UNL     1      48.704   5.680  17.144  0.00  0.00    +0.000 A 
ATOM     19  C   UNL     1      49.468   6.405  18.051  0.00  0.00    +0.000 A 
ATOM     20  C   UNL     1      49.724   5.852  19.302  0.00  0.00    +0.000 A 
ATOM     21  N   UNL     1      49.270   4.629  19.667  0.00  0.00    +0.000 NA
ATOM     22  C   UNL     1      48.534   3.946  18.765  0.00  0.00    +0.000 A 
BRANCH  20  23
ATOM     23  C   UNL     1      50.503   6.620  20.334  0.00  0.00    +0.000 C 
BRANCH  23  24
ATOM     24  C   UNL     1      51.911   6.989  19.856  0.00  0.00    +0.000 C 
BRANCH  24  25
ATOM     25  C   UNL     1      53.019   6.104  20.452  0.00  0.00    +0.000 C 
BRANCH  25  26
ATOM     26  N   UNL     1      53.572   5.162  19.474  0.00  0.00    +0.000 NA
ATOM     27  C   UNL     1      53.020   3.817  19.599  0.00  0.00    +0.000 C 
ATOM     28  C   UNL     1      52.407   3.469  18.261  0.00  0.00    +0.000 C 
ATOM     29  O   UNL     1      52.456   4.639  17.451  0.00  0.00    +0.000 OA
ATOM     30  C   UNL     1      53.312   5.571  18.101  0.00  0.00    +0.000 C 
ENDBRANCH  25  26
ENDBRANCH  24  25
ENDBRANCH  23  24
ENDBRANCH  20  23
ENDBRANCH  16  17
ENDBRANCH   3  16
TORSDOF 7
ENDMDL
MODEL 6
REMARK VINA RESULT:    -6.360      3.639      5.161
REMARK INTER + INTRA:          -9.845
REMARK INTER:                  -8.877
REMARK INTRA:                  -0.968
REMARK UNBOUND:                -0.883
REMARK  Name = 
REMARK  7 active torsions:
REMARK  status: ('A' for Active; 'I' for Inactive)
REMARK    1  A    between atoms: C_2  and  C_19
REMARK    2  A    between atoms: N_3  and  C_4
REMARK    3  A    between atoms: C_4  and  C_5
REMARK    4  A    between atoms: C_8  and  C_9
REMARK    5  A    between atoms: C_9  and  C_10
REMARK    6  A    between atoms: C_10  and  C_11
REMARK    7  A    between atoms: C_11  and  N_12
REMARK                            x       y       z     vdW  Elec       q    Type
REMARK                         _______ _______ _______ _____ _____    ______ ____
ROOT
ATOM      1  O   UNL     1      50.298   5.262  19.724  0.00  0.00    +0.000 OA
ATOM      2  C   UNL     1      51.022   4.979  18.774  0.00  0.00    +0.000 C 
ATOM      3  N   UNL     1      50.775   5.395  17.492  0.00  0.00    +0.000 N 
ATOM      4  H   UNL     1      51.424   5.150  16.758  0.00  0.00    +0.000 HD
ENDROOT
BRANCH   2   5
ATOM      5  C   UNL     1      52.190   4.112  18.918  0.00  0.00    +0.000 A 
ATOM      6  C   UNL     1      53.322   4.544  19.591  0.00  0.00    +0.000 A 
ATOM      7  S   UNL     1      54.545   3.356  19.676  0.00  0.00    +0.000 S 
ATOM      8  C   UNL     1      53.615   2.249  18.776  0.00  0.00    +0.000 A 
ATOM      9  N   UNL     1      54.084   1.006  18.483  0.00  0.00    +0.000 NA
ATOM     10  C   UNL     1      53.285   0.290  17.762  0.00  0.00    +0.000 A 
ATOM     11  N   UNL     1      52.062   0.702  17.299  0.00  0.00    +0.000 N 
ATOM     12  C   UNL     1      51.532   1.941  17.594  0.00  0.00    +0.000 A 
ATOM     13  O   UNL     1      50.412   2.255  17.212  0.00  0.00    +0.000 OA
ATOM     14  C   UNL     1      52.394   2.780  18.410  0.00  0.00    +0.000 A 
ATOM     15  H   UNL     1      51.482   0.091  16.743  0.00  0.00    +0.000 HD
ENDBRANCH   2   5
BRANCH   3  16
ATOM     16  C   UNL     1      49.758   6.355  17.160  0.00  0.00    +0.000 C 
BRANCH  16  17
ATOM     17  C   UNL     1      48.768   5.779  16.200  0.00  0.00    +0.000 A 
ATOM     18  C   UNL     1      48.025   4.644  16.524  0.00  0.00    +0.000 A 
ATOM     19  C   UNL     1      47.110   4.135  15.609  0.00  0.00    +0.000 A 
ATOM     20  C   UNL     1      46.968   4.773  14.381  0.00  0.00    +0.000 A 
ATOM     21  N   UNL     1      47.696   5.861  14.033  0.00  0.00    +0.000 NA
ATOM     22  C   UNL     1      48.580   6.330  14.939  0.00  0.00    +0.000 A 
BRANCH  20  23
ATOM     23  C   UNL     1      45.955   4.290  13.379  0.00  0.00    +0.000 C 
BRANCH  23  24
ATOM     24  C   UNL     1      44.947   5.377  12.989  0.00  0.00    +0.000 C 
BRANCH  24  25
ATOM     25  C   UNL     1      43.480   4.929  13.103  0.00  0.00    +0.000 C 
BRANCH  25  26
ATOM     26  N   UNL     1      42.962   4.381  11.845  0.00  0.00    +0.000 NA
ATOM     27  C   UNL     1      43.460   5.081  10.666  0.00  0.00    +0.000 C 
ATOM     28  C   UNL     1      44.147   4.048   9.802  0.00  0.00    +0.000 C 
ATOM     29  O   UNL     1      44.189   2.832  10.540  0.00  0.00    +0.000 OA
ATOM     30  C   UNL     1      43.323   2.983  11.660  0.00  0.00    +0.000 C 
ENDBRANCH  25  26
ENDBRANCH  24  25
ENDBRANCH  23  24
ENDBRANCH  20  23
ENDBRANCH  16  17
ENDBRANCH   3  16
TORSDOF 7
ENDMDL
MODEL 7
REMARK VINA RESULT:    -6.230      4.682      7.505
REMARK INTER + INTRA:          -9.663
REMARK INTER:                  -8.653
REMARK INTRA:                  -1.010
REMARK UNBOUND:                -0.883
REMARK  Name = 
REMARK  7 active torsions:
REMARK  status: ('A' for Active; 'I' for Inactive)
REMARK    1  A    between atoms: C_2  and  C_19
REMARK    2  A    between atoms: N_3  and  C_4
REMARK    3  A    between atoms: C_4  and  C_5
REMARK    4  A    between atoms: C_8  and  C_9
REMARK    5  A    between atoms: C_9  and  C_10
REMARK    6  A    between atoms: C_10  and  C_11
REMARK    7  A    between atoms: C_11  and  N_12
REMARK                            x       y       z     vdW  Elec       q    Type
REMARK                         _______ _______ _______ _____ _____    ______ ____
ROOT
ATOM      1  O   UNL     1      43.635   7.299  11.339  0.00  0.00    +0.000 OA
ATOM      2  C   UNL     1      44.528   6.465  11.455  0.00  0.00    +0.000 C 
ATOM      3  N   UNL     1      45.826   6.790  11.754  0.00  0.00    +0.000 N 
ATOM      4  H   UNL     1      46.509   6.055  11.861  0.00  0.00    +0.000 HD
ENDROOT
BRANCH   2   5
ATOM      5  C   UNL     1      44.297   5.041  11.221  0.00  0.00    +0.000 A 
ATOM      6  C   UNL     1      43.559   4.281  12.114  0.00  0.00    +0.000 A 
ATOM      7  S   UNL     1      43.378   2.656  11.621  0.00  0.00    +0.000 S 
ATOM      8  C   UNL     1      44.320   2.912  10.225  0.00  0.00    +0.000 A 
ATOM      9  N   UNL     1      44.564   1.906   9.343  0.00  0.00    +0.000 NA
ATOM     10  C   UNL     1      45.325   2.237   8.352  0.00  0.00    +0.000 A 
ATOM     11  N   UNL     1      45.871   3.481   8.162  0.00  0.00    +0.000 N 
ATOM     12  C   UNL     1      45.629   4.539   9.013  0.00  0.00    +0.000 A 
ATOM     13  O   UNL     1      46.087   5.651   8.783  0.00  0.00    +0.000 OA
ATOM     14  C   UNL     1      44.771   4.215  10.140  0.00  0.00    +0.000 A 
ATOM     15  H   UNL     1      46.454   3.677   7.363  0.00  0.00    +0.000 HD
ENDBRANCH   2   5
BRANCH   3  16
ATOM     16  C   UNL     1      46.233   8.112  12.146  0.00  0.00    +0.000 C 
BRANCH  16  17
ATOM     17  C   UNL     1      47.707   8.292  11.976  0.00  0.00    +0.000 A 
ATOM     18  C   UNL     1      48.252   9.544  11.685  0.00  0.00    +0.000 A 
ATOM     19  C   UNL     1      49.628   9.678  11.536  0.00  0.00    +0.000 A 
ATOM     20  C   UNL     1      50.428   8.548  11.671  0.00  0.00    +0.000 A 
ATOM     21  N   UNL     1      49.920   7.319  11.928  0.00  0.00    +0.000 NA
ATOM     22  C   UNL     1      48.581   7.217  12.063  0.00  0.00    +0.000 A 
BRANCH  20  23
ATOM     23  C   UNL     1      51.926   8.653  11.569  0.00  0.00    +0.000 C 
BRANCH  23  24
ATOM     24  C   UNL     1      52.496   7.825  10.413  0.00  0.00    +0.000 C 
BRANCH  24  25
ATOM     25  C   UNL     1      52.798   8.650   9.150  0.00  0.00    +0.000 C 
BRANCH  25  26
ATOM     26  N   UNL     1      53.530   7.880   8.139  0.00  0.00    +0.000 NA
ATOM     27  C   UNL     1      54.017   6.598   8.637  0.00  0.00    +0.000 C 
ATOM     28  C   UNL     1      53.430   5.530   7.741  0.00  0.00    +0.000 C 
ATOM     29  O   UNL     1      52.505   6.166   6.867  0.00  0.00    +0.000 OA
ATOM     30  C   UNL     1      52.710   7.570   6.978  0.00  0.00    +0.000 C 
ENDBRANCH  25  26
ENDBRANCH  24  25
ENDBRANCH  23  24
ENDBRANCH  20  23
ENDBRANCH  16  17
ENDBRANCH   3  16
TORSDOF 7
ENDMDL
MODEL 8
REMARK VINA RESULT:    -6.191      2.260      2.815
REMARK INTER + INTRA:          -9.608
REMARK INTER:                  -8.661
REMARK INTRA:                  -0.947
REMARK UNBOUND:                -0.883
REMARK  Name = 
REMARK  7 active torsions:
REMARK  status: ('A' for Active; 'I' for Inactive)
REMARK    1  A    between atoms: C_2  and  C_19
REMARK    2  A    between atoms: N_3  and  C_4
REMARK    3  A    between atoms: C_4  and  C_5
REMARK    4  A    between atoms: C_8  and  C_9
REMARK    5  A    between atoms: C_9  and  C_10
REMARK    6  A    between atoms: C_10  and  C_11
REMARK    7  A    between atoms: C_11  and  N_12
REMARK                            x       y       z     vdW  Elec       q    Type
REMARK                         _______ _______ _______ _____ _____    ______ ____
ROOT
ATOM      1  O   UNL     1      49.166  10.331  16.131  0.00  0.00    +0.000 OA
ATOM      2  C   UNL     1      48.300   9.516  16.433  0.00  0.00    +0.000 C 
ATOM      3  N   UNL     1      47.513   8.879  15.509  0.00  0.00    +0.000 N 
ATOM      4  H   UNL     1      46.835   8.198  15.820  0.00  0.00    +0.000 HD
ENDROOT
BRANCH   2   5
ATOM      5  C   UNL     1      47.987   9.192  17.823  0.00  0.00    +0.000 A 
ATOM      6  C   UNL     1      47.617  10.182  18.721  0.00  0.00    +0.000 A 
ATOM      7  S   UNL     1      47.254   9.574  20.275  0.00  0.00    +0.000 S 
ATOM      8  C   UNL     1      47.625   7.980  19.804  0.00  0.00    +0.000 A 
ATOM      9  N   UNL     1      47.522   6.943  20.678  0.00  0.00    +0.000 NA
ATOM     10  C   UNL     1      47.872   5.798  20.192  0.00  0.00    +0.000 A 
ATOM     11  N   UNL     1      48.324   5.592  18.913  0.00  0.00    +0.000 N 
ATOM     12  C   UNL     1      48.417   6.606  17.983  0.00  0.00    +0.000 A 
ATOM     13  O   UNL     1      48.771   6.377  16.834  0.00  0.00    +0.000 OA
ATOM     14  C   UNL     1      48.027   7.913  18.484  0.00  0.00    +0.000 A 
ATOM     15  H   UNL     1      48.577   4.669  18.593  0.00  0.00    +0.000 HD
ENDBRANCH   2   5
BRANCH   3  16
ATOM     16  C   UNL     1      47.745   8.958  14.092  0.00  0.00    +0.000 C 
BRANCH  16  17
ATOM     17  C   UNL     1      46.798   8.077  13.343  0.00  0.00    +0.000 A 
ATOM     18  C   UNL     1      45.904   8.606  12.412  0.00  0.00    +0.000 A 
ATOM     19  C   UNL     1      45.039   7.759  11.729  0.00  0.00    +0.000 A 
ATOM     20  C   UNL     1      45.083   6.396  12.005  0.00  0.00    +0.000 A 
ATOM     21  N   UNL     1      45.924   5.862  12.922  0.00  0.00    +0.000 NA
ATOM     22  C   UNL     1      46.749   6.709  13.573  0.00  0.00    +0.000 A 
BRANCH  20  23
ATOM     23  C   UNL     1      44.201   5.434  11.255  0.00  0.00    +0.000 C 
BRANCH  23  24
ATOM     24  C   UNL     1      44.987   4.554  10.277  0.00  0.00    +0.000 C 
BRANCH  24  25
ATOM     25  C   UNL     1      44.397   3.145  10.100  0.00  0.00    +0.000 C 
BRANCH  25  26
ATOM     26  N   UNL     1      44.585   2.624   8.742  0.00  0.00    +0.000 NA
ATOM     27  C   UNL     1      44.860   3.669   7.761  0.00  0.00    +0.000 C 
ATOM     28  C   UNL     1      46.186   3.328   7.119  0.00  0.00    +0.000 C 
ATOM     29  O   UNL     1      46.731   2.221   7.828  0.00  0.00    +0.000 OA
ATOM     30  C   UNL     1      45.700   1.693   8.654  0.00  0.00    +0.000 C 
ENDBRANCH  25  26
ENDBRANCH  24  25
ENDBRANCH  23  24
ENDBRANCH  20  23
ENDBRANCH  16  17
ENDBRANCH   3  16
TORSDOF 7
ENDMDL
MODEL 9
REMARK VINA RESULT:    -5.978      2.315      2.979
REMARK INTER + INTRA:          -9.307
REMARK INTER:                  -8.241
REMARK INTRA:                  -1.066
REMARK UNBOUND:                -0.883
REMARK  Name = 
REMARK  7 active torsions:
REMARK  status: ('A' for Active; 'I' for Inactive)
REMARK    1  A    between atoms: C_2  and  C_19
REMARK    2  A    between atoms: N_3  and  C_4
REMARK    3  A    between atoms: C_4  and  C_5
REMARK    4  A    between atoms: C_8  and  C_9
REMARK    5  A    between atoms: C_9  and  C_10
REMARK    6  A    between atoms: C_10  and  C_11
REMARK    7  A    between atoms: C_11  and  N_12
REMARK                            x       y       z     vdW  Elec       q    Type
REMARK                         _______ _______ _______ _____ _____    ______ ____
ROOT
ATOM      1  O   UNL     1      50.172   8.136  14.521  0.00  0.00    +0.000 OA
ATOM      2  C   UNL     1      49.307   7.621  15.224  0.00  0.00    +0.000 C 
ATOM      3  N   UNL     1      47.995   7.514  14.842  0.00  0.00    +0.000 N 
ATOM      4  H   UNL     1      47.336   7.055  15.455  0.00  0.00    +0.000 HD
ENDROOT
BRANCH   2   5
ATOM      5  C   UNL     1      49.591   7.126  16.569  0.00  0.00    +0.000 A 
ATOM      6  C   UNL     1      50.408   6.024  16.768  0.00  0.00    +0.000 A 
ATOM      7  S   UNL     1      50.639   5.649  18.417  0.00  0.00    +0.000 S 
ATOM      8  C   UNL     1      49.616   6.919  18.911  0.00  0.00    +0.000 A 
ATOM      9  N   UNL     1      49.374   7.161  20.227  0.00  0.00    +0.000 NA
ATOM     10  C   UNL     1      48.549   8.131  20.449  0.00  0.00    +0.000 A 
ATOM     11  N   UNL     1      47.937   8.880  19.477  0.00  0.00    +0.000 N 
ATOM     12  C   UNL     1      48.174   8.692  18.131  0.00  0.00    +0.000 A 
ATOM     13  O   UNL     1      47.653   9.416  17.292  0.00  0.00    +0.000 OA
ATOM     14  C   UNL     1      49.102   7.613  17.833  0.00  0.00    +0.000 A 
ATOM     15  H   UNL     1      47.306   9.629  19.717  0.00  0.00    +0.000 HD
ENDBRANCH   2   5
BRANCH   3  16
ATOM     16  C   UNL     1      47.536   7.819  13.515  0.00  0.00    +0.000 C 
BRANCH  16  17
ATOM     17  C   UNL     1      46.488   6.849  13.072  0.00  0.00    +0.000 A 
ATOM     18  C   UNL     1      46.556   5.501  13.428  0.00  0.00    +0.000 A 
ATOM     19  C   UNL     1      45.564   4.626  13.003  0.00  0.00    +0.000 A 
ATOM     20  C   UNL     1      44.528   5.121  12.218  0.00  0.00    +0.000 A 
ATOM     21  N   UNL     1      44.454   6.419  11.838  0.00  0.00    +0.000 NA
ATOM     22  C   UNL     1      45.434   7.245  12.262  0.00  0.00    +0.000 A 
BRANCH  20  23
ATOM     23  C   UNL     1      43.404   4.223  11.775  0.00  0.00    +0.000 C 
BRANCH  23  24
ATOM     24  C   UNL     1      43.893   3.037  10.937  0.00  0.00    +0.000 C 
BRANCH  24  25
ATOM     25  C   UNL     1      44.130   3.381   9.457  0.00  0.00    +0.000 C 
BRANCH  25  26
ATOM     26  N   UNL     1      45.551   3.356   9.096  0.00  0.00    +0.000 NA
ATOM     27  C   UNL     1      45.914   2.204   8.277  0.00  0.00    +0.000 C 
ATOM     28  C   UNL     1      46.512   2.748   6.998  0.00  0.00    +0.000 C 
ATOM     29  O   UNL     1      46.341   4.161   7.014  0.00  0.00    +0.000 OA
ATOM     30  C   UNL     1      45.949   4.529   8.331  0.00  0.00    +0.000 C 
ENDBRANCH  25  26
ENDBRANCH  24  25
ENDBRANCH  23  24
ENDBRANCH  20  23
ENDBRANCH  16  17
ENDBRANCH   3  16
TORSDOF 7
ENDMDL
