MODEL 1
REMARK VINA RESULT:    -7.962      0.000      0.000
REMARK INTER + INTRA:         -10.922
REMARK INTER:                 -10.522
REMARK INTRA:                  -0.400
REMARK UNBOUND:                -0.400
REMARK  Name = 
REMARK  6 active torsions:
REMARK  status: ('A' for Active; 'I' for Inactive)
REMARK    1  A    between atoms: N_1  and  C_2
REMARK    2  A    between atoms: C_2  and  C_3
REMARK    3  A    between atoms: C_6  and  C_7
REMARK    4  A    between atoms: C_7  and  O_8
REMARK    5  A    between atoms: O_8  and  C_9
REMARK    6  A    between atoms: C_14  and  C_15
REMARK                            x       y       z     vdW  Elec       q    Type
REMARK                         _______ _______ _______ _____ _____    ______ ____
ROOT
ATOM      1  O   UNL     1      44.035   4.158  11.248  0.00  0.00    +0.000 OA
ENDROOT
BRANCH   1   2
ATOM      2  C   UNL     1      45.067   4.854  11.823  0.00  0.00    +0.000 A 
ATOM      3  C   UNL     1      45.584   6.060  11.354  0.00  0.00    +0.000 A 
ATOM      4  C   UNL     1      46.657   6.670  12.010  0.00  0.00    +0.000 A 
ATOM      5  C   UNL     1      47.223   6.088  13.149  0.00  0.00    +0.000 A 
ATOM      6 CL   UNL     1      48.587   6.914  13.821  0.00  0.00    +0.000 Cl
ATOM      7  C   UNL     1      46.703   4.889  13.648  0.00  0.00    +0.000 A 
ATOM      8  C   UNL     1      45.632   4.272  12.965  0.00  0.00    +0.000 A 
BRANCH   7   9
ATOM      9  C   UNL     1      47.214   4.188  14.856  0.00  0.00    +0.000 C 
ATOM     10  N   UNL     1      47.167   4.838  16.056  0.00  0.00    +0.000 N 
ATOM     11  O   UNL     1      47.638   3.038  14.790  0.00  0.00    +0.000 OA
ATOM     12  H   UNL     1      46.914   5.815  16.143  0.00  0.00    +0.000 HD
ATOM     13  H   UNL     1      47.581   4.380  16.856  0.00  0.00    +0.000 HD
ENDBRANCH   7   9
ENDBRANCH   1   2
BRANCH   1  14
ATOM     14  C   UNL     1      43.808   4.393   9.852  0.00  0.00    +0.000 C 
BRANCH  14  18
ATOM     15  C   UNL     1      46.634   2.257   7.569  0.00  0.00    +0.000 A 
ATOM     16  C   UNL     1      46.420   3.617   7.370  0.00  0.00    +0.000 A 
ATOM     17  N   UNL     1      45.519   4.337   8.085  0.00  0.00    +0.000 NA
ATOM     18  C   UNL     1      44.814   3.645   9.017  0.00  0.00    +0.000 A 
ATOM     19  C   UNL     1      45.032   2.287   9.217  0.00  0.00    +0.000 A 
ATOM     20  N   UNL     1      45.944   1.568   8.515  0.00  0.00    +0.000 NA
BRANCH  15  21
ATOM     21  C   UNL     1      47.619   1.501   6.710  0.00  0.00    +0.000 C 
BRANCH  21  22
ATOM     22  N   UNL     1      48.675   2.349   6.153  0.00  0.00    +0.000 NA
ATOM     23  H   UNL     1      48.249   3.205   5.798  0.00  0.00    +0.000 HD
ATOM     24  H   UNL     1      49.062   1.876   5.334  0.00  0.00    +0.000 HD
ENDBRANCH  21  22
ENDBRANCH  15  21
ENDBRANCH  14  18
ENDBRANCH   1  14
TORSDOF 6
ENDMDL
MODEL 2
REMARK VINA RESULT:    -7.210      3.079      6.772
REMARK INTER + INTRA:          -9.928
REMARK INTER:                  -9.441
REMARK INTRA:                  -0.487
REMARK UNBOUND:                -0.400
REMARK  Name = 
REMARK  6 active torsions:
REMARK  status: ('A' for Active; 'I' for Inactive)
REMARK    1  A    between atoms: N_1  and  C_2
REMARK    2  A    between atoms: C_2  and  C_3
REMARK    3  A    between atoms: C_6  and  C_7
REMARK    4  A    between atoms: C_7  and  O_8
REMARK    5  A    between atoms: O_8  and  C_9
REMARK    6  A    between atoms: C_14  and  C_15
REMARK                            x       y       z     vdW  Elec       q    Type
REMARK                         _______ _______ _______ _____ _____    ______ ____
ROOT
ATOM      1  O   UNL     1      44.394   5.013   9.304  0.00  0.00    +0.000 OA
ENDROOT
BRANCH   1   2
ATOM      2  C   UNL     1      44.885   3.795   8.913  0.00  0.00    +0.000 A 
ATOM      3  C   UNL     1      44.544   2.570   9.482  0.00  0.00    +0.000 A 
ATOM      4  C   UNL     1      45.127   1.388   9.016  0.00  0.00    +0.000 A 
ATOM      5  C   UNL     1      46.052   1.413   7.968  0.00  0.00    +0.000 A 
ATOM      6 CL   UNL     1      46.745  -0.112   7.535  0.00  0.00    +0.000 Cl
ATOM      7  C   UNL     1      46.390   2.631   7.368  0.00  0.00    +0.000 A 
ATOM      8  C   UNL     1      45.809   3.820   7.861  0.00  0.00    +0.000 A 
BRANCH   7   9
ATOM      9  C   UNL     1      47.349   2.776   6.240  0.00  0.00    +0.000 C 
ATOM     10  N   UNL     1      48.678   2.585   6.484  0.00  0.00    +0.000 N 
ATOM     11  O   UNL     1      46.957   3.029   5.104  0.00  0.00    +0.000 OA
ATOM     12  H   UNL     1      49.054   2.467   7.417  0.00  0.00    +0.000 HD
ATOM     13  H   UNL     1      49.325   2.754   5.727  0.00  0.00    +0.000 HD
ENDBRANCH   7   9
ENDBRANCH   1   2
BRANCH   1  14
ATOM     14  C   UNL     1      43.877   5.094  10.639  0.00  0.00    +0.000 C 
BRANCH  14  18
ATOM     15  C   UNL     1      47.003   5.971  13.327  0.00  0.00    +0.000 A 
ATOM     16  C   UNL     1      46.089   4.954  13.584  0.00  0.00    +0.000 A 
ATOM     17  N   UNL     1      45.070   4.644  12.743  0.00  0.00    +0.000 NA
ATOM     18  C   UNL     1      44.980   5.400  11.618  0.00  0.00    +0.000 A 
ATOM     19  C   UNL     1      45.897   6.412  11.361  0.00  0.00    +0.000 A 
ATOM     20  N   UNL     1      46.925   6.714  12.193  0.00  0.00    +0.000 NA
BRANCH  15  21
ATOM     21  C   UNL     1      48.088   6.298  14.323  0.00  0.00    +0.000 C 
BRANCH  21  22
ATOM     22  N   UNL     1      47.998   5.516  15.559  0.00  0.00    +0.000 NA
ATOM     23  H   UNL     1      47.078   5.666  15.971  0.00  0.00    +0.000 HD
ATOM     24  H   UNL     1      48.666   5.904  16.228  0.00  0.00    +0.000 HD
ENDBRANCH  21  22
ENDBRANCH  15  21
ENDBRANCH  14  18
ENDBRANCH   1  14
TORSDOF 6
ENDMDL
MODEL 3
REMARK VINA RESULT:    -7.183      1.735      2.093
REMARK INTER + INTRA:          -9.893
REMARK INTER:                  -9.396
REMARK INTRA:                  -0.497
REMARK UNBOUND:                -0.400
REMARK  Name = 
REMARK  6 active torsions:
REMARK  status: ('A' for Active; 'I' for Inactive)
REMARK    1  A    between atoms: N_1  and  C_2
REMARK    2  A    between atoms: C_2  and  C_3
REMARK    3  A    between atoms: C_6  and  C_7
REMARK    4  A    between atoms: C_7  and  O_8
REMARK    5  A    between atoms: O_8  and  C_9
REMARK    6  A    between atoms: C_14  and  C_15
REMARK                            x       y       z     vdW  Elec       q    Type
REMARK                         _______ _______ _______ _____ _____    ______ ____
ROOT
ATOM      1  O   UNL     1      44.936   3.258  11.658  0.00  0.00    +0.000 OA
ENDROOT
BRANCH   1   2
ATOM      2  C   UNL     1      45.185   4.571  11.960  0.00  0.00    +0.000 A 
ATOM      3  C   UNL     1      44.321   5.634  11.703  0.00  0.00    +0.000 A 
ATOM      4  C   UNL     1      44.690   6.940  12.034  0.00  0.00    +0.000 A 
ATOM      5  C   UNL     1      45.925   7.203  12.636  0.00  0.00    +0.000 A 
ATOM      6 CL   UNL     1      46.282   8.870  12.932  0.00  0.00    +0.000 Cl
ATOM      7  C   UNL     1      46.796   6.147  12.923  0.00  0.00    +0.000 A 
ATOM      8  C   UNL     1      46.420   4.834  12.566  0.00  0.00    +0.000 A 
BRANCH   7   9
ATOM      9  C   UNL     1      48.126   6.306  13.572  0.00  0.00    +0.000 C 
ATOM     10  N   UNL     1      49.159   6.804  12.831  0.00  0.00    +0.000 N 
ATOM     11  O   UNL     1      48.290   6.029  14.757  0.00  0.00    +0.000 OA
ATOM     12  H   UNL     1      49.095   6.957  11.833  0.00  0.00    +0.000 HD
ATOM     13  H   UNL     1      50.072   6.841  13.262  0.00  0.00    +0.000 HD
ENDBRANCH   7   9
ENDBRANCH   1   2
BRANCH   1  14
ATOM     14  C   UNL     1      44.142   3.011  10.491  0.00  0.00    +0.000 C 
BRANCH  14  18
ATOM     15  C   UNL     1      46.539   2.805   7.030  0.00  0.00    +0.000 A 
ATOM     16  C   UNL     1      46.390   1.710   7.875  0.00  0.00    +0.000 A 
ATOM     17  N   UNL     1      45.628   1.739   8.997  0.00  0.00    +0.000 NA
ATOM     18  C   UNL     1      45.013   2.920   9.265  0.00  0.00    +0.000 A 
ATOM     19  C   UNL     1      45.160   4.012   8.416  0.00  0.00    +0.000 A 
ATOM     20  N   UNL     1      45.908   3.980   7.286  0.00  0.00    +0.000 NA
BRANCH  15  21
ATOM     21  C   UNL     1      47.437   2.724   5.819  0.00  0.00    +0.000 C 
BRANCH  21  22
ATOM     22  N   UNL     1      48.456   1.676   5.921  0.00  0.00    +0.000 NA
ATOM     23  H   UNL     1      48.305   1.003   5.171  0.00  0.00    +0.000 HD
ATOM     24  H   UNL     1      48.294   1.161   6.789  0.00  0.00    +0.000 HD
ENDBRANCH  21  22
ENDBRANCH  15  21
ENDBRANCH  14  18
ENDBRANCH   1  14
TORSDOF 6
ENDMDL
MODEL 4
REMARK VINA RESULT:    -7.137      1.938      2.656
REMARK INTER + INTRA:          -9.831
REMARK INTER:                  -9.268
REMARK INTRA:                  -0.563
REMARK UNBOUND:                -0.400
REMARK  Name = 
REMARK  6 active torsions:
REMARK  status: ('A' for Active; 'I' for Inactive)
REMARK    1  A    between atoms: N_1  and  C_2
REMARK    2  A    between atoms: C_2  and  C_3
REMARK    3  A    between atoms: C_6  and  C_7
REMARK    4  A    between atoms: C_7  and  O_8
REMARK    5  A    between atoms: O_8  and  C_9
REMARK    6  A    between atoms: C_14  and  C_15
REMARK                            x       y       z     vdW  Elec       q    Type
REMARK                         _______ _______ _______ _____ _____    ______ ____
ROOT
ATOM      1  O   UNL     1      43.907   4.137  11.584  0.00  0.00    +0.000 OA
ENDROOT
BRANCH   1   2
ATOM      2  C   UNL     1      44.978   4.686  12.238  0.00  0.00    +0.000 A 
ATOM      3  C   UNL     1      45.919   3.976  12.981  0.00  0.00    +0.000 A 
ATOM      4  C   UNL     1      46.961   4.646  13.627  0.00  0.00    +0.000 A 
ATOM      5  C   UNL     1      47.083   6.036  13.534  0.00  0.00    +0.000 A 
ATOM      6 CL   UNL     1      48.378   6.744  14.436  0.00  0.00    +0.000 Cl
ATOM      7  C   UNL     1      46.162   6.765  12.775  0.00  0.00    +0.000 A 
ATOM      8  C   UNL     1      45.102   6.078  12.142  0.00  0.00    +0.000 A 
BRANCH   7   9
ATOM      9  C   UNL     1      46.201   8.241  12.593  0.00  0.00    +0.000 C 
ATOM     10  N   UNL     1      45.164   8.986  13.077  0.00  0.00    +0.000 N 
ATOM     11  O   UNL     1      47.156   8.788  12.050  0.00  0.00    +0.000 OA
ATOM     12  H   UNL     1      44.316   8.573  13.446  0.00  0.00    +0.000 HD
ATOM     13  H   UNL     1      45.168   9.978  12.886  0.00  0.00    +0.000 HD
ENDBRANCH   7   9
ENDBRANCH   1   2
BRANCH   1  14
ATOM     14  C   UNL     1      43.730   4.522  10.214  0.00  0.00    +0.000 C 
BRANCH  14  18
ATOM     15  C   UNL     1      46.395   2.470   7.673  0.00  0.00    +0.000 A 
ATOM     16  C   UNL     1      45.633   1.795   8.621  0.00  0.00    +0.000 A 
ATOM     17  N   UNL     1      44.765   2.421   9.456  0.00  0.00    +0.000 NA
ATOM     18  C   UNL     1      44.686   3.771   9.324  0.00  0.00    +0.000 A 
ATOM     19  C   UNL     1      45.446   4.443   8.373  0.00  0.00    +0.000 A 
ATOM     20  N   UNL     1      46.301   3.817   7.526  0.00  0.00    +0.000 NA
BRANCH  15  21
ATOM     21  C   UNL     1      47.376   1.722   6.803  0.00  0.00    +0.000 C 
BRANCH  21  22
ATOM     22  N   UNL     1      48.553   2.516   6.442  0.00  0.00    +0.000 NA
ATOM     23  H   UNL     1      48.436   3.458   6.813  0.00  0.00    +0.000 HD
ATOM     24  H   UNL     1      48.564   2.621   5.425  0.00  0.00    +0.000 HD
ENDBRANCH  21  22
ENDBRANCH  15  21
ENDBRANCH  14  18
ENDBRANCH   1  14
TORSDOF 6
ENDMDL
MODEL 5
REMARK VINA RESULT:    -6.567      2.421      3.452
REMARK INTER + INTRA:          -9.078
REMARK INTER:                  -8.639
REMARK INTRA:                  -0.439
REMARK UNBOUND:                -0.400
REMARK  Name = 
REMARK  6 active torsions:
REMARK  status: ('A' for Active; 'I' for Inactive)
REMARK    1  A    between atoms: N_1  and  C_2
REMARK    2  A    between atoms: C_2  and  C_3
REMARK    3  A    between atoms: C_6  and  C_7
REMARK    4  A    between atoms: C_7  and  O_8
REMARK    5  A    between atoms: O_8  and  C_9
REMARK    6  A    between atoms: C_14  and  C_15
REMARK                            x       y       z     vdW  Elec       q    Type
REMARK                         _______ _______ _______ _____ _____    ______ ____
ROOT
ATOM      1  O   UNL     1      44.446   4.613  11.813  0.00  0.00    +0.000 OA
ENDROOT
BRANCH   1   2
ATOM      2  C   UNL     1      45.203   5.749  11.935  0.00  0.00    +0.000 A 
ATOM      3  C   UNL     1      46.546   5.785  12.305  0.00  0.00    +0.000 A 
ATOM      4  C   UNL     1      47.214   7.007  12.420  0.00  0.00    +0.000 A 
ATOM      5  C   UNL     1      46.553   8.211  12.157  0.00  0.00    +0.000 A 
ATOM      6 CL   UNL     1      47.479   9.652  12.401  0.00  0.00    +0.000 Cl
ATOM      7  C   UNL     1      45.211   8.194  11.761  0.00  0.00    +0.000 A 
ATOM      8  C   UNL     1      44.541   6.954  11.667  0.00  0.00    +0.000 A 
BRANCH   7   9
ATOM      9  C   UNL     1      44.412   9.408  11.441  0.00  0.00    +0.000 C 
ATOM     10  N   UNL     1      43.758   9.462  10.244  0.00  0.00    +0.000 N 
ATOM     11  O   UNL     1      44.311  10.330  12.245  0.00  0.00    +0.000 OA
ATOM     12  H   UNL     1      43.887   8.771   9.516  0.00  0.00    +0.000 HD
ATOM     13  H   UNL     1      43.276  10.318  10.009  0.00  0.00    +0.000 HD
ENDBRANCH   7   9
ENDBRANCH   1   2
BRANCH   1  14
ATOM     14  C   UNL     1      43.730   4.453  10.582  0.00  0.00    +0.000 C 
BRANCH  14  18
ATOM     15  C   UNL     1      46.223   2.687   7.678  0.00  0.00    +0.000 A 
ATOM     16  C   UNL     1      46.019   4.062   7.719  0.00  0.00    +0.000 A 
ATOM     17  N   UNL     1      45.224   4.666   8.638  0.00  0.00    +0.000 NA
ATOM     18  C   UNL     1      44.615   3.840   9.528  0.00  0.00    +0.000 A 
ATOM     19  C   UNL     1      44.824   2.466   9.489  0.00  0.00    +0.000 A 
ATOM     20  N   UNL     1      45.631   1.862   8.581  0.00  0.00    +0.000 NA
BRANCH  15  21
ATOM     21  C   UNL     1      47.084   2.069   6.603  0.00  0.00    +0.000 C 
BRANCH  21  22
ATOM     22  N   UNL     1      47.911   0.961   7.087  0.00  0.00    +0.000 NA
ATOM     23  H   UNL     1      47.356   0.400   7.732  0.00  0.00    +0.000 HD
ATOM     24  H   UNL     1      48.669   1.354   7.648  0.00  0.00    +0.000 HD
ENDBRANCH  21  22
ENDBRANCH  15  21
ENDBRANCH  14  18
ENDBRANCH   1  14
TORSDOF 6
ENDMDL
MODEL 6
REMARK VINA RESULT:    -6.474      3.523      7.716
REMARK INTER + INTRA:          -8.956
REMARK INTER:                  -8.613
REMARK INTRA:                  -0.343
REMARK UNBOUND:                -0.400
REMARK  Name = 
REMARK  6 active torsions:
REMARK  status: ('A' for Active; 'I' for Inactive)
REMARK    1  A    between atoms: N_1  and  C_2
REMARK    2  A    between atoms: C_2  and  C_3
REMARK    3  A    between atoms: C_6  and  C_7
REMARK    4  A    between atoms: C_7  and  O_8
REMARK    5  A    between atoms: O_8  and  C_9
REMARK    6  A    between atoms: C_14  and  C_15
REMARK                            x       y       z     vdW  Elec       q    Type
REMARK                         _______ _______ _______ _____ _____    ______ ____
ROOT
ATOM      1  O   UNL     1      47.601   3.124  14.554  0.00  0.00    +0.000 OA
ENDROOT
BRANCH   1   2
ATOM      2  C   UNL     1      46.752   3.889  13.797  0.00  0.00    +0.000 A 
ATOM      3  C   UNL     1      46.645   5.277  13.863  0.00  0.00    +0.000 A 
ATOM      4  C   UNL     1      45.724   5.952  13.057  0.00  0.00    +0.000 A 
ATOM      5  C   UNL     1      44.905   5.252  12.166  0.00  0.00    +0.000 A 
ATOM      6 CL   UNL     1      43.766   6.205  11.278  0.00  0.00    +0.000 Cl
ATOM      7  C   UNL     1      45.014   3.861  12.069  0.00  0.00    +0.000 A 
ATOM      8  C   UNL     1      45.933   3.187  12.903  0.00  0.00    +0.000 A 
BRANCH   7   9
ATOM      9  C   UNL     1      44.206   3.015  11.150  0.00  0.00    +0.000 C 
ATOM     10  N   UNL     1      44.825   2.444  10.075  0.00  0.00    +0.000 N 
ATOM     11  O   UNL     1      43.016   2.803  11.364  0.00  0.00    +0.000 OA
ATOM     12  H   UNL     1      45.776   2.664   9.808  0.00  0.00    +0.000 HD
ATOM     13  H   UNL     1      44.253   1.930   9.421  0.00  0.00    +0.000 HD
ENDBRANCH   7   9
ENDBRANCH   1   2
BRANCH   1  14
ATOM     14  C   UNL     1      47.549   3.327  15.972  0.00  0.00    +0.000 C 
BRANCH  14  18
ATOM     15  C   UNL     1      51.354   2.773  17.697  0.00  0.00    +0.000 A 
ATOM     16  C   UNL     1      50.747   1.773  16.945  0.00  0.00    +0.000 A 
ATOM     17  N   UNL     1      49.523   1.914  16.376  0.00  0.00    +0.000 NA
ATOM     18  C   UNL     1      48.904   3.104  16.590  0.00  0.00    +0.000 A 
ATOM     19  C   UNL     1      49.515   4.105  17.338  0.00  0.00    +0.000 A 
ATOM     20  N   UNL     1      50.745   3.971  17.895  0.00  0.00    +0.000 NA
BRANCH  15  21
ATOM     21  C   UNL     1      52.698   2.539  18.343  0.00  0.00    +0.000 C 
BRANCH  21  22
ATOM     22  N   UNL     1      53.007   1.121  18.544  0.00  0.00    +0.000 NA
ATOM     23  H   UNL     1      52.223   0.684  19.026  0.00  0.00    +0.000 HD
ATOM     24  H   UNL     1      53.796   1.058  19.190  0.00  0.00    +0.000 HD
ENDBRANCH  21  22
ENDBRANCH  15  21
ENDBRANCH  14  18
ENDBRANCH   1  14
TORSDOF 6
ENDMDL
MODEL 7
REMARK VINA RESULT:    -6.126      4.322      7.639
REMARK INTER + INTRA:          -8.495
REMARK INTER:                  -8.111
REMARK INTRA:                  -0.385
REMARK UNBOUND:                -0.400
REMARK  Name = 
REMARK  6 active torsions:
REMARK  status: ('A' for Active; 'I' for Inactive)
REMARK    1  A    between atoms: N_1  and  C_2
REMARK    2  A    between atoms: C_2  and  C_3
REMARK    3  A    between atoms: C_6  and  C_7
REMARK    4  A    between atoms: C_7  and  O_8
REMARK    5  A    between atoms: O_8  and  C_9
REMARK    6  A    between atoms: C_14  and  C_15
REMARK                            x       y       z     vdW  Elec       q    Type
REMARK                         _______ _______ _______ _____ _____    ______ ____
ROOT
ATOM      1  O   UNL     1      47.506   5.114  13.505  0.00  0.00    +0.000 OA
ENDROOT
BRANCH   1   2
ATOM      2  C   UNL     1      46.726   6.062  12.896  0.00  0.00    +0.000 A 
ATOM      3  C   UNL     1      47.053   7.410  12.763  0.00  0.00    +0.000 A 
ATOM      4  C   UNL     1      46.167   8.293  12.142  0.00  0.00    +0.000 A 
ATOM      5  C   UNL     1      44.944   7.842  11.636  0.00  0.00    +0.000 A 
ATOM      6 CL   UNL     1      43.915   9.053  10.952  0.00  0.00    +0.000 Cl
ATOM      7  C   UNL     1      44.607   6.488  11.740  0.00  0.00    +0.000 A 
ATOM      8  C   UNL     1      45.502   5.608  12.387  0.00  0.00    +0.000 A 
BRANCH   7   9
ATOM      9  C   UNL     1      43.343   5.893  11.227  0.00  0.00    +0.000 C 
ATOM     10  N   UNL     1      42.165   6.260  11.811  0.00  0.00    +0.000 N 
ATOM     11  O   UNL     1      43.349   5.114  10.278  0.00  0.00    +0.000 OA
ATOM     12  H   UNL     1      42.120   6.824  12.651  0.00  0.00    +0.000 HD
ATOM     13  H   UNL     1      41.322   5.798  11.501  0.00  0.00    +0.000 HD
ENDBRANCH   7   9
ENDBRANCH   1   2
BRANCH   1  14
ATOM     14  C   UNL     1      46.832   4.194  14.373  0.00  0.00    +0.000 C 
BRANCH  14  18
ATOM     15  C   UNL     1      48.290   4.614  18.305  0.00  0.00    +0.000 A 
ATOM     16  C   UNL     1      47.403   3.598  17.966  0.00  0.00    +0.000 A 
ATOM     17  N   UNL     1      46.912   3.432  16.712  0.00  0.00    +0.000 NA
ATOM     18  C   UNL     1      47.332   4.334  15.787  0.00  0.00    +0.000 A 
ATOM     19  C   UNL     1      48.222   5.346  16.127  0.00  0.00    +0.000 A 
ATOM     20  N   UNL     1      48.727   5.505  17.377  0.00  0.00    +0.000 NA
BRANCH  15  21
ATOM     21  C   UNL     1      48.766   4.775  19.729  0.00  0.00    +0.000 C 
BRANCH  21  22
ATOM     22  N   UNL     1      48.341   3.684  20.609  0.00  0.00    +0.000 NA
ATOM     23  H   UNL     1      47.650   4.048  21.265  0.00  0.00    +0.000 HD
ATOM     24  H   UNL     1      49.142   3.408  21.180  0.00  0.00    +0.000 HD
ENDBRANCH  21  22
ENDBRANCH  15  21
ENDBRANCH  14  18
ENDBRANCH   1  14
TORSDOF 6
ENDMDL
MODEL 8
REMARK VINA RESULT:    -6.057      1.788      2.639
REMARK INTER + INTRA:          -8.404
REMARK INTER:                  -8.031
REMARK INTRA:                  -0.373
REMARK UNBOUND:                -0.400
REMARK  Name = 
REMARK  6 active torsions:
REMARK  status: ('A' for Active; 'I' for Inactive)
REMARK    1  A    between atoms: N_1  and  C_2
REMARK    2  A    between atoms: C_2  and  C_3
REMARK    3  A    between atoms: C_6  and  C_7
REMARK    4  A    between atoms: C_7  and  O_8
REMARK    5  A    between atoms: O_8  and  C_9
REMARK    6  A    between atoms: C_14  and  C_15
REMARK                            x       y       z     vdW  Elec       q    Type
REMARK                         _______ _______ _______ _____ _____    ______ ____
ROOT
ATOM      1  O   UNL     1      45.571   4.015  13.411  0.00  0.00    +0.000 OA
ENDROOT
BRANCH   1   2
ATOM      2  C   UNL     1      46.517   4.858  13.932  0.00  0.00    +0.000 A 
ATOM      3  C   UNL     1      46.921   6.065  13.365  0.00  0.00    +0.000 A 
ATOM      4  C   UNL     1      47.915   6.834  13.975  0.00  0.00    +0.000 A 
ATOM      5  C   UNL     1      48.515   6.414  15.166  0.00  0.00    +0.000 A 
ATOM      6 CL   UNL     1      49.776   7.427  15.777  0.00  0.00    +0.000 Cl
ATOM      7  C   UNL     1      48.107   5.216  15.764  0.00  0.00    +0.000 A 
ATOM      8  C   UNL     1      47.115   4.438  15.127  0.00  0.00    +0.000 A 
BRANCH   7   9
ATOM      9  C   UNL     1      48.662   4.678  17.035  0.00  0.00    +0.000 C 
ATOM     10  N   UNL     1      48.297   5.271  18.209  0.00  0.00    +0.000 N 
ATOM     11  O   UNL     1      49.406   3.702  17.038  0.00  0.00    +0.000 OA
ATOM     12  H   UNL     1      47.763   6.130  18.248  0.00  0.00    +0.000 HD
ATOM     13  H   UNL     1      48.734   4.942  19.058  0.00  0.00    +0.000 HD
ENDBRANCH   7   9
ENDBRANCH   1   2
BRANCH   1  14
ATOM     14  C   UNL     1      44.609   4.605  12.528  0.00  0.00    +0.000 C 
BRANCH  14  18
ATOM     15  C   UNL     1      45.432   3.655   8.505  0.00  0.00    +0.000 A 
ATOM     16  C   UNL     1      44.959   2.696   9.394  0.00  0.00    +0.000 A 
ATOM     17  N   UNL     1      44.683   2.964  10.695  0.00  0.00    +0.000 NA
ATOM     18  C   UNL     1      44.908   4.242  11.097  0.00  0.00    +0.000 A 
ATOM     19  C   UNL     1      45.377   5.201  10.205  0.00  0.00    +0.000 A 
ATOM     20  N   UNL     1      45.638   4.938   8.900  0.00  0.00    +0.000 NA
BRANCH  15  21
ATOM     21  C   UNL     1      45.763   3.285   7.079  0.00  0.00    +0.000 C 
BRANCH  21  22
ATOM     22  N   UNL     1      46.842   4.092   6.505  0.00  0.00    +0.000 NA
ATOM     23  H   UNL     1      46.521   4.478   5.618  0.00  0.00    +0.000 HD
ATOM     24  H   UNL     1      47.614   3.465   6.268  0.00  0.00    +0.000 HD
ENDBRANCH  21  22
ENDBRANCH  15  21
ENDBRANCH  14  18
ENDBRANCH   1  14
TORSDOF 6
ENDMDL
MODEL 9
REMARK VINA RESULT:    -5.845      3.715      7.907
REMARK INTER + INTRA:          -8.125
REMARK INTER:                  -7.667
REMARK INTRA:                  -0.458
REMARK UNBOUND:                -0.400
REMARK  Name = 
REMARK  6 active torsions:
REMARK  status: ('A' for Active; 'I' for Inactive)
REMARK    1  A    between atoms: N_1  and  C_2
REMARK    2  A    between atoms: C_2  and  C_3
REMARK    3  A    between atoms: C_6  and  C_7
REMARK    4  A    between atoms: C_7  and  O_8
REMARK    5  A    between atoms: O_8  and  C_9
REMARK    6  A    between atoms: C_14  and  C_15
REMARK                            x       y       z     vdW  Elec       q    Type
REMARK                         _______ _______ _______ _____ _____    ______ ____
ROOT
ATOM      1  O   UNL     1      48.218   5.774  13.844  0.00  0.00    +0.000 OA
ENDROOT
BRANCH   1   2
ATOM      2  C   UNL     1      47.007   5.867  13.209  0.00  0.00    +0.000 A 
ATOM      3  C   UNL     1      46.312   7.051  12.969  0.00  0.00    +0.000 A 
ATOM      4  C   UNL     1      45.069   7.023  12.331  0.00  0.00    +0.000 A 
ATOM      5  C   UNL     1      44.506   5.813  11.915  0.00  0.00    +0.000 A 
ATOM      6 CL   UNL     1      42.935   5.917  11.199  0.00  0.00    +0.000 Cl
ATOM      7  C   UNL     1      45.198   4.616  12.126  0.00  0.00    +0.000 A 
ATOM      8  C   UNL     1      46.445   4.654  12.789  0.00  0.00    +0.000 A 
BRANCH   7   9
ATOM      9  C   UNL     1      44.705   3.274  11.714  0.00  0.00    +0.000 C 
ATOM     10  N   UNL     1      43.907   2.579  12.576  0.00  0.00    +0.000 N 
ATOM     11  O   UNL     1      44.977   2.810  10.610  0.00  0.00    +0.000 OA
ATOM     12  H   UNL     1      43.734   2.879  13.528  0.00  0.00    +0.000 HD
ATOM     13  H   UNL     1      43.637   1.641  12.315  0.00  0.00    +0.000 HD
ENDBRANCH   7   9
ENDBRANCH   1   2
BRANCH   1  14
ATOM     14  C   UNL     1      48.532   6.818  14.774  0.00  0.00    +0.000 C 
BRANCH  14  18
ATOM     15  C   UNL     1      49.102   5.302  18.665  0.00  0.00    +0.000 A 
ATOM     16  C   UNL     1      48.846   4.459  17.589  0.00  0.00    +0.000 A 
ATOM     17  N   UNL     1      48.657   4.911  16.323  0.00  0.00    +0.000 NA
ATOM     18  C   UNL     1      48.721   6.257  16.159  0.00  0.00    +0.000 A 
ATOM     19  C   UNL     1      48.981   7.098  17.235  0.00  0.00    +0.000 A 
ATOM     20  N   UNL     1      49.186   6.648  18.498  0.00  0.00    +0.000 NA
BRANCH  15  21
ATOM     21  C   UNL     1      49.258   4.744  20.058  0.00  0.00    +0.000 C 
BRANCH  21  22
ATOM     22  N   UNL     1      48.365   3.616  20.336  0.00  0.00    +0.000 NA
ATOM     23  H   UNL     1      47.403   3.925  20.201  0.00  0.00    +0.000 HD
ATOM     24  H   UNL     1      48.443   3.388  21.329  0.00  0.00    +0.000 HD
ENDBRANCH  21  22
ENDBRANCH  15  21
ENDBRANCH  14  18
ENDBRANCH   1  14
TORSDOF 6
ENDMDL
