MODEL 1
REMARK VINA RESULT:    -7.944      0.000      0.000
REMARK INTER + INTRA:          -9.962
REMARK INTER:                  -9.569
REMARK INTRA:                  -0.393
REMARK UNBOUND:                -0.393
REMARK  Name = 
REMARK  4 active torsions:
REMARK  status: ('A' for Active; 'I' for Inactive)
REMARK    1  A    between atoms: N_1  and  C_2
REMARK    2  A    between atoms: C_2  and  C_3
REMARK    3  A    between atoms: C_6  and  C_7
REMARK    4  A    between atoms: C_7  and  N_8
REMARK                            x       y       z     vdW  Elec       q    Type
REMARK                         _______ _______ _______ _____ _____    ______ ____
ROOT
ATOM      1  C   UNL     1      46.542   2.365   7.484  0.00  0.00    +0.000 A 
ATOM      2  C   UNL     1      45.783   1.610   8.389  0.00  0.00    +0.000 A 
ATOM      3  C   UNL     1      44.933   2.236   9.304  0.00  0.00    +0.000 A 
ATOM      4  C   UNL     1      44.825   3.633   9.339  0.00  0.00    +0.000 A 
ATOM      5  C   UNL     1      45.574   4.387   8.423  0.00  0.00    +0.000 A 
ATOM      6  C   UNL     1      46.421   3.759   7.505  0.00  0.00    +0.000 A 
ENDROOT
BRANCH   1   7
ATOM      7  C   UNL     1      47.497   1.689   6.533  0.00  0.00    +0.000 C 
BRANCH   7   8
ATOM      8  N   UNL     1      48.685   2.497   6.290  0.00  0.00    +0.000 NA
ATOM      9  H   UNL     1      48.955   2.959   7.157  0.00  0.00    +0.000 HD
ATOM     10  H   UNL     1      48.448   3.237   5.631  0.00  0.00    +0.000 HD
ENDBRANCH   7   8
ENDBRANCH   1   7
BRANCH   4  11
ATOM     11  C   UNL     1      43.928   4.318  10.338  0.00  0.00    +0.000 C 
BRANCH  11  12
ATOM     12  N   UNL     1      44.674   5.137  11.290  0.00  0.00    +0.000 N 
ATOM     13  C   UNL     1      44.546   6.501  11.404  0.00  0.00    +0.000 A 
ATOM     14  C   UNL     1      45.281   6.912  12.491  0.00  0.00    +0.000 A 
ATOM     15  C   UNL     1      45.876   5.759  13.071  0.00  0.00    +0.000 A 
ATOM     16  C   UNL     1      46.694   5.548  14.189  0.00  0.00    +0.000 A 
ATOM     17  C   UNL     1      47.074   4.239  14.439  0.00  0.00    +0.000 A 
ATOM     18  N   UNL     1      46.724   3.178  13.682  0.00  0.00    +0.000 NA
ATOM     19  C   UNL     1      45.938   3.375  12.600  0.00  0.00    +0.000 A 
ATOM     20  C   UNL     1      45.499   4.661  12.294  0.00  0.00    +0.000 A 
ENDBRANCH  11  12
ENDBRANCH   4  11
TORSDOF 4
ENDMDL
MODEL 2
REMARK VINA RESULT:    -7.599      1.304      1.728
REMARK INTER + INTRA:          -9.546
REMARK INTER:                  -9.076
REMARK INTRA:                  -0.470
REMARK UNBOUND:                -0.393
REMARK  Name = 
REMARK  4 active torsions:
REMARK  status: ('A' for Active; 'I' for Inactive)
REMARK    1  A    between atoms: N_1  and  C_2
REMARK    2  A    between atoms: C_2  and  C_3
REMARK    3  A    between atoms: C_6  and  C_7
REMARK    4  A    between atoms: C_7  and  N_8
REMARK                            x       y       z     vdW  Elec       q    Type
REMARK                         _______ _______ _______ _____ _____    ______ ____
ROOT
ATOM      1  C   UNL     1      46.627   1.973   7.525  0.00  0.00    +0.000 A 
ATOM      2  C   UNL     1      45.698   1.432   8.424  0.00  0.00    +0.000 A 
ATOM      3  C   UNL     1      44.792   2.256   9.098  0.00  0.00    +0.000 A 
ATOM      4  C   UNL     1      44.798   3.642   8.890  0.00  0.00    +0.000 A 
ATOM      5  C   UNL     1      45.719   4.181   7.980  0.00  0.00    +0.000 A 
ATOM      6  C   UNL     1      46.621   3.355   7.303  0.00  0.00    +0.000 A 
ENDROOT
BRANCH   1   7
ATOM      7  C   UNL     1      47.636   1.087   6.839  0.00  0.00    +0.000 C 
BRANCH   7   8
ATOM      8  N   UNL     1      48.456   1.831   5.891  0.00  0.00    +0.000 NA
ATOM      9  H   UNL     1      48.971   1.172   5.310  0.00  0.00    +0.000 HD
ATOM     10  H   UNL     1      49.152   2.364   6.409  0.00  0.00    +0.000 HD
ENDBRANCH   7   8
ENDBRANCH   1   7
BRANCH   4  11
ATOM     11  C   UNL     1      43.840   4.541   9.629  0.00  0.00    +0.000 C 
BRANCH  11  12
ATOM     12  N   UNL     1      44.110   4.586  11.065  0.00  0.00    +0.000 N 
ATOM     13  C   UNL     1      43.409   3.869  12.006  0.00  0.00    +0.000 A 
ATOM     14  C   UNL     1      44.027   4.040  13.223  0.00  0.00    +0.000 A 
ATOM     15  C   UNL     1      45.152   4.884  13.021  0.00  0.00    +0.000 A 
ATOM     16  C   UNL     1      46.156   5.379  13.863  0.00  0.00    +0.000 A 
ATOM     17  C   UNL     1      47.112   6.192  13.275  0.00  0.00    +0.000 A 
ATOM     18  N   UNL     1      47.130   6.540  11.972  0.00  0.00    +0.000 NA
ATOM     19  C   UNL     1      46.161   6.068  11.154  0.00  0.00    +0.000 A 
ATOM     20  C   UNL     1      45.176   5.229  11.667  0.00  0.00    +0.000 A 
ENDBRANCH  11  12
ENDBRANCH   4  11
TORSDOF 4
ENDMDL
MODEL 3
REMARK VINA RESULT:    -6.796      1.154      1.747
REMARK INTER + INTRA:          -8.579
REMARK INTER:                  -8.188
REMARK INTRA:                  -0.391
REMARK UNBOUND:                -0.393
REMARK  Name = 
REMARK  4 active torsions:
REMARK  status: ('A' for Active; 'I' for Inactive)
REMARK    1  A    between atoms: N_1  and  C_2
REMARK    2  A    between atoms: C_2  and  C_3
REMARK    3  A    between atoms: C_6  and  C_7
REMARK    4  A    between atoms: C_7  and  N_8
REMARK                            x       y       z     vdW  Elec       q    Type
REMARK                         _______ _______ _______ _____ _____    ______ ____
ROOT
ATOM      1  C   UNL     1      46.199   2.796   7.768  0.00  0.00    +0.000 A 
ATOM      2  C   UNL     1      46.206   4.189   7.921  0.00  0.00    +0.000 A 
ATOM      3  C   UNL     1      45.574   4.791   9.013  0.00  0.00    +0.000 A 
ATOM      4  C   UNL     1      44.915   4.012   9.974  0.00  0.00    +0.000 A 
ATOM      5  C   UNL     1      44.921   2.617   9.827  0.00  0.00    +0.000 A 
ATOM      6  C   UNL     1      45.558   2.017   8.737  0.00  0.00    +0.000 A 
ENDROOT
BRANCH   1   7
ATOM      7  C   UNL     1      46.839   2.155   6.562  0.00  0.00    +0.000 C 
BRANCH   7   8
ATOM      8  N   UNL     1      48.069   1.453   6.909  0.00  0.00    +0.000 NA
ATOM      9  H   UNL     1      48.818   1.777   6.300  0.00  0.00    +0.000 HD
ATOM     10  H   UNL     1      47.946   0.461   6.713  0.00  0.00    +0.000 HD
ENDBRANCH   7   8
ENDBRANCH   1   7
BRANCH   4  11
ATOM     11  C   UNL     1      44.211   4.653  11.142  0.00  0.00    +0.000 C 
BRANCH  11  12
ATOM     12  N   UNL     1      44.888   5.861  11.609  0.00  0.00    +0.000 N 
ATOM     13  C   UNL     1      44.434   7.139  11.382  0.00  0.00    +0.000 A 
ATOM     14  C   UNL     1      45.232   8.010  12.086  0.00  0.00    +0.000 A 
ATOM     15  C   UNL     1      46.206   7.239  12.777  0.00  0.00    +0.000 A 
ATOM     16  C   UNL     1      47.249   7.558  13.657  0.00  0.00    +0.000 A 
ATOM     17  C   UNL     1      47.997   6.496  14.140  0.00  0.00    +0.000 A 
ATOM     18  N   UNL     1      47.795   5.203  13.817  0.00  0.00    +0.000 NA
ATOM     19  C   UNL     1      46.792   4.888  12.966  0.00  0.00    +0.000 A 
ATOM     20  C   UNL     1      45.984   5.899  12.451  0.00  0.00    +0.000 A 
ENDBRANCH  11  12
ENDBRANCH   4  11
TORSDOF 4
ENDMDL
MODEL 4
REMARK VINA RESULT:    -6.200      2.028      5.958
REMARK INTER + INTRA:          -7.862
REMARK INTER:                  -7.533
REMARK INTRA:                  -0.329
REMARK UNBOUND:                -0.393
REMARK  Name = 
REMARK  4 active torsions:
REMARK  status: ('A' for Active; 'I' for Inactive)
REMARK    1  A    between atoms: N_1  and  C_2
REMARK    2  A    between atoms: C_2  and  C_3
REMARK    3  A    between atoms: C_6  and  C_7
REMARK    4  A    between atoms: C_7  and  N_8
REMARK                            x       y       z     vdW  Elec       q    Type
REMARK                         _______ _______ _______ _____ _____    ______ ____
ROOT
ATOM      1  C   UNL     1      47.762   7.429  13.858  0.00  0.00    +0.000 A 
ATOM      2  C   UNL     1      47.446   6.078  13.657  0.00  0.00    +0.000 A 
ATOM      3  C   UNL     1      46.290   5.709  12.964  0.00  0.00    +0.000 A 
ATOM      4  C   UNL     1      45.419   6.685  12.460  0.00  0.00    +0.000 A 
ATOM      5  C   UNL     1      45.742   8.036  12.650  0.00  0.00    +0.000 A 
ATOM      6  C   UNL     1      46.902   8.403  13.339  0.00  0.00    +0.000 A 
ENDROOT
BRANCH   1   7
ATOM      7  C   UNL     1      48.983   7.821  14.650  0.00  0.00    +0.000 C 
BRANCH   7   8
ATOM      8  N   UNL     1      50.140   7.003  14.304  0.00  0.00    +0.000 NA
ATOM      9  H   UNL     1      50.792   7.004  15.085  0.00  0.00    +0.000 HD
ATOM     10  H   UNL     1      50.626   7.439  13.522  0.00  0.00    +0.000 HD
ENDBRANCH   7   8
ENDBRANCH   1   7
BRANCH   4  11
ATOM     11  C   UNL     1      44.157   6.297  11.732  0.00  0.00    +0.000 C 
BRANCH  11  12
ATOM     12  N   UNL     1      44.169   4.902  11.298  0.00  0.00    +0.000 N 
ATOM     13  C   UNL     1      43.471   3.892  11.919  0.00  0.00    +0.000 A 
ATOM     14  C   UNL     1      43.596   2.753  11.158  0.00  0.00    +0.000 A 
ATOM     15  C   UNL     1      44.391   3.076  10.026  0.00  0.00    +0.000 A 
ATOM     16  C   UNL     1      44.828   2.350   8.909  0.00  0.00    +0.000 A 
ATOM     17  C   UNL     1      45.605   3.037   7.990  0.00  0.00    +0.000 A 
ATOM     18  N   UNL     1      45.970   4.331   8.106  0.00  0.00    +0.000 NA
ATOM     19  C   UNL     1      45.555   5.036   9.182  0.00  0.00    +0.000 A 
ATOM     20  C   UNL     1      44.754   4.420  10.141  0.00  0.00    +0.000 A 
ENDBRANCH  11  12
ENDBRANCH   4  11
TORSDOF 4
ENDMDL
MODEL 5
REMARK VINA RESULT:    -5.319      3.662      5.707
REMARK INTER + INTRA:          -6.800
REMARK INTER:                  -6.351
REMARK INTRA:                  -0.449
REMARK UNBOUND:                -0.393
REMARK  Name = 
REMARK  4 active torsions:
REMARK  status: ('A' for Active; 'I' for Inactive)
REMARK    1  A    between atoms: N_1  and  C_2
REMARK    2  A    between atoms: C_2  and  C_3
REMARK    3  A    between atoms: C_6  and  C_7
REMARK    4  A    between atoms: C_7  and  N_8
REMARK                            x       y       z     vdW  Elec       q    Type
REMARK                         _______ _______ _______ _____ _____    ______ ____
ROOT
ATOM      1  C   UNL     1      44.709   4.046  11.309  0.00  0.00    +0.000 A 
ATOM      2  C   UNL     1      44.982   5.197  10.557  0.00  0.00    +0.000 A 
ATOM      3  C   UNL     1      45.543   6.327  11.158  0.00  0.00    +0.000 A 
ATOM      4  C   UNL     1      45.840   6.334  12.527  0.00  0.00    +0.000 A 
ATOM      5  C   UNL     1      45.579   5.178  13.277  0.00  0.00    +0.000 A 
ATOM      6  C   UNL     1      45.022   4.046  12.673  0.00  0.00    +0.000 A 
ENDROOT
BRANCH   1   7
ATOM      7  C   UNL     1      44.057   2.848  10.668  0.00  0.00    +0.000 C 
BRANCH   7   8
ATOM      8  N   UNL     1      43.054   2.246  11.537  0.00  0.00    +0.000 NA
ATOM      9  H   UNL     1      42.141   2.638  11.312  0.00  0.00    +0.000 HD
ATOM     10  H   UNL     1      43.253   2.512  12.500  0.00  0.00    +0.000 HD
ENDBRANCH   7   8
ENDBRANCH   1   7
BRANCH   4  11
ATOM     11  C   UNL     1      46.424   7.557  13.189  0.00  0.00    +0.000 C 
BRANCH  11  12
ATOM     12  N   UNL     1      47.772   7.860  12.713  0.00  0.00    +0.000 N 
ATOM     13  C   UNL     1      48.796   6.944  12.655  0.00  0.00    +0.000 A 
ATOM     14  C   UNL     1      49.865   7.535  12.023  0.00  0.00    +0.000 A 
ATOM     15  C   UNL     1      49.481   8.857  11.673  0.00  0.00    +0.000 A 
ATOM     16  C   UNL     1      50.123   9.908  11.003  0.00  0.00    +0.000 A 
ATOM     17  C   UNL     1      49.397  11.077  10.846  0.00  0.00    +0.000 A 
ATOM     18  N   UNL     1      48.140  11.269  11.298  0.00  0.00    +0.000 NA
ATOM     19  C   UNL     1      47.516  10.261  11.949  0.00  0.00    +0.000 A 
ATOM     20  C   UNL     1      48.175   9.047  12.130  0.00  0.00    +0.000 A 
ENDBRANCH  11  12
ENDBRANCH   4  11
TORSDOF 4
ENDMDL
MODEL 6
REMARK VINA RESULT:    -5.209      3.650      7.187
REMARK INTER + INTRA:          -6.668
REMARK INTER:                  -6.206
REMARK INTRA:                  -0.461
REMARK UNBOUND:                -0.393
REMARK  Name = 
REMARK  4 active torsions:
REMARK  status: ('A' for Active; 'I' for Inactive)
REMARK    1  A    between atoms: N_1  and  C_2
REMARK    2  A    between atoms: C_2  and  C_3
REMARK    3  A    between atoms: C_6  and  C_7
REMARK    4  A    between atoms: C_7  and  N_8
REMARK                            x       y       z     vdW  Elec       q    Type
REMARK                         _______ _______ _______ _____ _____    ______ ____
ROOT
ATOM      1  C   UNL     1      48.020   5.155  17.749  0.00  0.00    +0.000 A 
ATOM      2  C   UNL     1      48.685   6.163  17.039  0.00  0.00    +0.000 A 
ATOM      3  C   UNL     1      48.572   6.252  15.648  0.00  0.00    +0.000 A 
ATOM      4  C   UNL     1      47.793   5.330  14.936  0.00  0.00    +0.000 A 
ATOM      5  C   UNL     1      47.117   4.330  15.649  0.00  0.00    +0.000 A 
ATOM      6  C   UNL     1      47.227   4.245  17.040  0.00  0.00    +0.000 A 
ENDROOT
BRANCH   1   7
ATOM      7  C   UNL     1      48.186   5.032  19.242  0.00  0.00    +0.000 C 
BRANCH   7   8
ATOM      8  N   UNL     1      48.523   3.671  19.641  0.00  0.00    +0.000 NA
ATOM      9  H   UNL     1      48.120   3.484  20.557  0.00  0.00    +0.000 HD
ATOM     10  H   UNL     1      49.533   3.603  19.751  0.00  0.00    +0.000 HD
ENDBRANCH   7   8
ENDBRANCH   1   7
BRANCH   4  11
ATOM     11  C   UNL     1      47.684   5.404  13.434  0.00  0.00    +0.000 C 
BRANCH  11  12
ATOM     12  N   UNL     1      46.420   5.991  12.994  0.00  0.00    +0.000 N 
ATOM     13  C   UNL     1      46.206   7.341  12.842  0.00  0.00    +0.000 A 
ATOM     14  C   UNL     1      44.965   7.517  12.276  0.00  0.00    +0.000 A 
ATOM     15  C   UNL     1      44.399   6.231  12.066  0.00  0.00    +0.000 A 
ATOM     16  C   UNL     1      43.195   5.780  11.510  0.00  0.00    +0.000 A 
ATOM     17  C   UNL     1      43.004   4.408  11.476  0.00  0.00    +0.000 A 
ATOM     18  N   UNL     1      43.882   3.497  11.944  0.00  0.00    +0.000 NA
ATOM     19  C   UNL     1      45.045   3.926  12.485  0.00  0.00    +0.000 A 
ATOM     20  C   UNL     1      45.318   5.290  12.539  0.00  0.00    +0.000 A 
ENDBRANCH  11  12
ENDBRANCH   4  11
TORSDOF 4
ENDMDL
MODEL 7
REMARK VINA RESULT:    -5.196      4.525      7.729
REMARK INTER + INTRA:          -6.652
REMARK INTER:                  -6.194
REMARK INTRA:                  -0.458
REMARK UNBOUND:                -0.393
REMARK  Name = 
REMARK  4 active torsions:
REMARK  status: ('A' for Active; 'I' for Inactive)
REMARK    1  A    between atoms: N_1  and  C_2
REMARK    2  A    between atoms: C_2  and  C_3
REMARK    3  A    between atoms: C_6  and  C_7
REMARK    4  A    between atoms: C_7  and  N_8
REMARK                            x       y       z     vdW  Elec       q    Type
REMARK                         _______ _______ _______ _____ _____    ______ ____
ROOT
ATOM      1  C   UNL     1      50.912   2.414  17.429  0.00  0.00    +0.000 A 
ATOM      2  C   UNL     1      50.899   3.786  17.713  0.00  0.00    +0.000 A 
ATOM      3  C   UNL     1      49.777   4.566  17.420  0.00  0.00    +0.000 A 
ATOM      4  C   UNL     1      48.642   3.991  16.832  0.00  0.00    +0.000 A 
ATOM      5  C   UNL     1      48.651   2.615  16.561  0.00  0.00    +0.000 A 
ATOM      6  C   UNL     1      49.772   1.835  16.859  0.00  0.00    +0.000 A 
ENDROOT
BRANCH   1   7
ATOM      7  C   UNL     1      52.143   1.587  17.699  0.00  0.00    +0.000 C 
BRANCH   7   8
ATOM      8  N   UNL     1      51.806   0.222  18.085  0.00  0.00    +0.000 NA
ATOM      9  H   UNL     1      51.301  -0.224  17.322  0.00  0.00    +0.000 HD
ATOM     10  H   UNL     1      51.164   0.255  18.876  0.00  0.00    +0.000 HD
ENDBRANCH   7   8
ENDBRANCH   1   7
BRANCH   4  11
ATOM     11  C   UNL     1      47.435   4.828  16.491  0.00  0.00    +0.000 C 
BRANCH  11  12
ATOM     12  N   UNL     1      47.321   5.086  15.057  0.00  0.00    +0.000 N 
ATOM     13  C   UNL     1      46.434   4.446  14.224  0.00  0.00    +0.000 A 
ATOM     14  C   UNL     1      46.501   5.041  12.986  0.00  0.00    +0.000 A 
ATOM     15  C   UNL     1      47.457   6.090  13.063  0.00  0.00    +0.000 A 
ATOM     16  C   UNL     1      47.925   7.043  12.150  0.00  0.00    +0.000 A 
ATOM     17  C   UNL     1      48.885   7.928  12.616  0.00  0.00    +0.000 A 
ATOM     18  N   UNL     1      49.395   7.922  13.865  0.00  0.00    +0.000 NA
ATOM     19  C   UNL     1      48.950   7.002  14.751  0.00  0.00    +0.000 A 
ATOM     20  C   UNL     1      47.972   6.090  14.362  0.00  0.00    +0.000 A 
ENDBRANCH  11  12
ENDBRANCH   4  11
TORSDOF 4
ENDMDL
MODEL 8
REMARK VINA RESULT:    -5.083      4.177      8.037
REMARK INTER + INTRA:          -6.516
REMARK INTER:                  -6.029
REMARK INTRA:                  -0.487
REMARK UNBOUND:                -0.393
REMARK  Name = 
REMARK  4 active torsions:
REMARK  status: ('A' for Active; 'I' for Inactive)
REMARK    1  A    between atoms: N_1  and  C_2
REMARK    2  A    between atoms: C_2  and  C_3
REMARK    3  A    between atoms: C_6  and  C_7
REMARK    4  A    between atoms: C_7  and  N_8
REMARK                            x       y       z     vdW  Elec       q    Type
REMARK                         _______ _______ _______ _____ _____    ______ ____
ROOT
ATOM      1  C   UNL     1      51.591   2.444  17.591  0.00  0.00    +0.000 A 
ATOM      2  C   UNL     1      50.246   2.151  17.325  0.00  0.00    +0.000 A 
ATOM      3  C   UNL     1      49.299   3.174  17.219  0.00  0.00    +0.000 A 
ATOM      4  C   UNL     1      49.675   4.514  17.379  0.00  0.00    +0.000 A 
ATOM      5  C   UNL     1      51.024   4.807  17.630  0.00  0.00    +0.000 A 
ATOM      6  C   UNL     1      51.971   3.784  17.732  0.00  0.00    +0.000 A 
ENDROOT
BRANCH   1   7
ATOM      7  C   UNL     1      52.599   1.335  17.756  0.00  0.00    +0.000 C 
BRANCH   7   8
ATOM      8  N   UNL     1      51.977   0.102  18.222  0.00  0.00    +0.000 NA
ATOM      9  H   UNL     1      51.069   0.321  18.627  0.00  0.00    +0.000 HD
ATOM     10  H   UNL     1      52.543  -0.286  18.974  0.00  0.00    +0.000 HD
ENDBRANCH   7   8
ENDBRANCH   1   7
BRANCH   4  11
ATOM     11  C   UNL     1      48.658   5.622  17.288  0.00  0.00    +0.000 C 
BRANCH  11  12
ATOM     12  N   UNL     1      48.538   6.162  15.935  0.00  0.00    +0.000 N 
ATOM     13  C   UNL     1      49.353   7.142  15.419  0.00  0.00    +0.000 A 
ATOM     14  C   UNL     1      49.051   7.294  14.086  0.00  0.00    +0.000 A 
ATOM     15  C   UNL     1      48.020   6.369  13.770  0.00  0.00    +0.000 A 
ATOM     16  C   UNL     1      47.335   6.046  12.591  0.00  0.00    +0.000 A 
ATOM     17  C   UNL     1      46.372   5.054  12.686  0.00  0.00    +0.000 A 
ATOM     18  N   UNL     1      46.051   4.400  13.822  0.00  0.00    +0.000 NA
ATOM     19  C   UNL     1      46.706   4.709  14.964  0.00  0.00    +0.000 A 
ATOM     20  C   UNL     1      47.701   5.683  14.945  0.00  0.00    +0.000 A 
ENDBRANCH  11  12
ENDBRANCH   4  11
TORSDOF 4
ENDMDL
MODEL 9
REMARK VINA RESULT:    -5.058      3.250      5.006
REMARK INTER + INTRA:          -6.486
REMARK INTER:                  -6.019
REMARK INTRA:                  -0.467
REMARK UNBOUND:                -0.393
REMARK  Name = 
REMARK  4 active torsions:
REMARK  status: ('A' for Active; 'I' for Inactive)
REMARK    1  A    between atoms: N_1  and  C_2
REMARK    2  A    between atoms: C_2  and  C_3
REMARK    3  A    between atoms: C_6  and  C_7
REMARK    4  A    between atoms: C_7  and  N_8
REMARK                            x       y       z     vdW  Elec       q    Type
REMARK                         _______ _______ _______ _____ _____    ______ ____
ROOT
ATOM      1  C   UNL     1      44.664   4.052  11.435  0.00  0.00    +0.000 A 
ATOM      2  C   UNL     1      45.483   4.008  12.572  0.00  0.00    +0.000 A 
ATOM      3  C   UNL     1      46.026   5.179  13.108  0.00  0.00    +0.000 A 
ATOM      4  C   UNL     1      45.765   6.422  12.515  0.00  0.00    +0.000 A 
ATOM      5  C   UNL     1      44.935   6.466  11.386  0.00  0.00    +0.000 A 
ATOM      6  C   UNL     1      44.389   5.295  10.854  0.00  0.00    +0.000 A 
ENDROOT
BRANCH   1   7
ATOM      7  C   UNL     1      44.123   2.781  10.830  0.00  0.00    +0.000 C 
BRANCH   7   8
ATOM      8  N   UNL     1      43.025   2.231  11.616  0.00  0.00    +0.000 NA
ATOM      9  H   UNL     1      43.123   1.219  11.660  0.00  0.00    +0.000 HD
ATOM     10  H   UNL     1      42.150   2.416  11.127  0.00  0.00    +0.000 HD
ENDBRANCH   7   8
ENDBRANCH   1   7
BRANCH   4  11
ATOM     11  C   UNL     1      46.364   7.688  13.072  0.00  0.00    +0.000 C 
BRANCH  11  12
ATOM     12  N   UNL     1      47.815   7.742  12.903  0.00  0.00    +0.000 N 
ATOM     13  C   UNL     1      48.444   8.077  11.727  0.00  0.00    +0.000 A 
ATOM     14  C   UNL     1      49.794   8.168  11.974  0.00  0.00    +0.000 A 
ATOM     15  C   UNL     1      50.001   7.888  13.351  0.00  0.00    +0.000 A 
ATOM     16  C   UNL     1      51.134   7.856  14.175  0.00  0.00    +0.000 A 
ATOM     17  C   UNL     1      50.922   7.537  15.507  0.00  0.00    +0.000 A 
ATOM     18  N   UNL     1      49.720   7.250  16.047  0.00  0.00    +0.000 NA
ATOM     19  C   UNL     1      48.623   7.275  15.257  0.00  0.00    +0.000 A 
ATOM     20  C   UNL     1      48.752   7.606  13.911  0.00  0.00    +0.000 A 
ENDBRANCH  11  12
ENDBRANCH   4  11
TORSDOF 4
ENDMDL
