MODEL 1
REMARK VINA RESULT:    -9.598      0.000      0.000
REMARK INTER + INTRA:         -12.421
REMARK INTER:                 -12.403
REMARK INTRA:                  -0.018
REMARK UNBOUND:                -0.018
REMARK  Name = 
REMARK  5 active torsions:
REMARK  status: ('A' for Active; 'I' for Inactive)
REMARK    1  A    between atoms: C_2  and  C_4
REMARK    2  A    between atoms: C_7  and  N_8
REMARK    3  A    between atoms: N_8  and  C_9
REMARK    4  A    between atoms: C_9  and  C_10
REMARK    5  A    between atoms: C_14  and  C_15
REMARK                            x       y       z     vdW  Elec       q    Type
REMARK                         _______ _______ _______ _____ _____    ______ ____
ROOT
ATOM      1  C   UNL     1      44.011   4.859  11.428  0.00  0.00    +0.000 C 
ATOM      2  C   UNL     1      43.303   3.786  12.250  0.00  0.00    +0.000 C 
ATOM      3  C   UNL     1      42.810   5.190  12.298  0.00  0.00    +0.000 C 
ENDROOT
BRANCH   1   4
ATOM      4  C   UNL     1      45.376   5.337  11.923  0.00  0.00    +0.000 A 
ATOM      5  C   UNL     1      46.089   6.350  11.264  0.00  0.00    +0.000 A 
ATOM      6  C   UNL     1      47.285   6.844  11.783  0.00  0.00    +0.000 A 
ATOM      7  C   UNL     1      47.780   6.351  12.990  0.00  0.00    +0.000 A 
ATOM      8  C   UNL     1      47.102   5.348  13.699  0.00  0.00    +0.000 A 
ATOM      9  C   UNL     1      45.933   4.827  13.112  0.00  0.00    +0.000 A 
BRANCH   8  10
ATOM     10  C   UNL     1      47.512   4.935  15.063  0.00  0.00    +0.000 A 
ATOM     11  C   UNL     1      47.264   3.620  15.509  0.00  0.00    +0.000 A 
ATOM     12  C   UNL     1      47.735   3.168  16.745  0.00  0.00    +0.000 A 
ATOM     13  C   UNL     1      48.471   4.025  17.551  0.00  0.00    +0.000 A 
ATOM     14  F   UNL     1      48.948   3.580  18.721  0.00  0.00    +0.000 F 
ATOM     15  C   UNL     1      48.725   5.328  17.158  0.00  0.00    +0.000 A 
ATOM     16  C   UNL     1      48.240   5.773  15.930  0.00  0.00    +0.000 A 
ATOM     17  F   UNL     1      48.510   7.043  15.586  0.00  0.00    +0.000 F 
ENDBRANCH   8  10
ENDBRANCH   1   4
BRANCH   1  18
ATOM     18  N   UNL     1      43.902   4.729   9.963  0.00  0.00    +0.000 N 
ATOM     19  H   UNL     1      42.965   4.619   9.577  0.00  0.00    +0.000 HD
BRANCH  18  23
ATOM     20  C   UNL     1      46.450   2.387   7.751  0.00  0.00    +0.000 A 
ATOM     21  C   UNL     1      46.373   3.758   7.566  0.00  0.00    +0.000 A 
ATOM     22  N   UNL     1      45.527   4.545   8.288  0.00  0.00    +0.000 NA
ATOM     23  C   UNL     1      44.755   3.918   9.205  0.00  0.00    +0.000 A 
ATOM     24  C   UNL     1      44.868   2.537   9.387  0.00  0.00    +0.000 A 
ATOM     25  N   UNL     1      45.698   1.734   8.674  0.00  0.00    +0.000 NA
BRANCH  20  27
ATOM     26  N   UNL     1      48.477   2.194   6.457  0.00  0.00    +0.000 N 
ATOM     27  C   UNL     1      47.361   1.554   6.923  0.00  0.00    +0.000 C 
ATOM     28  O   UNL     1      47.132   0.378   6.679  0.00  0.00    +0.000 OA
ATOM     29  H   UNL     1      49.151   1.688   5.898  0.00  0.00    +0.000 HD
ATOM     30  H   UNL     1      48.631   3.168   6.685  0.00  0.00    +0.000 HD
ENDBRANCH  20  27
ENDBRANCH  18  23
ENDBRANCH   1  18
TORSDOF 5
ENDMDL
MODEL 2
REMARK VINA RESULT:    -9.570      2.503      4.072
REMARK INTER + INTRA:         -12.385
REMARK INTER:                 -11.364
REMARK INTRA:                  -1.021
REMARK UNBOUND:                -0.018
REMARK  Name = 
REMARK  5 active torsions:
REMARK  status: ('A' for Active; 'I' for Inactive)
REMARK    1  A    between atoms: C_2  and  C_4
REMARK    2  A    between atoms: C_7  and  N_8
REMARK    3  A    between atoms: N_8  and  C_9
REMARK    4  A    between atoms: C_9  and  C_10
REMARK    5  A    between atoms: C_14  and  C_15
REMARK                            x       y       z     vdW  Elec       q    Type
REMARK                         _______ _______ _______ _____ _____    ______ ____
ROOT
ATOM      1  C   UNL     1      43.789   4.804  11.384  0.00  0.00    +0.000 C 
ATOM      2  C   UNL     1      42.468   5.202  12.037  0.00  0.00    +0.000 C 
ATOM      3  C   UNL     1      43.031   6.050  10.951  0.00  0.00    +0.000 C 
ENDROOT
BRANCH   1   4
ATOM      4  C   UNL     1      45.066   5.020  12.195  0.00  0.00    +0.000 A 
ATOM      5  C   UNL     1      45.596   4.018  13.021  0.00  0.00    +0.000 A 
ATOM      6  C   UNL     1      46.814   4.193  13.677  0.00  0.00    +0.000 A 
ATOM      7  C   UNL     1      47.543   5.369  13.496  0.00  0.00    +0.000 A 
ATOM      8  C   UNL     1      47.068   6.399  12.670  0.00  0.00    +0.000 A 
ATOM      9  C   UNL     1      45.804   6.214  12.078  0.00  0.00    +0.000 A 
BRANCH   8  10
ATOM     10  C   UNL     1      47.900   7.576  12.325  0.00  0.00    +0.000 A 
ATOM     11  C   UNL     1      49.228   7.398  11.880  0.00  0.00    +0.000 A 
ATOM     12  C   UNL     1      50.001   8.476  11.441  0.00  0.00    +0.000 A 
ATOM     13  C   UNL     1      49.455   9.751  11.434  0.00  0.00    +0.000 A 
ATOM     14  F   UNL     1      50.187  10.779  10.984  0.00  0.00    +0.000 F 
ATOM     15  C   UNL     1      48.161   9.973  11.875  0.00  0.00    +0.000 A 
ATOM     16  C   UNL     1      47.402   8.893  12.322  0.00  0.00    +0.000 A 
ATOM     17  F   UNL     1      46.152   9.151  12.740  0.00  0.00    +0.000 F 
ENDBRANCH   8  10
ENDBRANCH   1   4
BRANCH   1  18
ATOM     18  N   UNL     1      43.769   3.563  10.589  0.00  0.00    +0.000 N 
ATOM     19  H   UNL     1      43.641   2.690  11.098  0.00  0.00    +0.000 HD
BRANCH  18  23
ATOM     20  C   UNL     1      46.409   2.765   7.545  0.00  0.00    +0.000 A 
ATOM     21  C   UNL     1      45.942   1.768   8.386  0.00  0.00    +0.000 A 
ATOM     22  N   UNL     1      45.072   2.020   9.403  0.00  0.00    +0.000 NA
ATOM     23  C   UNL     1      44.681   3.306   9.558  0.00  0.00    +0.000 A 
ATOM     24  C   UNL     1      45.151   4.289   8.682  0.00  0.00    +0.000 A 
ATOM     25  N   UNL     1      46.023   4.061   7.668  0.00  0.00    +0.000 NA
BRANCH  20  27
ATOM     26  N   UNL     1      47.266   3.225   5.337  0.00  0.00    +0.000 N 
ATOM     27  C   UNL     1      47.384   2.459   6.465  0.00  0.00    +0.000 C 
ATOM     28  O   UNL     1      48.235   1.588   6.577  0.00  0.00    +0.000 OA
ATOM     29  H   UNL     1      47.903   3.085   4.564  0.00  0.00    +0.000 HD
ATOM     30  H   UNL     1      46.549   3.938   5.286  0.00  0.00    +0.000 HD
ENDBRANCH  20  27
ENDBRANCH  18  23
ENDBRANCH   1  18
TORSDOF 5
ENDMDL
MODEL 3
REMARK VINA RESULT:    -9.317      4.552      7.738
REMARK INTER + INTRA:         -12.058
REMARK INTER:                 -11.218
REMARK INTRA:                  -0.840
REMARK UNBOUND:                -0.018
REMARK  Name = 
REMARK  5 active torsions:
REMARK  status: ('A' for Active; 'I' for Inactive)
REMARK    1  A    between atoms: C_2  and  C_4
REMARK    2  A    between atoms: C_7  and  N_8
REMARK    3  A    between atoms: N_8  and  C_9
REMARK    4  A    between atoms: C_9  and  C_10
REMARK    5  A    between atoms: C_14  and  C_15
REMARK                            x       y       z     vdW  Elec       q    Type
REMARK                         _______ _______ _______ _____ _____    ______ ____
ROOT
ATOM      1  C   UNL     1      46.357   7.309  12.442  0.00  0.00    +0.000 C 
ATOM      2  C   UNL     1      46.561   8.708  11.868  0.00  0.00    +0.000 C 
ATOM      3  C   UNL     1      45.789   8.541  13.130  0.00  0.00    +0.000 C 
ENDROOT
BRANCH   1   4
ATOM      4  C   UNL     1      45.360   6.395  11.729  0.00  0.00    +0.000 A 
ATOM      5  C   UNL     1      43.975   6.563  11.864  0.00  0.00    +0.000 A 
ATOM      6  C   UNL     1      43.079   5.786  11.130  0.00  0.00    +0.000 A 
ATOM      7  C   UNL     1      43.555   4.838  10.224  0.00  0.00    +0.000 A 
ATOM      8  C   UNL     1      44.932   4.637  10.038  0.00  0.00    +0.000 A 
ATOM      9  C   UNL     1      45.804   5.393  10.843  0.00  0.00    +0.000 A 
BRANCH   8  10
ATOM     10  C   UNL     1      45.460   3.767   8.960  0.00  0.00    +0.000 A 
ATOM     11  C   UNL     1      46.216   4.325   7.907  0.00  0.00    +0.000 A 
ATOM     12  C   UNL     1      46.820   3.520   6.937  0.00  0.00    +0.000 A 
ATOM     13  C   UNL     1      46.684   2.142   7.011  0.00  0.00    +0.000 A 
ATOM     14  F   UNL     1      47.290   1.370   6.098  0.00  0.00    +0.000 F 
ATOM     15  C   UNL     1      45.940   1.553   8.019  0.00  0.00    +0.000 A 
ATOM     16  C   UNL     1      45.331   2.365   8.975  0.00  0.00    +0.000 A 
ATOM     17  F   UNL     1      44.619   1.755   9.936  0.00  0.00    +0.000 F 
ENDBRANCH   8  10
ENDBRANCH   1   4
BRANCH   1  18
ATOM     18  N   UNL     1      47.568   6.629  12.935  0.00  0.00    +0.000 N 
ATOM     19  H   UNL     1      48.170   6.193  12.238  0.00  0.00    +0.000 HD
BRANCH  18  23
ATOM     20  C   UNL     1      47.557   4.222  16.263  0.00  0.00    +0.000 A 
ATOM     21  C   UNL     1      48.324   5.374  16.198  0.00  0.00    +0.000 A 
ATOM     22  N   UNL     1      48.342   6.177  15.098  0.00  0.00    +0.000 NA
ATOM     23  C   UNL     1      47.568   5.792  14.057  0.00  0.00    +0.000 A 
ATOM     24  C   UNL     1      46.787   4.637  14.157  0.00  0.00    +0.000 A 
ATOM     25  N   UNL     1      46.760   3.820  15.239  0.00  0.00    +0.000 NA
BRANCH  20  27
ATOM     26  N   UNL     1      48.698   3.479  18.254  0.00  0.00    +0.000 N 
ATOM     27  C   UNL     1      47.586   3.351  17.467  0.00  0.00    +0.000 C 
ATOM     28  O   UNL     1      46.678   2.577  17.738  0.00  0.00    +0.000 OA
ATOM     29  H   UNL     1      48.782   2.928  19.099  0.00  0.00    +0.000 HD
ATOM     30  H   UNL     1      49.425   4.133  17.995  0.00  0.00    +0.000 HD
ENDBRANCH  20  27
ENDBRANCH  18  23
ENDBRANCH   1  18
TORSDOF 5
ENDMDL
MODEL 4
REMARK VINA RESULT:    -8.143      4.876      8.069
REMARK INTER + INTRA:         -10.542
REMARK INTER:                  -9.431
REMARK INTRA:                  -1.110
REMARK UNBOUND:                -0.018
REMARK  Name = 
REMARK  5 active torsions:
REMARK  status: ('A' for Active; 'I' for Inactive)
REMARK    1  A    between atoms: C_2  and  C_4
REMARK    2  A    between atoms: C_7  and  N_8
REMARK    3  A    between atoms: N_8  and  C_9
REMARK    4  A    between atoms: C_9  and  C_10
REMARK    5  A    between atoms: C_14  and  C_15
REMARK                            x       y       z     vdW  Elec       q    Type
REMARK                         _______ _______ _______ _____ _____    ______ ____
ROOT
ATOM      1  C   UNL     1      48.756   8.107  12.699  0.00  0.00    +0.000 C 
ATOM      2  C   UNL     1      49.648   8.812  11.682  0.00  0.00    +0.000 C 
ATOM      3  C   UNL     1      49.195   9.549  12.893  0.00  0.00    +0.000 C 
ENDROOT
BRANCH   1   4
ATOM      4  C   UNL     1      47.295   7.875  12.313  0.00  0.00    +0.000 A 
ATOM      5  C   UNL     1      46.345   8.906  12.360  0.00  0.00    +0.000 A 
ATOM      6  C   UNL     1      45.041   8.706  11.911  0.00  0.00    +0.000 A 
ATOM      7  C   UNL     1      44.666   7.471  11.379  0.00  0.00    +0.000 A 
ATOM      8  C   UNL     1      45.579   6.409  11.295  0.00  0.00    +0.000 A 
ATOM      9  C   UNL     1      46.867   6.627  11.818  0.00  0.00    +0.000 A 
BRANCH   8  10
ATOM     10  C   UNL     1      45.258   5.153  10.576  0.00  0.00    +0.000 A 
ATOM     11  C   UNL     1      45.597   5.010   9.213  0.00  0.00    +0.000 A 
ATOM     12  C   UNL     1      45.409   3.802   8.537  0.00  0.00    +0.000 A 
ATOM     13  C   UNL     1      44.884   2.712   9.217  0.00  0.00    +0.000 A 
ATOM     14  F   UNL     1      44.734   1.545   8.576  0.00  0.00    +0.000 F 
ATOM     15  C   UNL     1      44.525   2.811  10.551  0.00  0.00    +0.000 A 
ATOM     16  C   UNL     1      44.705   4.025  11.213  0.00  0.00    +0.000 A 
ATOM     17  F   UNL     1      44.345   4.079  12.506  0.00  0.00    +0.000 F 
ENDBRANCH   8  10
ENDBRANCH   1   4
BRANCH   1  18
ATOM     18  N   UNL     1      49.377   6.995  13.443  0.00  0.00    +0.000 N 
ATOM     19  H   UNL     1      49.526   6.125  12.935  0.00  0.00    +0.000 HD
BRANCH  18  23
ATOM     20  C   UNL     1      48.298   5.926  17.259  0.00  0.00    +0.000 A 
ATOM     21  C   UNL     1      47.954   5.156  16.161  0.00  0.00    +0.000 A 
ATOM     22  N   UNL     1      48.299   5.502  14.889  0.00  0.00    +0.000 NA
ATOM     23  C   UNL     1      49.002   6.649  14.747  0.00  0.00    +0.000 A 
ATOM     24  C   UNL     1      49.355   7.397  15.874  0.00  0.00    +0.000 A 
ATOM     25  N   UNL     1      49.015   7.074  17.147  0.00  0.00    +0.000 NA
BRANCH  20  27
ATOM     26  N   UNL     1      46.528   5.572  18.860  0.00  0.00    +0.000 N 
ATOM     27  C   UNL     1      47.876   5.534  18.630  0.00  0.00    +0.000 C 
ATOM     28  O   UNL     1      48.677   5.198  19.491  0.00  0.00    +0.000 OA
ATOM     29  H   UNL     1      46.164   5.305  19.765  0.00  0.00    +0.000 HD
ATOM     30  H   UNL     1      45.899   5.853  18.118  0.00  0.00    +0.000 HD
ENDBRANCH  20  27
ENDBRANCH  18  23
ENDBRANCH   1  18
TORSDOF 5
ENDMDL
MODEL 5
REMARK VINA RESULT:    -7.631      2.845      4.683
REMARK INTER + INTRA:          -9.880
REMARK INTER:                  -8.883
REMARK INTRA:                  -0.996
REMARK UNBOUND:                -0.018
REMARK  Name = 
REMARK  5 active torsions:
REMARK  status: ('A' for Active; 'I' for Inactive)
REMARK    1  A    between atoms: C_2  and  C_4
REMARK    2  A    between atoms: C_7  and  N_8
REMARK    3  A    between atoms: N_8  and  C_9
REMARK    4  A    between atoms: C_9  and  C_10
REMARK    5  A    between atoms: C_14  and  C_15
REMARK                            x       y       z     vdW  Elec       q    Type
REMARK                         _______ _______ _______ _____ _____    ______ ____
ROOT
ATOM      1  C   UNL     1      47.623   8.066  13.341  0.00  0.00    +0.000 C 
ATOM      2  C   UNL     1      48.136   9.210  12.472  0.00  0.00    +0.000 C 
ATOM      3  C   UNL     1      48.561   7.816  12.171  0.00  0.00    +0.000 C 
ENDROOT
BRANCH   1   4
ATOM      4  C   UNL     1      48.215   7.927  14.743  0.00  0.00    +0.000 A 
ATOM      5  C   UNL     1      48.109   8.951  15.696  0.00  0.00    +0.000 A 
ATOM      6  C   UNL     1      48.566   8.773  17.001  0.00  0.00    +0.000 A 
ATOM      7  C   UNL     1      49.118   7.550  17.388  0.00  0.00    +0.000 A 
ATOM      8  C   UNL     1      49.236   6.487  16.480  0.00  0.00    +0.000 A 
ATOM      9  C   UNL     1      48.825   6.725  15.156  0.00  0.00    +0.000 A 
BRANCH   8  10
ATOM     10  C   UNL     1      49.653   5.130  16.910  0.00  0.00    +0.000 A 
ATOM     11  C   UNL     1      48.735   4.059  16.860  0.00  0.00    +0.000 A 
ATOM     12  C   UNL     1      49.126   2.750  17.153  0.00  0.00    +0.000 A 
ATOM     13  C   UNL     1      50.446   2.490  17.492  0.00  0.00    +0.000 A 
ATOM     14  F   UNL     1      50.826   1.229  17.742  0.00  0.00    +0.000 F 
ATOM     15  C   UNL     1      51.376   3.513  17.567  0.00  0.00    +0.000 A 
ATOM     16  C   UNL     1      50.974   4.817  17.285  0.00  0.00    +0.000 A 
ATOM     17  F   UNL     1      51.906   5.780  17.368  0.00  0.00    +0.000 F 
ENDBRANCH   8  10
ENDBRANCH   1   4
BRANCH   1  18
ATOM     18  N   UNL     1      46.178   7.786  13.256  0.00  0.00    +0.000 N 
ATOM     19  H   UNL     1      45.618   7.987  14.084  0.00  0.00    +0.000 HD
BRANCH  18  23
ATOM     20  C   UNL     1      44.631   4.345  11.633  0.00  0.00    +0.000 A 
ATOM     21  C   UNL     1      45.149   4.377  12.917  0.00  0.00    +0.000 A 
ATOM     22  N   UNL     1      45.671   5.510  13.465  0.00  0.00    +0.000 NA
ATOM     23  C   UNL     1      45.662   6.616  12.686  0.00  0.00    +0.000 A 
ATOM     24  C   UNL     1      45.113   6.562  11.402  0.00  0.00    +0.000 A 
ATOM     25  N   UNL     1      44.595   5.443  10.835  0.00  0.00    +0.000 NA
BRANCH  20  27
ATOM     26  N   UNL     1      44.887   2.498  10.102  0.00  0.00    +0.000 N 
ATOM     27  C   UNL     1      44.098   3.083  11.055  0.00  0.00    +0.000 C 
ATOM     28  O   UNL     1      43.033   2.598  11.409  0.00  0.00    +0.000 OA
ATOM     29  H   UNL     1      44.597   1.630   9.673  0.00  0.00    +0.000 HD
ATOM     30  H   UNL     1      45.763   2.931   9.840  0.00  0.00    +0.000 HD
ENDBRANCH  20  27
ENDBRANCH  18  23
ENDBRANCH   1  18
TORSDOF 5
ENDMDL
MODEL 6
REMARK VINA RESULT:    -7.310      2.958      4.615
REMARK INTER + INTRA:          -9.464
REMARK INTER:                  -8.782
REMARK INTRA:                  -0.682
REMARK UNBOUND:                -0.018
REMARK  Name = 
REMARK  5 active torsions:
REMARK  status: ('A' for Active; 'I' for Inactive)
REMARK    1  A    between atoms: C_2  and  C_4
REMARK    2  A    between atoms: C_7  and  N_8
REMARK    3  A    between atoms: N_8  and  C_9
REMARK    4  A    between atoms: C_9  and  C_10
REMARK    5  A    between atoms: C_14  and  C_15
REMARK                            x       y       z     vdW  Elec       q    Type
REMARK                         _______ _______ _______ _____ _____    ______ ____
ROOT
ATOM      1  C   UNL     1      47.846   7.666  13.046  0.00  0.00    +0.000 C 
ATOM      2  C   UNL     1      47.803   8.998  12.303  0.00  0.00    +0.000 C 
ATOM      3  C   UNL     1      48.180   7.761  11.565  0.00  0.00    +0.000 C 
ENDROOT
BRANCH   1   4
ATOM      4  C   UNL     1      49.015   7.433  14.003  0.00  0.00    +0.000 A 
ATOM      5  C   UNL     1      50.280   7.992  13.777  0.00  0.00    +0.000 A 
ATOM      6  C   UNL     1      51.308   7.854  14.709  0.00  0.00    +0.000 A 
ATOM      7  C   UNL     1      51.080   7.171  15.904  0.00  0.00    +0.000 A 
ATOM      8  C   UNL     1      49.829   6.602  16.190  0.00  0.00    +0.000 A 
ATOM      9  C   UNL     1      48.837   6.705  15.197  0.00  0.00    +0.000 A 
BRANCH   8  10
ATOM     10  C   UNL     1      49.512   6.029  17.520  0.00  0.00    +0.000 A 
ATOM     11  C   UNL     1      48.551   6.648  18.347  0.00  0.00    +0.000 A 
ATOM     12  C   UNL     1      48.150   6.074  19.556  0.00  0.00    +0.000 A 
ATOM     13  C   UNL     1      48.700   4.863  19.953  0.00  0.00    +0.000 A 
ATOM     14  F   UNL     1      48.291   4.298  21.097  0.00  0.00    +0.000 F 
ATOM     15  C   UNL     1      49.656   4.228  19.179  0.00  0.00    +0.000 A 
ATOM     16  C   UNL     1      50.059   4.815  17.981  0.00  0.00    +0.000 A 
ATOM     17  F   UNL     1      50.988   4.167  17.260  0.00  0.00    +0.000 F 
ENDBRANCH   8  10
ENDBRANCH   1   4
BRANCH   1  18
ATOM     18  N   UNL     1      46.551   7.148  13.522  0.00  0.00    +0.000 N 
ATOM     19  H   UNL     1      46.426   7.070  14.530  0.00  0.00    +0.000 HD
BRANCH  18  23
ATOM     20  C   UNL     1      44.704   3.923  11.772  0.00  0.00    +0.000 A 
ATOM     21  C   UNL     1      44.554   5.208  11.276  0.00  0.00    +0.000 A 
ATOM     22  N   UNL     1      45.155   6.287  11.851  0.00  0.00    +0.000 NA
ATOM     23  C   UNL     1      45.914   6.043  12.944  0.00  0.00    +0.000 A 
ATOM     24  C   UNL     1      46.067   4.734  13.411  0.00  0.00    +0.000 A 
ATOM     25  N   UNL     1      45.471   3.648  12.858  0.00  0.00    +0.000 NA
BRANCH  20  27
ATOM     26  N   UNL     1      44.619   2.256  10.030  0.00  0.00    +0.000 N 
ATOM     27  C   UNL     1      44.007   2.773  11.139  0.00  0.00    +0.000 C 
ATOM     28  O   UNL     1      42.961   2.317  11.580  0.00  0.00    +0.000 OA
ATOM     29  H   UNL     1      44.211   1.463   9.553  0.00  0.00    +0.000 HD
ATOM     30  H   UNL     1      45.486   2.662   9.699  0.00  0.00    +0.000 HD
ENDBRANCH  20  27
ENDBRANCH  18  23
ENDBRANCH   1  18
TORSDOF 5
ENDMDL
MODEL 7
REMARK VINA RESULT:    -7.124      5.001      7.910
REMARK INTER + INTRA:          -9.225
REMARK INTER:                  -8.077
REMARK INTRA:                  -1.147
REMARK UNBOUND:                -0.018
REMARK  Name = 
REMARK  5 active torsions:
REMARK  status: ('A' for Active; 'I' for Inactive)
REMARK    1  A    between atoms: C_2  and  C_4
REMARK    2  A    between atoms: C_7  and  N_8
REMARK    3  A    between atoms: N_8  and  C_9
REMARK    4  A    between atoms: C_9  and  C_10
REMARK    5  A    between atoms: C_14  and  C_15
REMARK                            x       y       z     vdW  Elec       q    Type
REMARK                         _______ _______ _______ _____ _____    ______ ____
ROOT
ATOM      1  C   UNL     1      49.183   8.529  16.976  0.00  0.00    +0.000 C 
ATOM      2  C   UNL     1      49.150  10.002  17.373  0.00  0.00    +0.000 C 
ATOM      3  C   UNL     1      47.905   9.192  17.467  0.00  0.00    +0.000 C 
ENDROOT
BRANCH   1   4
ATOM      4  C   UNL     1      49.264   8.203  15.485  0.00  0.00    +0.000 A 
ATOM      5  C   UNL     1      50.442   8.397  14.749  0.00  0.00    +0.000 A 
ATOM      6  C   UNL     1      50.531   8.003  13.415  0.00  0.00    +0.000 A 
ATOM      7  C   UNL     1      49.447   7.380  12.795  0.00  0.00    +0.000 A 
ATOM      8  C   UNL     1      48.249   7.148  13.488  0.00  0.00    +0.000 A 
ATOM      9  C   UNL     1      48.173   7.619  14.812  0.00  0.00    +0.000 A 
BRANCH   8  10
ATOM     10  C   UNL     1      47.153   6.335  12.910  0.00  0.00    +0.000 A 
ATOM     11  C   UNL     1      46.602   6.677  11.656  0.00  0.00    +0.000 A 
ATOM     12  C   UNL     1      45.646   5.869  11.034  0.00  0.00    +0.000 A 
ATOM     13  C   UNL     1      45.232   4.699  11.655  0.00  0.00    +0.000 A 
ATOM     14  F   UNL     1      44.339   3.910  11.042  0.00  0.00    +0.000 F 
ATOM     15  C   UNL     1      45.736   4.332  12.891  0.00  0.00    +0.000 A 
ATOM     16  C   UNL     1      46.679   5.151  13.509  0.00  0.00    +0.000 A 
ATOM     17  F   UNL     1      47.143   4.759  14.707  0.00  0.00    +0.000 F 
ENDBRANCH   8  10
ENDBRANCH   1   4
BRANCH   1  18
ATOM     18  N   UNL     1      49.984   7.644  17.842  0.00  0.00    +0.000 N 
ATOM     19  H   UNL     1      50.918   7.965  18.093  0.00  0.00    +0.000 HD
BRANCH  18  23
ATOM     20  C   UNL     1      50.178   3.587  17.230  0.00  0.00    +0.000 A 
ATOM     21  C   UNL     1      48.973   4.236  17.445  0.00  0.00    +0.000 A 
ATOM     22  N   UNL     1      48.895   5.579  17.656  0.00  0.00    +0.000 NA
ATOM     23  C   UNL     1      50.065   6.260  17.647  0.00  0.00    +0.000 A 
ATOM     24  C   UNL     1      51.264   5.584  17.406  0.00  0.00    +0.000 A 
ATOM     25  N   UNL     1      51.364   4.247  17.202  0.00  0.00    +0.000 NA
BRANCH  20  27
ATOM     26  N   UNL     1      51.106   1.447  17.847  0.00  0.00    +0.000 N 
ATOM     27  C   UNL     1      50.229   2.114  17.036  0.00  0.00    +0.000 C 
ATOM     28  O   UNL     1      49.533   1.537  16.212  0.00  0.00    +0.000 OA
ATOM     29  H   UNL     1      51.186   0.442  17.783  0.00  0.00    +0.000 HD
ATOM     30  H   UNL     1      51.662   1.963  18.518  0.00  0.00    +0.000 HD
ENDBRANCH  20  27
ENDBRANCH  18  23
ENDBRANCH   1  18
TORSDOF 5
ENDMDL
MODEL 8
REMARK VINA RESULT:    -6.693      5.486      7.999
REMARK INTER + INTRA:          -8.667
REMARK INTER:                  -7.450
REMARK INTRA:                  -1.217
REMARK UNBOUND:                -0.018
REMARK  Name = 
REMARK  5 active torsions:
REMARK  status: ('A' for Active; 'I' for Inactive)
REMARK    1  A    between atoms: C_2  and  C_4
REMARK    2  A    between atoms: C_7  and  N_8
REMARK    3  A    between atoms: N_8  and  C_9
REMARK    4  A    between atoms: C_9  and  C_10
REMARK    5  A    between atoms: C_14  and  C_15
REMARK                            x       y       z     vdW  Elec       q    Type
REMARK                         _______ _______ _______ _____ _____    ______ ____
ROOT
ATOM      1  C   UNL     1      49.747   9.369  15.588  0.00  0.00    +0.000 C 
ATOM      2  C   UNL     1      50.135  10.845  15.577  0.00  0.00    +0.000 C 
ATOM      3  C   UNL     1      48.792  10.446  16.079  0.00  0.00    +0.000 C 
ENDROOT
BRANCH   1   4
ATOM      4  C   UNL     1      49.422   8.718  14.243  0.00  0.00    +0.000 A 
ATOM      5  C   UNL     1      50.372   8.627  13.217  0.00  0.00    +0.000 A 
ATOM      6  C   UNL     1      50.093   7.942  12.034  0.00  0.00    +0.000 A 
ATOM      7  C   UNL     1      48.860   7.311  11.866  0.00  0.00    +0.000 A 
ATOM      8  C   UNL     1      47.877   7.358  12.866  0.00  0.00    +0.000 A 
ATOM      9  C   UNL     1      48.169   8.112  14.017  0.00  0.00    +0.000 A 
BRANCH   8  10
ATOM     10  C   UNL     1      46.635   6.551  12.785  0.00  0.00    +0.000 A 
ATOM     11  C   UNL     1      46.608   5.239  13.304  0.00  0.00    +0.000 A 
ATOM     12  C   UNL     1      45.427   4.495  13.343  0.00  0.00    +0.000 A 
ATOM     13  C   UNL     1      44.249   5.055  12.871  0.00  0.00    +0.000 A 
ATOM     14  F   UNL     1      43.111   4.351  12.938  0.00  0.00    +0.000 F 
ATOM     15  C   UNL     1      44.233   6.335  12.341  0.00  0.00    +0.000 A 
ATOM     16  C   UNL     1      45.419   7.065  12.294  0.00  0.00    +0.000 A 
ATOM     17  F   UNL     1      45.360   8.301  11.774  0.00  0.00    +0.000 F 
ENDBRANCH   8  10
ENDBRANCH   1   4
BRANCH   1  18
ATOM     18  N   UNL     1      50.499   8.509  16.519  0.00  0.00    +0.000 N 
ATOM     19  H   UNL     1      51.507   8.454  16.387  0.00  0.00    +0.000 HD
BRANCH  18  23
ATOM     20  C   UNL     1      49.172   4.772  17.592  0.00  0.00    +0.000 A 
ATOM     21  C   UNL     1      48.419   5.910  17.830  0.00  0.00    +0.000 A 
ATOM     22  N   UNL     1      48.850   7.156  17.486  0.00  0.00    +0.000 NA
ATOM     23  C   UNL     1      50.064   7.232  16.894  0.00  0.00    +0.000 A 
ATOM     24  C   UNL     1      50.795   6.066  16.645  0.00  0.00    +0.000 A 
ATOM     25  N   UNL     1      50.388   4.817  16.987  0.00  0.00    +0.000 NA
BRANCH  20  27
ATOM     26  N   UNL     1      48.502   3.270  19.356  0.00  0.00    +0.000 N 
ATOM     27  C   UNL     1      48.686   3.431  18.010  0.00  0.00    +0.000 C 
ATOM     28  O   UNL     1      48.460   2.536  17.208  0.00  0.00    +0.000 OA
ATOM     29  H   UNL     1      48.159   2.389  19.716  0.00  0.00    +0.000 HD
ATOM     30  H   UNL     1      48.698   4.038  19.987  0.00  0.00    +0.000 HD
ENDBRANCH  20  27
ENDBRANCH  18  23
ENDBRANCH   1  18
TORSDOF 5
ENDMDL
MODEL 9
REMARK VINA RESULT:    -6.666      5.463      8.572
REMARK INTER + INTRA:          -8.632
REMARK INTER:                  -8.647
REMARK INTRA:                   0.015
REMARK UNBOUND:                -0.018
REMARK  Name = 
REMARK  5 active torsions:
REMARK  status: ('A' for Active; 'I' for Inactive)
REMARK    1  A    between atoms: C_2  and  C_4
REMARK    2  A    between atoms: C_7  and  N_8
REMARK    3  A    between atoms: N_8  and  C_9
REMARK    4  A    between atoms: C_9  and  C_10
REMARK    5  A    between atoms: C_14  and  C_15
REMARK                            x       y       z     vdW  Elec       q    Type
REMARK                         _______ _______ _______ _____ _____    ______ ____
ROOT
ATOM      1  C   UNL     1      46.880   7.371  12.641  0.00  0.00    +0.000 C 
ATOM      2  C   UNL     1      48.027   7.848  11.755  0.00  0.00    +0.000 C 
ATOM      3  C   UNL     1      47.026   8.833  12.249  0.00  0.00    +0.000 C 
ENDROOT
BRANCH   1   4
ATOM      4  C   UNL     1      45.753   6.586  11.970  0.00  0.00    +0.000 A 
ATOM      5  C   UNL     1      44.405   6.929  12.148  0.00  0.00    +0.000 A 
ATOM      6  C   UNL     1      43.394   6.267  11.452  0.00  0.00    +0.000 A 
ATOM      7  C   UNL     1      43.716   5.261  10.540  0.00  0.00    +0.000 A 
ATOM      8  C   UNL     1      45.049   4.886  10.312  0.00  0.00    +0.000 A 
ATOM      9  C   UNL     1      46.036   5.531  11.081  0.00  0.00    +0.000 A 
BRANCH   8  10
ATOM     10  C   UNL     1      45.427   3.950   9.227  0.00  0.00    +0.000 A 
ATOM     11  C   UNL     1      46.123   4.423   8.094  0.00  0.00    +0.000 A 
ATOM     12  C   UNL     1      46.590   3.550   7.108  0.00  0.00    +0.000 A 
ATOM     13  C   UNL     1      46.374   2.186   7.243  0.00  0.00    +0.000 A 
ATOM     14  F   UNL     1      46.849   1.348   6.312  0.00  0.00    +0.000 F 
ATOM     15  C   UNL     1      45.683   1.680   8.332  0.00  0.00    +0.000 A 
ATOM     16  C   UNL     1      45.211   2.560   9.304  0.00  0.00    +0.000 A 
ATOM     17  F   UNL     1      44.547   2.029  10.343  0.00  0.00    +0.000 F 
ENDBRANCH   8  10
ENDBRANCH   1   4
BRANCH   1  18
ATOM     18  N   UNL     1      47.257   6.880  13.979  0.00  0.00    +0.000 N 
ATOM     19  H   UNL     1      46.500   6.704  14.637  0.00  0.00    +0.000 HD
BRANCH  18  23
ATOM     20  C   UNL     1      50.418   8.440  16.088  0.00  0.00    +0.000 A 
ATOM     21  C   UNL     1      50.496   7.208  15.460  0.00  0.00    +0.000 A 
ATOM     22  N   UNL     1      49.453   6.676  14.763  0.00  0.00    +0.000 NA
ATOM     23  C   UNL     1      48.322   7.416  14.713  0.00  0.00    +0.000 A 
ATOM     24  C   UNL     1      48.276   8.666  15.338  0.00  0.00    +0.000 A 
ATOM     25  N   UNL     1      49.300   9.210  16.042  0.00  0.00    +0.000 NA
BRANCH  20  27
ATOM     26  N   UNL     1      52.732   8.272  16.748  0.00  0.00    +0.000 N 
ATOM     27  C   UNL     1      51.565   8.975  16.867  0.00  0.00    +0.000 C 
ATOM     28  O   UNL     1      51.474   9.977  17.563  0.00  0.00    +0.000 OA
ATOM     29  H   UNL     1      53.560   8.584  17.238  0.00  0.00    +0.000 HD
ATOM     30  H   UNL     1      52.766   7.449  16.159  0.00  0.00    +0.000 HD
ENDBRANCH  20  27
ENDBRANCH  18  23
ENDBRANCH   1  18
TORSDOF 5
ENDMDL
