MODEL 1
REMARK VINA RESULT:    -8.027      0.000      0.000
REMARK INTER + INTRA:         -12.775
REMARK INTER:                 -11.547
REMARK INTRA:                  -1.227
REMARK UNBOUND:                -1.227
REMARK  Name = 
REMARK  8 active torsions:
REMARK  status: ('A' for Active; 'I' for Inactive)
REMARK    1  A    between atoms: N_1  and  C_2
REMARK    2  A    between atoms: C_2  and  C_3
REMARK    3  A    between atoms: C_3  and  N_4
REMARK    4  A    between atoms: C_3  and  C_17
REMARK    5  A    between atoms: C_5  and  C_7
REMARK    6  A    between atoms: C_20  and  O_21
REMARK    7  A    between atoms: O_21  and  C_22
REMARK    8  A    between atoms: C_22  and  C_23
REMARK                            x       y       z     vdW  Elec       q    Type
REMARK                         _______ _______ _______ _____ _____    ______ ____
ROOT
ATOM      1  C   UNL     1      47.938   6.703  13.651  0.00  0.00    +0.000 C 
ENDROOT
BRANCH   1   2
ATOM      2  C   UNL     1      46.883   5.891  12.900  0.00  0.00    +0.000 A 
ATOM      3  C   UNL     1      46.240   6.418  11.772  0.00  0.00    +0.000 A 
ATOM      4  C   UNL     1      45.312   5.650  11.058  0.00  0.00    +0.000 A 
ATOM      5  C   UNL     1      45.026   4.343  11.449  0.00  0.00    +0.000 A 
ATOM      6  C   UNL     1      45.627   3.823  12.596  0.00  0.00    +0.000 A 
ATOM      7  C   UNL     1      46.556   4.587  13.306  0.00  0.00    +0.000 A 
BRANCH   5   8
ATOM      8  O   UNL     1      44.154   3.658  10.643  0.00  0.00    +0.000 OA
BRANCH   8   9
ATOM      9  C   UNL     1      44.179   4.040   9.262  0.00  0.00    +0.000 C 
BRANCH   9  10
ATOM     10  C   UNL     1      45.227   3.268   8.493  0.00  0.00    +0.000 A 
ATOM     11  C   UNL     1      45.446   1.912   8.726  0.00  0.00    +0.000 A 
ATOM     12  C   UNL     1      46.439   1.256   7.997  0.00  0.00    +0.000 A 
ATOM     13  C   UNL     1      47.188   1.966   7.065  0.00  0.00    +0.000 A 
ATOM     14  C   UNL     1      46.920   3.317   6.908  0.00  0.00    +0.000 A 
ATOM     15  N   UNL     1      45.966   3.977   7.597  0.00  0.00    +0.000 NA
ENDBRANCH   9  10
ENDBRANCH   8   9
ENDBRANCH   5   8
ENDBRANCH   1   2
BRANCH   1  16
ATOM     16  N   UNL     1      47.895   6.311  15.056  0.00  0.00    +0.000 N 
ATOM     17  C   UNL     1      49.010   6.237  15.850  0.00  0.00    +0.000 C 
ATOM     18  O   UNL     1      50.114   6.634  15.495  0.00  0.00    +0.000 OA
ATOM     19  H   UNL     1      47.099   5.736  15.315  0.00  0.00    +0.000 HD
BRANCH  17  20
ATOM     20  C   UNL     1      48.795   5.705  17.199  0.00  0.00    +0.000 A 
ATOM     21  C   UNL     1      48.982   4.355  17.460  0.00  0.00    +0.000 A 
ATOM     22  S   UNL     1      48.680   3.931  19.085  0.00  0.00    +0.000 S 
ATOM     23  C   UNL     1      48.244   5.526  19.481  0.00  0.00    +0.000 A 
ATOM     24  N   UNL     1      47.832   5.857  20.734  0.00  0.00    +0.000 NA
ATOM     25  C   UNL     1      47.495   7.097  20.878  0.00  0.00    +0.000 A 
ATOM     26  N   UNL     1      47.547   8.042  19.885  0.00  0.00    +0.000 N 
ATOM     27  C   UNL     1      48.006   7.767  18.622  0.00  0.00    +0.000 A 
ATOM     28  O   UNL     1      48.133   8.648  17.778  0.00  0.00    +0.000 OA
ATOM     29  C   UNL     1      48.361   6.376  18.398  0.00  0.00    +0.000 A 
ATOM     30  H   UNL     1      47.297   9.002  20.064  0.00  0.00    +0.000 HD
ENDBRANCH  17  20
ENDBRANCH   1  16
BRANCH   1  31
ATOM     31  C   UNL     1      47.729   8.236  13.459  0.00  0.00    +0.000 C 
BRANCH  31  32
ATOM     32  N   UNL     1      47.162   8.926  14.627  0.00  0.00    +0.000 NA
ATOM     33  H   UNL     1      46.327   8.423  14.927  0.00  0.00    +0.000 HD
ATOM     34  H   UNL     1      46.853   9.858  14.350  0.00  0.00    +0.000 HD
ENDBRANCH  31  32
ENDBRANCH   1  31
TORSDOF 8
ENDMDL
MODEL 2
REMARK VINA RESULT:    -7.593      3.260      4.795
REMARK INTER + INTRA:         -12.150
REMARK INTER:                 -10.758
REMARK INTRA:                  -1.392
REMARK UNBOUND:                -1.227
REMARK  Name = 
REMARK  8 active torsions:
REMARK  status: ('A' for Active; 'I' for Inactive)
REMARK    1  A    between atoms: N_1  and  C_2
REMARK    2  A    between atoms: C_2  and  C_3
REMARK    3  A    between atoms: C_3  and  N_4
REMARK    4  A    between atoms: C_3  and  C_17
REMARK    5  A    between atoms: C_5  and  C_7
REMARK    6  A    between atoms: C_20  and  O_21
REMARK    7  A    between atoms: O_21  and  C_22
REMARK    8  A    between atoms: C_22  and  C_23
REMARK                            x       y       z     vdW  Elec       q    Type
REMARK                         _______ _______ _______ _____ _____    ______ ____
ROOT
ATOM      1  C   UNL     1      46.774   5.745  14.027  0.00  0.00    +0.000 C 
ENDROOT
BRANCH   1   2
ATOM      2  C   UNL     1      46.121   5.132  12.788  0.00  0.00    +0.000 A 
ATOM      3  C   UNL     1      45.644   3.814  12.806  0.00  0.00    +0.000 A 
ATOM      4  C   UNL     1      45.001   3.275  11.685  0.00  0.00    +0.000 A 
ATOM      5  C   UNL     1      44.812   4.047  10.539  0.00  0.00    +0.000 A 
ATOM      6  C   UNL     1      45.322   5.346  10.495  0.00  0.00    +0.000 A 
ATOM      7  C   UNL     1      45.959   5.885  11.613  0.00  0.00    +0.000 A 
BRANCH   5   8
ATOM      8  O   UNL     1      44.114   3.445   9.525  0.00  0.00    +0.000 OA
BRANCH   8   9
ATOM      9  C   UNL     1      44.552   2.121   9.191  0.00  0.00    +0.000 C 
BRANCH   9  10
ATOM     10  C   UNL     1      45.664   2.148   8.167  0.00  0.00    +0.000 A 
ATOM     11  C   UNL     1      45.830   3.229   7.304  0.00  0.00    +0.000 A 
ATOM     12  C   UNL     1      46.864   3.189   6.368  0.00  0.00    +0.000 A 
ATOM     13  C   UNL     1      47.697   2.077   6.312  0.00  0.00    +0.000 A 
ATOM     14  C   UNL     1      47.452   1.036   7.194  0.00  0.00    +0.000 A 
ATOM     15  N   UNL     1      46.461   1.046   8.110  0.00  0.00    +0.000 NA
ENDBRANCH   9  10
ENDBRANCH   8   9
ENDBRANCH   5   8
ENDBRANCH   1   2
BRANCH   1  16
ATOM     16  N   UNL     1      47.933   6.518  13.592  0.00  0.00    +0.000 N 
ATOM     17  C   UNL     1      47.941   7.888  13.525  0.00  0.00    +0.000 C 
ATOM     18  O   UNL     1      47.034   8.586  13.963  0.00  0.00    +0.000 OA
ATOM     19  H   UNL     1      48.577   6.018  12.988  0.00  0.00    +0.000 HD
BRANCH  17  20
ATOM     20  C   UNL     1      49.146   8.489  12.947  0.00  0.00    +0.000 A 
ATOM     21  C   UNL     1      49.067   9.244  11.786  0.00  0.00    +0.000 A 
ATOM     22  S   UNL     1      50.575   9.854  11.270  0.00  0.00    +0.000 S 
ATOM     23  C   UNL     1      51.388   9.089  12.554  0.00  0.00    +0.000 A 
ATOM     24  N   UNL     1      52.739   9.175  12.686  0.00  0.00    +0.000 NA
ATOM     25  C   UNL     1      53.222   8.511  13.685  0.00  0.00    +0.000 A 
ATOM     26  N   UNL     1      52.475   7.782  14.575  0.00  0.00    +0.000 N 
ATOM     27  C   UNL     1      51.108   7.711  14.512  0.00  0.00    +0.000 A 
ATOM     28  O   UNL     1      50.454   7.131  15.373  0.00  0.00    +0.000 OA
ATOM     29  C   UNL     1      50.518   8.409  13.382  0.00  0.00    +0.000 A 
ATOM     30  H   UNL     1      52.906   7.306  15.352  0.00  0.00    +0.000 HD
ENDBRANCH  17  20
ENDBRANCH   1  16
BRANCH   1  31
ATOM     31  C   UNL     1      47.151   4.657  15.077  0.00  0.00    +0.000 C 
BRANCH  31  32
ATOM     32  N   UNL     1      48.315   4.990  15.912  0.00  0.00    +0.000 NA
ATOM     33  H   UNL     1      48.605   5.944  15.699  0.00  0.00    +0.000 HD
ATOM     34  H   UNL     1      49.097   4.387  15.657  0.00  0.00    +0.000 HD
ENDBRANCH  31  32
ENDBRANCH   1  31
TORSDOF 8
ENDMDL
MODEL 3
REMARK VINA RESULT:    -7.592      2.918      4.910
REMARK INTER + INTRA:         -12.149
REMARK INTER:                 -10.752
REMARK INTRA:                  -1.397
REMARK UNBOUND:                -1.227
REMARK  Name = 
REMARK  8 active torsions:
REMARK  status: ('A' for Active; 'I' for Inactive)
REMARK    1  A    between atoms: N_1  and  C_2
REMARK    2  A    between atoms: C_2  and  C_3
REMARK    3  A    between atoms: C_3  and  N_4
REMARK    4  A    between atoms: C_3  and  C_17
REMARK    5  A    between atoms: C_5  and  C_7
REMARK    6  A    between atoms: C_20  and  O_21
REMARK    7  A    between atoms: O_21  and  C_22
REMARK    8  A    between atoms: C_22  and  C_23
REMARK                            x       y       z     vdW  Elec       q    Type
REMARK                         _______ _______ _______ _____ _____    ______ ____
ROOT
ATOM      1  C   UNL     1      46.988   5.590  14.282  0.00  0.00    +0.000 C 
ENDROOT
BRANCH   1   2
ATOM      2  C   UNL     1      46.283   5.073  13.027  0.00  0.00    +0.000 A 
ATOM      3  C   UNL     1      45.764   3.772  12.980  0.00  0.00    +0.000 A 
ATOM      4  C   UNL     1      45.074   3.321  11.848  0.00  0.00    +0.000 A 
ATOM      5  C   UNL     1      44.879   4.166  10.756  0.00  0.00    +0.000 A 
ATOM      6  C   UNL     1      45.430   5.449  10.775  0.00  0.00    +0.000 A 
ATOM      7  C   UNL     1      46.114   5.900  11.905  0.00  0.00    +0.000 A 
BRANCH   5   8
ATOM      8  O   UNL     1      44.135   3.648   9.728  0.00  0.00    +0.000 OA
BRANCH   8   9
ATOM      9  C   UNL     1      44.473   2.307   9.354  0.00  0.00    +0.000 C 
BRANCH   9  10
ATOM     10  C   UNL     1      45.554   2.283   8.298  0.00  0.00    +0.000 A 
ATOM     11  C   UNL     1      45.734   3.348   7.418  0.00  0.00    +0.000 A 
ATOM     12  C   UNL     1      46.738   3.261   6.453  0.00  0.00    +0.000 A 
ATOM     13  C   UNL     1      47.528   2.119   6.385  0.00  0.00    +0.000 A 
ATOM     14  C   UNL     1      47.271   1.096   7.285  0.00  0.00    +0.000 A 
ATOM     15  N   UNL     1      46.308   1.152   8.229  0.00  0.00    +0.000 NA
ENDBRANCH   9  10
ENDBRANCH   8   9
ENDBRANCH   5   8
ENDBRANCH   1   2
BRANCH   1  16
ATOM     16  N   UNL     1      48.173   6.329  13.861  0.00  0.00    +0.000 N 
ATOM     17  C   UNL     1      48.797   7.261  14.650  0.00  0.00    +0.000 C 
ATOM     18  O   UNL     1      48.506   7.447  15.827  0.00  0.00    +0.000 OA
ATOM     19  H   UNL     1      48.287   6.419  12.856  0.00  0.00    +0.000 HD
BRANCH  17  20
ATOM     20  C   UNL     1      49.897   7.996  14.018  0.00  0.00    +0.000 A 
ATOM     21  C   UNL     1      51.185   7.905  14.524  0.00  0.00    +0.000 A 
ATOM     22  S   UNL     1      52.322   8.835  13.655  0.00  0.00    +0.000 S 
ATOM     23  C   UNL     1      51.122   9.426  12.605  0.00  0.00    +0.000 A 
ATOM     24  N   UNL     1      51.418  10.319  11.623  0.00  0.00    +0.000 NA
ATOM     25  C   UNL     1      50.399  10.711  10.930  0.00  0.00    +0.000 A 
ATOM     26  N   UNL     1      49.112  10.277  11.118  0.00  0.00    +0.000 N 
ATOM     27  C   UNL     1      48.775   9.339  12.059  0.00  0.00    +0.000 A 
ATOM     28  O   UNL     1      47.634   8.896  12.145  0.00  0.00    +0.000 OA
ATOM     29  C   UNL     1      49.879   8.895  12.892  0.00  0.00    +0.000 A 
ATOM     30  H   UNL     1      48.361  10.598  10.526  0.00  0.00    +0.000 HD
ENDBRANCH  17  20
ENDBRANCH   1  16
BRANCH   1  31
ATOM     31  C   UNL     1      47.333   4.432  15.266  0.00  0.00    +0.000 C 
BRANCH  31  32
ATOM     32  N   UNL     1      47.180   4.773  16.688  0.00  0.00    +0.000 NA
ATOM     33  H   UNL     1      46.293   4.395  17.019  0.00  0.00    +0.000 HD
ATOM     34  H   UNL     1      47.118   5.786  16.788  0.00  0.00    +0.000 HD
ENDBRANCH  31  32
ENDBRANCH   1  31
TORSDOF 8
ENDMDL
MODEL 4
REMARK VINA RESULT:    -7.577      1.442      2.132
REMARK INTER + INTRA:         -12.126
REMARK INTER:                 -11.037
REMARK INTRA:                  -1.089
REMARK UNBOUND:                -1.227
REMARK  Name = 
REMARK  8 active torsions:
REMARK  status: ('A' for Active; 'I' for Inactive)
REMARK    1  A    between atoms: N_1  and  C_2
REMARK    2  A    between atoms: C_2  and  C_3
REMARK    3  A    between atoms: C_3  and  N_4
REMARK    4  A    between atoms: C_3  and  C_17
REMARK    5  A    between atoms: C_5  and  C_7
REMARK    6  A    between atoms: C_20  and  O_21
REMARK    7  A    between atoms: O_21  and  C_22
REMARK    8  A    between atoms: C_22  and  C_23
REMARK                            x       y       z     vdW  Elec       q    Type
REMARK                         _______ _______ _______ _____ _____    ______ ____
ROOT
ATOM      1  C   UNL     1      48.185   7.338  13.453  0.00  0.00    +0.000 C 
ENDROOT
BRANCH   1   2
ATOM      2  C   UNL     1      47.118   6.374  12.934  0.00  0.00    +0.000 A 
ATOM      3  C   UNL     1      46.292   6.730  11.859  0.00  0.00    +0.000 A 
ATOM      4  C   UNL     1      45.351   5.823  11.355  0.00  0.00    +0.000 A 
ATOM      5  C   UNL     1      45.233   4.547  11.905  0.00  0.00    +0.000 A 
ATOM      6  C   UNL     1      46.021   4.199  13.004  0.00  0.00    +0.000 A 
ATOM      7  C   UNL     1      46.962   5.100  13.504  0.00  0.00    +0.000 A 
BRANCH   5   8
ATOM      8  O   UNL     1      44.328   3.718  11.295  0.00  0.00    +0.000 OA
BRANCH   8   9
ATOM      9  C   UNL     1      44.045   4.034   9.926  0.00  0.00    +0.000 C 
BRANCH   9  10
ATOM     10  C   UNL     1      45.042   3.388   8.991  0.00  0.00    +0.000 A 
ATOM     11  C   UNL     1      45.737   4.134   8.042  0.00  0.00    +0.000 A 
ATOM     12  C   UNL     1      46.632   3.479   7.195  0.00  0.00    +0.000 A 
ATOM     13  C   UNL     1      46.805   2.104   7.311  0.00  0.00    +0.000 A 
ATOM     14  C   UNL     1      46.061   1.433   8.268  0.00  0.00    +0.000 A 
ATOM     15  N   UNL     1      45.189   2.040   9.101  0.00  0.00    +0.000 NA
ENDBRANCH   9  10
ENDBRANCH   8   9
ENDBRANCH   5   8
ENDBRANCH   1   2
BRANCH   1  16
ATOM     16  N   UNL     1      48.105   7.359  14.910  0.00  0.00    +0.000 N 
ATOM     17  C   UNL     1      49.149   7.006  15.726  0.00  0.00    +0.000 C 
ATOM     18  O   UNL     1      50.281   6.786  15.309  0.00  0.00    +0.000 OA
ATOM     19  H   UNL     1      47.167   7.268  15.287  0.00  0.00    +0.000 HD
BRANCH  17  20
ATOM     20  C   UNL     1      48.850   6.966  17.160  0.00  0.00    +0.000 A 
ATOM     21  C   UNL     1      48.586   8.137  17.856  0.00  0.00    +0.000 A 
ATOM     22  S   UNL     1      48.265   7.884  19.513  0.00  0.00    +0.000 S 
ATOM     23  C   UNL     1      48.516   6.208  19.364  0.00  0.00    +0.000 A 
ATOM     24  N   UNL     1      48.431   5.382  20.441  0.00  0.00    +0.000 NA
ATOM     25  C   UNL     1      48.685   4.140  20.184  0.00  0.00    +0.000 A 
ATOM     26  N   UNL     1      49.001   3.646  18.944  0.00  0.00    +0.000 N 
ATOM     27  C   UNL     1      49.045   4.432  17.822  0.00  0.00    +0.000 A 
ATOM     28  O   UNL     1      49.236   3.952  16.709  0.00  0.00    +0.000 OA
ATOM     29  C   UNL     1      48.805   5.844  18.063  0.00  0.00    +0.000 A 
ATOM     30  H   UNL     1      49.162   2.661  18.800  0.00  0.00    +0.000 HD
ENDBRANCH  17  20
ENDBRANCH   1  16
BRANCH   1  31
ATOM     31  C   UNL     1      48.029   8.759  12.833  0.00  0.00    +0.000 C 
BRANCH  31  32
ATOM     32  N   UNL     1      47.858   9.840  13.815  0.00  0.00    +0.000 NA
ATOM     33  H   UNL     1      46.901   9.811  14.165  0.00  0.00    +0.000 HD
ATOM     34  H   UNL     1      47.967  10.740  13.348  0.00  0.00    +0.000 HD
ENDBRANCH  31  32
ENDBRANCH   1  31
TORSDOF 8
ENDMDL
MODEL 5
REMARK VINA RESULT:    -6.792      3.455      8.298
REMARK INTER + INTRA:         -10.997
REMARK INTER:                  -9.857
REMARK INTRA:                  -1.140
REMARK UNBOUND:                -1.227
REMARK  Name = 
REMARK  8 active torsions:
REMARK  status: ('A' for Active; 'I' for Inactive)
REMARK    1  A    between atoms: N_1  and  C_2
REMARK    2  A    between atoms: C_2  and  C_3
REMARK    3  A    between atoms: C_3  and  N_4
REMARK    4  A    between atoms: C_3  and  C_17
REMARK    5  A    between atoms: C_5  and  C_7
REMARK    6  A    between atoms: C_20  and  O_21
REMARK    7  A    between atoms: O_21  and  C_22
REMARK    8  A    between atoms: C_22  and  C_23
REMARK                            x       y       z     vdW  Elec       q    Type
REMARK                         _______ _______ _______ _____ _____    ______ ____
ROOT
ATOM      1  C   UNL     1      48.176   7.871  12.538  0.00  0.00    +0.000 C 
ENDROOT
BRANCH   1   2
ATOM      2  C   UNL     1      48.464   7.322  13.935  0.00  0.00    +0.000 A 
ATOM      3  C   UNL     1      47.928   6.095  14.349  0.00  0.00    +0.000 A 
ATOM      4  C   UNL     1      48.237   5.573  15.610  0.00  0.00    +0.000 A 
ATOM      5  C   UNL     1      49.097   6.257  16.468  0.00  0.00    +0.000 A 
ATOM      6  C   UNL     1      49.601   7.501  16.084  0.00  0.00    +0.000 A 
ATOM      7  C   UNL     1      49.297   8.021  14.825  0.00  0.00    +0.000 A 
BRANCH   5   8
ATOM      8  O   UNL     1      49.384   5.626  17.651  0.00  0.00    +0.000 OA
BRANCH   8   9
ATOM      9  C   UNL     1      49.097   4.222  17.673  0.00  0.00    +0.000 C 
BRANCH   9  10
ATOM     10  C   UNL     1      50.364   3.400  17.725  0.00  0.00    +0.000 A 
ATOM     11  C   UNL     1      50.386   2.072  17.304  0.00  0.00    +0.000 A 
ATOM     12  C   UNL     1      51.582   1.358  17.392  0.00  0.00    +0.000 A 
ATOM     13  C   UNL     1      52.716   1.980  17.902  0.00  0.00    +0.000 A 
ATOM     14  C   UNL     1      52.605   3.297  18.317  0.00  0.00    +0.000 A 
ATOM     15  N   UNL     1      51.463   4.013  18.243  0.00  0.00    +0.000 NA
ENDBRANCH   9  10
ENDBRANCH   8   9
ENDBRANCH   5   8
ENDBRANCH   1   2
BRANCH   1  16
ATOM     16  N   UNL     1      47.486   6.834  11.778  0.00  0.00    +0.000 N 
ATOM     17  C   UNL     1      46.155   6.899  11.454  0.00  0.00    +0.000 C 
ATOM     18  O   UNL     1      45.466   7.895  11.643  0.00  0.00    +0.000 OA
ATOM     19  H   UNL     1      47.908   5.912  11.833  0.00  0.00    +0.000 HD
BRANCH  17  20
ATOM     20  C   UNL     1      45.602   5.710  10.798  0.00  0.00    +0.000 A 
ATOM     21  C   UNL     1      45.769   5.518   9.435  0.00  0.00    +0.000 A 
ATOM     22  S   UNL     1      45.051   4.081   8.859  0.00  0.00    +0.000 S 
ATOM     23  C   UNL     1      44.452   3.694  10.403  0.00  0.00    +0.000 A 
ATOM     24  N   UNL     1      43.698   2.582  10.611  0.00  0.00    +0.000 NA
ATOM     25  C   UNL     1      43.279   2.438  11.826  0.00  0.00    +0.000 A 
ATOM     26  N   UNL     1      43.560   3.297  12.857  0.00  0.00    +0.000 N 
ATOM     27  C   UNL     1      44.360   4.400  12.706  0.00  0.00    +0.000 A 
ATOM     28  O   UNL     1      44.675   5.101  13.663  0.00  0.00    +0.000 OA
ATOM     29  C   UNL     1      44.825   4.629  11.349  0.00  0.00    +0.000 A 
ATOM     30  H   UNL     1      43.228   3.117  13.792  0.00  0.00    +0.000 HD
ENDBRANCH  17  20
ENDBRANCH   1  16
BRANCH   1  31
ATOM     31  C   UNL     1      49.476   8.355  11.829  0.00  0.00    +0.000 C 
BRANCH  31  32
ATOM     32  N   UNL     1      50.529   7.335  11.720  0.00  0.00    +0.000 NA
ATOM     33  H   UNL     1      50.257   6.663  11.003  0.00  0.00    +0.000 HD
ATOM     34  H   UNL     1      50.587   6.815  12.596  0.00  0.00    +0.000 HD
ENDBRANCH  31  32
ENDBRANCH   1  31
TORSDOF 8
ENDMDL
MODEL 6
REMARK VINA RESULT:    -6.657      3.584      5.556
REMARK INTER + INTRA:         -10.803
REMARK INTER:                  -9.923
REMARK INTRA:                  -0.879
REMARK UNBOUND:                -1.227
REMARK  Name = 
REMARK  8 active torsions:
REMARK  status: ('A' for Active; 'I' for Inactive)
REMARK    1  A    between atoms: N_1  and  C_2
REMARK    2  A    between atoms: C_2  and  C_3
REMARK    3  A    between atoms: C_3  and  N_4
REMARK    4  A    between atoms: C_3  and  C_17
REMARK    5  A    between atoms: C_5  and  C_7
REMARK    6  A    between atoms: C_20  and  O_21
REMARK    7  A    between atoms: O_21  and  C_22
REMARK    8  A    between atoms: C_22  and  C_23
REMARK                            x       y       z     vdW  Elec       q    Type
REMARK                         _______ _______ _______ _____ _____    ______ ____
ROOT
ATOM      1  C   UNL     1      46.601   6.166  13.461  0.00  0.00    +0.000 C 
ENDROOT
BRANCH   1   2
ATOM      2  C   UNL     1      45.889   5.345  12.386  0.00  0.00    +0.000 A 
ATOM      3  C   UNL     1      45.669   5.875  11.107  0.00  0.00    +0.000 A 
ATOM      4  C   UNL     1      45.063   5.100  10.111  0.00  0.00    +0.000 A 
ATOM      5  C   UNL     1      44.684   3.783  10.371  0.00  0.00    +0.000 A 
ATOM      6  C   UNL     1      44.859   3.260  11.653  0.00  0.00    +0.000 A 
ATOM      7  C   UNL     1      45.467   4.031  12.646  0.00  0.00    +0.000 A 
BRANCH   5   8
ATOM      8  O   UNL     1      44.161   3.094   9.308  0.00  0.00    +0.000 OA
BRANCH   8   9
ATOM      9  C   UNL     1      44.830   1.867   8.994  0.00  0.00    +0.000 C 
BRANCH   9  10
ATOM     10  C   UNL     1      45.832   2.053   7.877  0.00  0.00    +0.000 A 
ATOM     11  C   UNL     1      46.859   1.137   7.662  0.00  0.00    +0.000 A 
ATOM     12  C   UNL     1      47.764   1.372   6.626  0.00  0.00    +0.000 A 
ATOM     13  C   UNL     1      47.628   2.511   5.841  0.00  0.00    +0.000 A 
ATOM     14  C   UNL     1      46.590   3.382   6.132  0.00  0.00    +0.000 A 
ATOM     15  N   UNL     1      45.699   3.181   7.127  0.00  0.00    +0.000 NA
ENDBRANCH   9  10
ENDBRANCH   8   9
ENDBRANCH   5   8
ENDBRANCH   1   2
BRANCH   1  16
ATOM     16  N   UNL     1      47.379   7.206  12.795  0.00  0.00    +0.000 N 
ATOM     17  C   UNL     1      47.216   8.544  13.046  0.00  0.00    +0.000 C 
ATOM     18  O   UNL     1      46.514   8.975  13.953  0.00  0.00    +0.000 OA
ATOM     19  H   UNL     1      47.754   6.944  11.889  0.00  0.00    +0.000 HD
BRANCH  17  20
ATOM     20  C   UNL     1      47.993   9.450  12.194  0.00  0.00    +0.000 A 
ATOM     21  C   UNL     1      47.375  10.509  11.547  0.00  0.00    +0.000 A 
ATOM     22  S   UNL     1      48.445  11.444  10.602  0.00  0.00    +0.000 S 
ATOM     23  C   UNL     1      49.759  10.436  10.989  0.00  0.00    +0.000 A 
ATOM     24  N   UNL     1      50.996  10.655  10.469  0.00  0.00    +0.000 NA
ATOM     25  C   UNL     1      51.887   9.786  10.820  0.00  0.00    +0.000 A 
ATOM     26  N   UNL     1      51.656   8.724  11.658  0.00  0.00    +0.000 N 
ATOM     27  C   UNL     1      50.440   8.495  12.247  0.00  0.00    +0.000 A 
ATOM     28  O   UNL     1      50.282   7.595  13.067  0.00  0.00    +0.000 OA
ATOM     29  C   UNL     1      49.393   9.422  11.854  0.00  0.00    +0.000 A 
ATOM     30  H   UNL     1      52.399   8.094  11.918  0.00  0.00    +0.000 HD
ENDBRANCH  17  20
ENDBRANCH   1  16
BRANCH   1  31
ATOM     31  C   UNL     1      47.482   5.269  14.382  0.00  0.00    +0.000 C 
BRANCH  31  32
ATOM     32  N   UNL     1      46.748   4.597  15.464  0.00  0.00    +0.000 NA
ATOM     33  H   UNL     1      45.981   5.200  15.760  0.00  0.00    +0.000 HD
ATOM     34  H   UNL     1      47.360   4.492  16.273  0.00  0.00    +0.000 HD
ENDBRANCH  31  32
ENDBRANCH   1  31
TORSDOF 8
ENDMDL
MODEL 7
REMARK VINA RESULT:    -6.625      3.016      8.655
REMARK INTER + INTRA:         -10.757
REMARK INTER:                  -9.644
REMARK INTRA:                  -1.113
REMARK UNBOUND:                -1.227
REMARK  Name = 
REMARK  8 active torsions:
REMARK  status: ('A' for Active; 'I' for Inactive)
REMARK    1  A    between atoms: N_1  and  C_2
REMARK    2  A    between atoms: C_2  and  C_3
REMARK    3  A    between atoms: C_3  and  N_4
REMARK    4  A    between atoms: C_3  and  C_17
REMARK    5  A    between atoms: C_5  and  C_7
REMARK    6  A    between atoms: C_20  and  O_21
REMARK    7  A    between atoms: O_21  and  C_22
REMARK    8  A    between atoms: C_22  and  C_23
REMARK                            x       y       z     vdW  Elec       q    Type
REMARK                         _______ _______ _______ _____ _____    ______ ____
ROOT
ATOM      1  C   UNL     1      47.822   7.599  12.734  0.00  0.00    +0.000 C 
ENDROOT
BRANCH   1   2
ATOM      2  C   UNL     1      48.619   7.159  13.963  0.00  0.00    +0.000 A 
ATOM      3  C   UNL     1      49.911   7.651  14.194  0.00  0.00    +0.000 A 
ATOM      4  C   UNL     1      50.616   7.285  15.347  0.00  0.00    +0.000 A 
ATOM      5  C   UNL     1      50.037   6.438  16.291  0.00  0.00    +0.000 A 
ATOM      6  C   UNL     1      48.769   5.908  16.050  0.00  0.00    +0.000 A 
ATOM      7  C   UNL     1      48.063   6.276  14.903  0.00  0.00    +0.000 A 
BRANCH   5   8
ATOM      8  O   UNL     1      50.787   6.197  17.413  0.00  0.00    +0.000 OA
BRANCH   8   9
ATOM      9  C   UNL     1      50.267   5.183  18.282  0.00  0.00    +0.000 C 
BRANCH   9  10
ATOM     10  C   UNL     1      50.917   3.844  18.020  0.00  0.00    +0.000 A 
ATOM     11  C   UNL     1      52.231   3.586  18.405  0.00  0.00    +0.000 A 
ATOM     12  C   UNL     1      52.783   2.336  18.121  0.00  0.00    +0.000 A 
ATOM     13  C   UNL     1      52.018   1.383  17.458  0.00  0.00    +0.000 A 
ATOM     14  C   UNL     1      50.726   1.726  17.092  0.00  0.00    +0.000 A 
ATOM     15  N   UNL     1      50.165   2.925  17.354  0.00  0.00    +0.000 NA
ENDBRANCH   9  10
ENDBRANCH   8   9
ENDBRANCH   5   8
ENDBRANCH   1   2
BRANCH   1  16
ATOM     16  N   UNL     1      47.015   6.466  12.291  0.00  0.00    +0.000 N 
ATOM     17  C   UNL     1      45.648   6.513  12.186  0.00  0.00    +0.000 C 
ATOM     18  O   UNL     1      45.001   7.546  12.310  0.00  0.00    +0.000 OA
ATOM     19  H   UNL     1      47.441   5.556  12.434  0.00  0.00    +0.000 HD
BRANCH  17  20
ATOM     20  C   UNL     1      44.994   5.246  11.846  0.00  0.00    +0.000 A 
ATOM     21  C   UNL     1      44.276   4.547  12.805  0.00  0.00    +0.000 A 
ATOM     22  S   UNL     1      43.593   3.097  12.218  0.00  0.00    +0.000 S 
ATOM     23  C   UNL     1      44.275   3.333  10.677  0.00  0.00    +0.000 A 
ATOM     24  N   UNL     1      44.108   2.421   9.683  0.00  0.00    +0.000 NA
ATOM     25  C   UNL     1      44.716   2.713   8.580  0.00  0.00    +0.000 A 
ATOM     26  N   UNL     1      45.464   3.844   8.375  0.00  0.00    +0.000 N 
ATOM     27  C   UNL     1      45.615   4.816   9.330  0.00  0.00    +0.000 A 
ATOM     28  O   UNL     1      46.210   5.863   9.093  0.00  0.00    +0.000 OA
ATOM     29  C   UNL     1      44.983   4.516  10.603  0.00  0.00    +0.000 A 
ATOM     30  H   UNL     1      45.893   4.033   7.482  0.00  0.00    +0.000 HD
ENDBRANCH  17  20
ENDBRANCH   1  16
BRANCH   1  31
ATOM     31  C   UNL     1      48.752   8.137  11.606  0.00  0.00    +0.000 C 
BRANCH  31  32
ATOM     32  N   UNL     1      48.679   9.590  11.395  0.00  0.00    +0.000 NA
ATOM     33  H   UNL     1      47.764   9.815  11.003  0.00  0.00    +0.000 HD
ATOM     34  H   UNL     1      49.368   9.865  10.694  0.00  0.00    +0.000 HD
ENDBRANCH  31  32
ENDBRANCH   1  31
TORSDOF 8
ENDMDL
MODEL 8
REMARK VINA RESULT:    -6.087      3.014      9.570
REMARK INTER + INTRA:          -9.983
REMARK INTER:                  -8.727
REMARK INTRA:                  -1.256
REMARK UNBOUND:                -1.227
REMARK  Name = 
REMARK  8 active torsions:
REMARK  status: ('A' for Active; 'I' for Inactive)
REMARK    1  A    between atoms: N_1  and  C_2
REMARK    2  A    between atoms: C_2  and  C_3
REMARK    3  A    between atoms: C_3  and  N_4
REMARK    4  A    between atoms: C_3  and  C_17
REMARK    5  A    between atoms: C_5  and  C_7
REMARK    6  A    between atoms: C_20  and  O_21
REMARK    7  A    between atoms: O_21  and  C_22
REMARK    8  A    between atoms: C_22  and  C_23
REMARK                            x       y       z     vdW  Elec       q    Type
REMARK                         _______ _______ _______ _____ _____    ______ ____
ROOT
ATOM      1  C   UNL     1      44.999   6.298  12.102  0.00  0.00    +0.000 C 
ENDROOT
BRANCH   1   2
ATOM      2  C   UNL     1      46.138   6.284  13.121  0.00  0.00    +0.000 A 
ATOM      3  C   UNL     1      46.389   5.146  13.901  0.00  0.00    +0.000 A 
ATOM      4  C   UNL     1      47.466   5.121  14.796  0.00  0.00    +0.000 A 
ATOM      5  C   UNL     1      48.315   6.221  14.913  0.00  0.00    +0.000 A 
ATOM      6  C   UNL     1      48.047   7.375  14.173  0.00  0.00    +0.000 A 
ATOM      7  C   UNL     1      46.977   7.399  13.278  0.00  0.00    +0.000 A 
BRANCH   5   8
ATOM      8  O   UNL     1      49.374   6.066  15.768  0.00  0.00    +0.000 OA
BRANCH   8   9
ATOM      9  C   UNL     1      49.026   6.000  17.157  0.00  0.00    +0.000 C 
BRANCH   9  10
ATOM     10  C   UNL     1      50.157   5.434  17.984  0.00  0.00    +0.000 A 
ATOM     11  C   UNL     1      51.260   4.828  17.389  0.00  0.00    +0.000 A 
ATOM     12  C   UNL     1      52.265   4.308  18.205  0.00  0.00    +0.000 A 
ATOM     13  C   UNL     1      52.142   4.398  19.587  0.00  0.00    +0.000 A 
ATOM     14  C   UNL     1      51.003   4.999  20.101  0.00  0.00    +0.000 A 
ATOM     15  N   UNL     1      50.016   5.511  19.336  0.00  0.00    +0.000 NA
ENDBRANCH   9  10
ENDBRANCH   8   9
ENDBRANCH   5   8
ENDBRANCH   1   2
BRANCH   1  16
ATOM     16  N   UNL     1      45.251   5.241  11.127  0.00  0.00    +0.000 N 
ATOM     17  C   UNL     1      44.252   4.566  10.475  0.00  0.00    +0.000 C 
ATOM     18  O   UNL     1      43.071   4.888  10.540  0.00  0.00    +0.000 OA
ATOM     19  H   UNL     1      46.142   4.767  11.232  0.00  0.00    +0.000 HD
BRANCH  17  20
ATOM     20  C   UNL     1      44.686   3.452   9.626  0.00  0.00    +0.000 A 
ATOM     21  C   UNL     1      44.152   2.185   9.802  0.00  0.00    +0.000 A 
ATOM     22  S   UNL     1      44.786   1.025   8.723  0.00  0.00    +0.000 S 
ATOM     23  C   UNL     1      45.829   2.169   8.017  0.00  0.00    +0.000 A 
ATOM     24  N   UNL     1      46.696   1.820   7.029  0.00  0.00    +0.000 NA
ATOM     25  C   UNL     1      47.454   2.783   6.618  0.00  0.00    +0.000 A 
ATOM     26  N   UNL     1      47.413   4.069   7.093  0.00  0.00    +0.000 N 
ATOM     27  C   UNL     1      46.520   4.478   8.049  0.00  0.00    +0.000 A 
ATOM     28  O   UNL     1      46.437   5.654   8.391  0.00  0.00    +0.000 OA
ATOM     29  C   UNL     1      45.670   3.423   8.574  0.00  0.00    +0.000 A 
ATOM     30  H   UNL     1      48.011   4.786   6.713  0.00  0.00    +0.000 HD
ENDBRANCH  17  20
ENDBRANCH   1  16
BRANCH   1  31
ATOM     31  C   UNL     1      44.844   7.695  11.430  0.00  0.00    +0.000 C 
BRANCH  31  32
ATOM     32  N   UNL     1      43.469   8.035  11.035  0.00  0.00    +0.000 NA
ATOM     33  H   UNL     1      43.354   7.821  10.045  0.00  0.00    +0.000 HD
ATOM     34  H   UNL     1      43.330   9.041  11.130  0.00  0.00    +0.000 HD
ENDBRANCH  31  32
ENDBRANCH   1  31
TORSDOF 8
ENDMDL
MODEL 9
REMARK VINA RESULT:    -5.801      2.366      3.033
REMARK INTER + INTRA:          -9.572
REMARK INTER:                  -9.238
REMARK INTRA:                  -0.334
REMARK UNBOUND:                -1.227
REMARK  Name = 
REMARK  8 active torsions:
REMARK  status: ('A' for Active; 'I' for Inactive)
REMARK    1  A    between atoms: N_1  and  C_2
REMARK    2  A    between atoms: C_2  and  C_3
REMARK    3  A    between atoms: C_3  and  N_4
REMARK    4  A    between atoms: C_3  and  C_17
REMARK    5  A    between atoms: C_5  and  C_7
REMARK    6  A    between atoms: C_20  and  O_21
REMARK    7  A    between atoms: O_21  and  C_22
REMARK    8  A    between atoms: C_22  and  C_23
REMARK                            x       y       z     vdW  Elec       q    Type
REMARK                         _______ _______ _______ _____ _____    ______ ____
ROOT
ATOM      1  C   UNL     1      48.135   7.691  13.217  0.00  0.00    +0.000 C 
ENDROOT
BRANCH   1   2
ATOM      2  C   UNL     1      47.000   6.760  12.790  0.00  0.00    +0.000 A 
ATOM      3  C   UNL     1      46.013   7.195  11.896  0.00  0.00    +0.000 A 
ATOM      4  C   UNL     1      45.006   6.322  11.468  0.00  0.00    +0.000 A 
ATOM      5  C   UNL     1      44.978   5.001  11.914  0.00  0.00    +0.000 A 
ATOM      6  C   UNL     1      45.930   4.570  12.840  0.00  0.00    +0.000 A 
ATOM      7  C   UNL     1      46.938   5.438  13.263  0.00  0.00    +0.000 A 
BRANCH   5   8
ATOM      8  O   UNL     1      43.989   4.215  11.384  0.00  0.00    +0.000 OA
BRANCH   8   9
ATOM      9  C   UNL     1      43.751   4.404   9.983  0.00  0.00    +0.000 C 
BRANCH   9  10
ATOM     10  C   UNL     1      44.763   3.659   9.144  0.00  0.00    +0.000 A 
ATOM     11  C   UNL     1      45.582   4.324   8.234  0.00  0.00    +0.000 A 
ATOM     12  C   UNL     1      46.486   3.580   7.474  0.00  0.00    +0.000 A 
ATOM     13  C   UNL     1      46.545   2.200   7.635  0.00  0.00    +0.000 A 
ATOM     14  C   UNL     1      45.682   1.614   8.548  0.00  0.00    +0.000 A 
ATOM     15  N   UNL     1      44.799   2.307   9.297  0.00  0.00    +0.000 NA
ENDBRANCH   9  10
ENDBRANCH   8   9
ENDBRANCH   5   8
ENDBRANCH   1   2
BRANCH   1  16
ATOM     16  N   UNL     1      48.633   7.233  14.511  0.00  0.00    +0.000 N 
ATOM     17  C   UNL     1      49.938   7.375  14.907  0.00  0.00    +0.000 C 
ATOM     18  O   UNL     1      50.763   8.027  14.277  0.00  0.00    +0.000 OA
ATOM     19  H   UNL     1      48.097   6.482  14.933  0.00  0.00    +0.000 HD
BRANCH  17  20
ATOM     20  C   UNL     1      50.287   6.744  16.183  0.00  0.00    +0.000 A 
ATOM     21  C   UNL     1      49.294   6.356  17.070  0.00  0.00    +0.000 A 
ATOM     22  S   UNL     1      49.900   5.646  18.499  0.00  0.00    +0.000 S 
ATOM     23  C   UNL     1      51.510   5.879  18.000  0.00  0.00    +0.000 A 
ATOM     24  N   UNL     1      52.555   5.519  18.792  0.00  0.00    +0.000 NA
ATOM     25  C   UNL     1      53.719   5.792  18.300  0.00  0.00    +0.000 A 
ATOM     26  N   UNL     1      53.934   6.378  17.078  0.00  0.00    +0.000 N 
ATOM     27  C   UNL     1      52.914   6.708  16.224  0.00  0.00    +0.000 A 
ATOM     28  O   UNL     1      53.134   7.143  15.098  0.00  0.00    +0.000 OA
ATOM     29  C   UNL     1      51.582   6.457  16.747  0.00  0.00    +0.000 A 
ATOM     30  H   UNL     1      54.868   6.542  16.734  0.00  0.00    +0.000 HD
ENDBRANCH  17  20
ENDBRANCH   1  16
BRANCH   1  31
ATOM     31  C   UNL     1      47.676   9.179  13.256  0.00  0.00    +0.000 C 
BRANCH  31  32
ATOM     32  N   UNL     1      48.136   9.931  14.432  0.00  0.00    +0.000 NA
ATOM     33  H   UNL     1      48.994   9.500  14.778  0.00  0.00    +0.000 HD
ATOM     34  H   UNL     1      47.448   9.844  15.180  0.00  0.00    +0.000 HD
ENDBRANCH  31  32
ENDBRANCH   1  31
TORSDOF 8
ENDMDL
