MODEL 1
REMARK VINA RESULT:    -7.524      0.000      0.000
REMARK INTER + INTRA:         -10.153
REMARK INTER:                  -9.723
REMARK INTRA:                  -0.430
REMARK UNBOUND:                -0.430
REMARK  Name = 
REMARK  6 active torsions:
REMARK  status: ('A' for Active; 'I' for Inactive)
REMARK    1  A    between atoms: C_1  and  N_2
REMARK    2  A    between atoms: N_2  and  C_3
REMARK    3  A    between atoms: C_3  and  C_4
REMARK    4  A    between atoms: C_3  and  C_16
REMARK    5  A    between atoms: C_7  and  C_8
REMARK    6  A    between atoms: C_8  and  N_9
REMARK                            x       y       z     vdW  Elec       q    Type
REMARK                         _______ _______ _______ _____ _____    ______ ____
ROOT
ATOM      1  C   UNL     1      44.610   6.069  12.099  0.00  0.00    +0.000 C 
ENDROOT
BRANCH   1   2
ATOM      2  C   UNL     1      45.750   5.774  13.046  0.00  0.00    +0.000 A 
ATOM      3  C   UNL     1      45.826   4.685  13.904  0.00  0.00    +0.000 A 
ATOM      4  S   UNL     1      47.315   4.575  14.731  0.00  0.00    +0.000 S 
ATOM      5  C   UNL     1      47.879   6.020  14.030  0.00  0.00    +0.000 A 
ATOM      6  N   UNL     1      49.127   6.493  14.290  0.00  0.00    +0.000 NA
ATOM      7  C   UNL     1      49.383   7.638  13.749  0.00  0.00    +0.000 A 
ATOM      8  N   UNL     1      48.500   8.360  12.987  0.00  0.00    +0.000 N 
ATOM      9  C   UNL     1      47.237   7.910  12.675  0.00  0.00    +0.000 A 
ATOM     10  O   UNL     1      46.463   8.584  12.002  0.00  0.00    +0.000 OA
ATOM     11  C   UNL     1      46.921   6.605  13.225  0.00  0.00    +0.000 A 
ATOM     12  H   UNL     1      48.751   9.271  12.633  0.00  0.00    +0.000 HD
ENDBRANCH   1   2
BRANCH   1  13
ATOM     13  C   UNL     1      44.800   5.132  10.915  0.00  0.00    +0.000 A 
ATOM     14  C   UNL     1      44.220   3.857  10.836  0.00  0.00    +0.000 A 
ATOM     15  C   UNL     1      44.318   3.110   9.663  0.00  0.00    +0.000 A 
ATOM     16  C   UNL     1      45.008   3.647   8.579  0.00  0.00    +0.000 A 
ATOM     17  N   UNL     1      45.634   4.848   8.645  0.00  0.00    +0.000 NA
ATOM     18  C   UNL     1      45.525   5.550   9.801  0.00  0.00    +0.000 A 
BRANCH  16  19
ATOM     19  C   UNL     1      44.978   2.960   7.235  0.00  0.00    +0.000 C 
BRANCH  19  20
ATOM     20  N   UNL     1      46.311   2.519   6.873  0.00  0.00    +0.000 N 
ATOM     21  C   UNL     1      47.073   1.574   7.494  0.00  0.00    +0.000 A 
ATOM     22  N   UNL     1      48.211   1.434   6.851  0.00  0.00    +0.000 NA
ATOM     23  C   UNL     1      48.095   2.327   5.825  0.00  0.00    +0.000 A 
ATOM     24  N   UNL     1      46.950   3.015   5.791  0.00  0.00    +0.000 NA
ENDBRANCH  19  20
ENDBRANCH  16  19
ENDBRANCH   1  13
BRANCH   1  26
ATOM     25  C   UNL     1      42.205   5.965  11.794  0.00  0.00    +0.000 C 
ATOM     26  N   UNL     1      43.305   5.870  12.747  0.00  0.00    +0.000 NA
ATOM     27  H   UNL     1      43.304   4.922  13.126  0.00  0.00    +0.000 HD
ENDBRANCH   1  26
TORSDOF 5
ENDMDL
MODEL 2
REMARK VINA RESULT:    -7.071      2.007      3.094
REMARK INTER + INTRA:          -9.568
REMARK INTER:                  -8.959
REMARK INTRA:                  -0.609
REMARK UNBOUND:                -0.430
REMARK  Name = 
REMARK  6 active torsions:
REMARK  status: ('A' for Active; 'I' for Inactive)
REMARK    1  A    between atoms: C_1  and  N_2
REMARK    2  A    between atoms: N_2  and  C_3
REMARK    3  A    between atoms: C_3  and  C_4
REMARK    4  A    between atoms: C_3  and  C_16
REMARK    5  A    between atoms: C_7  and  C_8
REMARK    6  A    between atoms: C_8  and  N_9
REMARK                            x       y       z     vdW  Elec       q    Type
REMARK                         _______ _______ _______ _____ _____    ______ ____
ROOT
ATOM      1  C   UNL     1      46.695   5.777  13.209  0.00  0.00    +0.000 C 
ENDROOT
BRANCH   1   2
ATOM      2  C   UNL     1      47.674   6.832  12.749  0.00  0.00    +0.000 A 
ATOM      3  C   UNL     1      49.032   6.635  12.536  0.00  0.00    +0.000 A 
ATOM      4  S   UNL     1      49.821   8.000  11.879  0.00  0.00    +0.000 S 
ATOM      5  C   UNL     1      48.392   8.923  11.929  0.00  0.00    +0.000 A 
ATOM      6  N   UNL     1      48.359  10.202  11.468  0.00  0.00    +0.000 NA
ATOM      7  C   UNL     1      47.228  10.801  11.645  0.00  0.00    +0.000 A 
ATOM      8  N   UNL     1      46.133  10.243  12.254  0.00  0.00    +0.000 N 
ATOM      9  C   UNL     1      46.109   8.944  12.711  0.00  0.00    +0.000 A 
ATOM     10  O   UNL     1      45.120   8.475  13.264  0.00  0.00    +0.000 OA
ATOM     11  C   UNL     1      47.347   8.217  12.494  0.00  0.00    +0.000 A 
ATOM     12  H   UNL     1      45.293  10.783  12.400  0.00  0.00    +0.000 HD
ENDBRANCH   1   2
BRANCH   1  13
ATOM     13  C   UNL     1      46.015   5.262  11.948  0.00  0.00    +0.000 A 
ATOM     14  C   UNL     1      46.086   5.915  10.709  0.00  0.00    +0.000 A 
ATOM     15  C   UNL     1      45.560   5.315   9.566  0.00  0.00    +0.000 A 
ATOM     16  C   UNL     1      44.957   4.065   9.679  0.00  0.00    +0.000 A 
ATOM     17  N   UNL     1      44.814   3.437  10.873  0.00  0.00    +0.000 NA
ATOM     18  C   UNL     1      45.332   4.048  11.968  0.00  0.00    +0.000 A 
BRANCH  16  19
ATOM     19  C   UNL     1      44.545   3.299   8.445  0.00  0.00    +0.000 C 
BRANCH  19  20
ATOM     20  N   UNL     1      45.685   2.590   7.896  0.00  0.00    +0.000 N 
ATOM     21  C   UNL     1      46.548   3.021   6.933  0.00  0.00    +0.000 A 
ATOM     22  N   UNL     1      47.468   2.106   6.726  0.00  0.00    +0.000 NA
ATOM     23  C   UNL     1      47.123   1.120   7.604  0.00  0.00    +0.000 A 
ATOM     24  N   UNL     1      46.040   1.367   8.346  0.00  0.00    +0.000 NA
ENDBRANCH  19  20
ENDBRANCH  16  19
ENDBRANCH   1  13
BRANCH   1  26
ATOM     25  C   UNL     1      47.166   4.805  15.382  0.00  0.00    +0.000 C 
ATOM     26  N   UNL     1      47.372   4.697  13.942  0.00  0.00    +0.000 NA
ATOM     27  H   UNL     1      46.949   3.819  13.635  0.00  0.00    +0.000 HD
ENDBRANCH   1  26
TORSDOF 5
ENDMDL
MODEL 3
REMARK VINA RESULT:    -7.046      1.565      2.108
REMARK INTER + INTRA:          -9.536
REMARK INTER:                 -10.092
REMARK INTRA:                   0.556
REMARK UNBOUND:                -0.430
REMARK  Name = 
REMARK  6 active torsions:
REMARK  status: ('A' for Active; 'I' for Inactive)
REMARK    1  A    between atoms: C_1  and  N_2
REMARK    2  A    between atoms: N_2  and  C_3
REMARK    3  A    between atoms: C_3  and  C_4
REMARK    4  A    between atoms: C_3  and  C_16
REMARK    5  A    between atoms: C_7  and  C_8
REMARK    6  A    between atoms: C_8  and  N_9
REMARK                            x       y       z     vdW  Elec       q    Type
REMARK                         _______ _______ _______ _____ _____    ______ ____
ROOT
ATOM      1  C   UNL     1      44.864   6.441  11.591  0.00  0.00    +0.000 C 
ENDROOT
BRANCH   1   2
ATOM      2  C   UNL     1      46.204   6.593  12.273  0.00  0.00    +0.000 A 
ATOM      3  C   UNL     1      47.203   7.481  11.899  0.00  0.00    +0.000 A 
ATOM      4  S   UNL     1      48.533   7.496  12.971  0.00  0.00    +0.000 S 
ATOM      5  C   UNL     1      47.853   6.262  13.925  0.00  0.00    +0.000 A 
ATOM      6  N   UNL     1      48.474   5.814  15.049  0.00  0.00    +0.000 NA
ATOM      7  C   UNL     1      47.878   4.822  15.624  0.00  0.00    +0.000 A 
ATOM      8  N   UNL     1      46.728   4.228  15.169  0.00  0.00    +0.000 N 
ATOM      9  C   UNL     1      46.049   4.665  14.053  0.00  0.00    +0.000 A 
ATOM     10  O   UNL     1      45.030   4.106  13.661  0.00  0.00    +0.000 OA
ATOM     11  C   UNL     1      46.659   5.808  13.399  0.00  0.00    +0.000 A 
ATOM     12  H   UNL     1      46.340   3.426  15.643  0.00  0.00    +0.000 HD
ENDBRANCH   1   2
BRANCH   1  13
ATOM     13  C   UNL     1      45.022   5.282  10.617  0.00  0.00    +0.000 A 
ATOM     14  C   UNL     1      44.497   4.003  10.845  0.00  0.00    +0.000 A 
ATOM     15  C   UNL     1      44.556   3.029   9.848  0.00  0.00    +0.000 A 
ATOM     16  C   UNL     1      45.153   3.348   8.630  0.00  0.00    +0.000 A 
ATOM     17  N   UNL     1      45.728   4.555   8.403  0.00  0.00    +0.000 NA
ATOM     18  C   UNL     1      45.659   5.479   9.393  0.00  0.00    +0.000 A 
BRANCH  16  19
ATOM     19  C   UNL     1      45.072   2.393   7.464  0.00  0.00    +0.000 C 
BRANCH  19  20
ATOM     20  N   UNL     1      46.369   2.273   6.829  0.00  0.00    +0.000 N 
ATOM     21  C   UNL     1      47.450   1.566   7.267  0.00  0.00    +0.000 A 
ATOM     22  N   UNL     1      48.431   1.680   6.401  0.00  0.00    +0.000 NA
ATOM     23  C   UNL     1      47.894   2.477   5.432  0.00  0.00    +0.000 A 
ATOM     24  N   UNL     1      46.633   2.866   5.644  0.00  0.00    +0.000 NA
ENDBRANCH  19  20
ENDBRANCH  16  19
ENDBRANCH   1  13
BRANCH   1  26
ATOM     25  C   UNL     1      42.506   5.963  11.908  0.00  0.00    +0.000 C 
ATOM     26  N   UNL     1      43.790   6.192  12.563  0.00  0.00    +0.000 NA
ATOM     27  H   UNL     1      44.036   5.337  13.065  0.00  0.00    +0.000 HD
ENDBRANCH   1  26
TORSDOF 5
ENDMDL
MODEL 4
REMARK VINA RESULT:    -6.563      2.490      3.767
REMARK INTER + INTRA:          -8.912
REMARK INTER:                  -8.859
REMARK INTRA:                  -0.054
REMARK UNBOUND:                -0.430
REMARK  Name = 
REMARK  6 active torsions:
REMARK  status: ('A' for Active; 'I' for Inactive)
REMARK    1  A    between atoms: C_1  and  N_2
REMARK    2  A    between atoms: N_2  and  C_3
REMARK    3  A    between atoms: C_3  and  C_4
REMARK    4  A    between atoms: C_3  and  C_16
REMARK    5  A    between atoms: C_7  and  C_8
REMARK    6  A    between atoms: C_8  and  N_9
REMARK                            x       y       z     vdW  Elec       q    Type
REMARK                         _______ _______ _______ _____ _____    ______ ____
ROOT
ATOM      1  C   UNL     1      45.562   6.159  12.869  0.00  0.00    +0.000 C 
ENDROOT
BRANCH   1   2
ATOM      2  C   UNL     1      45.560   7.612  12.452  0.00  0.00    +0.000 A 
ATOM      3  C   UNL     1      46.572   8.527  12.707  0.00  0.00    +0.000 A 
ATOM      4  S   UNL     1      46.315  10.046  11.971  0.00  0.00    +0.000 S 
ATOM      5  C   UNL     1      44.808   9.557  11.352  0.00  0.00    +0.000 A 
ATOM      6  N   UNL     1      44.058  10.386  10.577  0.00  0.00    +0.000 NA
ATOM      7  C   UNL     1      42.905   9.906  10.247  0.00  0.00    +0.000 A 
ATOM      8  N   UNL     1      42.427   8.679  10.635  0.00  0.00    +0.000 N 
ATOM      9  C   UNL     1      43.160   7.795  11.394  0.00  0.00    +0.000 A 
ATOM     10  O   UNL     1      42.702   6.710  11.737  0.00  0.00    +0.000 OA
ATOM     11  C   UNL     1      44.482   8.275  11.751  0.00  0.00    +0.000 A 
ATOM     12  H   UNL     1      41.497   8.385  10.378  0.00  0.00    +0.000 HD
ENDBRANCH   1   2
BRANCH   1  13
ATOM     13  C   UNL     1      45.547   5.355  11.577  0.00  0.00    +0.000 A 
ATOM     14  C   UNL     1      44.924   4.106  11.450  0.00  0.00    +0.000 A 
ATOM     15  C   UNL     1      44.825   3.491  10.202  0.00  0.00    +0.000 A 
ATOM     16  C   UNL     1      45.364   4.135   9.090  0.00  0.00    +0.000 A 
ATOM     17  N   UNL     1      46.031   5.312   9.191  0.00  0.00    +0.000 NA
ATOM     18  C   UNL     1      46.114   5.883  10.419  0.00  0.00    +0.000 A 
BRANCH  16  19
ATOM     19  C   UNL     1      45.117   3.601   7.701  0.00  0.00    +0.000 C 
BRANCH  19  20
ATOM     20  N   UNL     1      46.161   2.663   7.336  0.00  0.00    +0.000 N 
ATOM     21  C   UNL     1      47.136   2.826   6.396  0.00  0.00    +0.000 A 
ATOM     22  N   UNL     1      47.911   1.765   6.377  0.00  0.00    +0.000 NA
ATOM     23  C   UNL     1      47.364   0.969   7.342  0.00  0.00    +0.000 A 
ATOM     24  N   UNL     1      46.292   1.473   7.961  0.00  0.00    +0.000 NA
ENDBRANCH  19  20
ENDBRANCH  16  19
ENDBRANCH   1  13
BRANCH   1  26
ATOM     25  C   UNL     1      46.576   4.566  14.393  0.00  0.00    +0.000 C 
ATOM     26  N   UNL     1      46.734   5.839  13.697  0.00  0.00    +0.000 NA
ATOM     27  H   UNL     1      47.529   5.745  13.062  0.00  0.00    +0.000 HD
ENDBRANCH   1  26
TORSDOF 5
ENDMDL
MODEL 5
REMARK VINA RESULT:    -6.502      2.305      3.842
REMARK INTER + INTRA:          -8.833
REMARK INTER:                  -8.147
REMARK INTRA:                  -0.686
REMARK UNBOUND:                -0.430
REMARK  Name = 
REMARK  6 active torsions:
REMARK  status: ('A' for Active; 'I' for Inactive)
REMARK    1  A    between atoms: C_1  and  N_2
REMARK    2  A    between atoms: N_2  and  C_3
REMARK    3  A    between atoms: C_3  and  C_4
REMARK    4  A    between atoms: C_3  and  C_16
REMARK    5  A    between atoms: C_7  and  C_8
REMARK    6  A    between atoms: C_8  and  N_9
REMARK                            x       y       z     vdW  Elec       q    Type
REMARK                         _______ _______ _______ _____ _____    ______ ____
ROOT
ATOM      1  C   UNL     1      47.118   5.440  14.797  0.00  0.00    +0.000 C 
ENDROOT
BRANCH   1   2
ATOM      2  C   UNL     1      47.963   6.406  13.998  0.00  0.00    +0.000 A 
ATOM      3  C   UNL     1      48.135   6.378  12.620  0.00  0.00    +0.000 A 
ATOM      4  S   UNL     1      49.037   7.700  12.023  0.00  0.00    +0.000 S 
ATOM      5  C   UNL     1      49.291   8.311  13.590  0.00  0.00    +0.000 A 
ATOM      6  N   UNL     1      49.973   9.469  13.796  0.00  0.00    +0.000 NA
ATOM      7  C   UNL     1      50.154   9.764  15.041  0.00  0.00    +0.000 A 
ATOM      8  N   UNL     1      49.731   8.998  16.098  0.00  0.00    +0.000 N 
ATOM      9  C   UNL     1      49.013   7.833  15.939  0.00  0.00    +0.000 A 
ATOM     10  O   UNL     1      48.659   7.162  16.902  0.00  0.00    +0.000 OA
ATOM     11  C   UNL     1      48.747   7.486  14.556  0.00  0.00    +0.000 A 
ATOM     12  H   UNL     1      49.946   9.265  17.046  0.00  0.00    +0.000 HD
ENDBRANCH   1   2
BRANCH   1  13
ATOM     13  C   UNL     1      46.119   4.849  13.812  0.00  0.00    +0.000 A 
ATOM     14  C   UNL     1      45.044   5.571  13.274  0.00  0.00    +0.000 A 
ATOM     15  C   UNL     1      44.252   5.012  12.271  0.00  0.00    +0.000 A 
ATOM     16  C   UNL     1      44.543   3.726  11.822  0.00  0.00    +0.000 A 
ATOM     17  N   UNL     1      45.534   2.978  12.368  0.00  0.00    +0.000 NA
ATOM     18  C   UNL     1      46.284   3.547  13.346  0.00  0.00    +0.000 A 
BRANCH  16  19
ATOM     19  C   UNL     1      43.837   3.158  10.616  0.00  0.00    +0.000 C 
BRANCH  19  20
ATOM     20  N   UNL     1      44.699   3.237   9.452  0.00  0.00    +0.000 N 
ATOM     21  C   UNL     1      45.016   4.346   8.725  0.00  0.00    +0.000 A 
ATOM     22  N   UNL     1      45.848   4.018   7.763  0.00  0.00    +0.000 NA
ATOM     23  C   UNL     1      46.017   2.676   7.948  0.00  0.00    +0.000 A 
ATOM     24  N   UNL     1      45.337   2.149   8.970  0.00  0.00    +0.000 NA
ENDBRANCH  19  20
ENDBRANCH  16  19
ENDBRANCH   1  13
BRANCH   1  26
ATOM     25  C   UNL     1      47.389   3.970  16.707  0.00  0.00    +0.000 C 
ATOM     26  N   UNL     1      47.942   4.399  15.427  0.00  0.00    +0.000 NA
ATOM     27  H   UNL     1      47.932   3.592  14.801  0.00  0.00    +0.000 HD
ENDBRANCH   1  26
TORSDOF 5
ENDMDL
MODEL 6
REMARK VINA RESULT:    -6.357      2.884      4.375
REMARK INTER + INTRA:          -8.645
REMARK INTER:                  -8.371
REMARK INTRA:                  -0.274
REMARK UNBOUND:                -0.430
REMARK  Name = 
REMARK  6 active torsions:
REMARK  status: ('A' for Active; 'I' for Inactive)
REMARK    1  A    between atoms: C_1  and  N_2
REMARK    2  A    between atoms: N_2  and  C_3
REMARK    3  A    between atoms: C_3  and  C_4
REMARK    4  A    between atoms: C_3  and  C_16
REMARK    5  A    between atoms: C_7  and  C_8
REMARK    6  A    between atoms: C_8  and  N_9
REMARK                            x       y       z     vdW  Elec       q    Type
REMARK                         _______ _______ _______ _____ _____    ______ ____
ROOT
ATOM      1  C   UNL     1      47.844   5.859  14.451  0.00  0.00    +0.000 C 
ENDROOT
BRANCH   1   2
ATOM      2  C   UNL     1      47.987   5.173  15.790  0.00  0.00    +0.000 A 
ATOM      3  C   UNL     1      47.057   4.316  16.362  0.00  0.00    +0.000 A 
ATOM      4  S   UNL     1      47.596   3.602  17.816  0.00  0.00    +0.000 S 
ATOM      5  C   UNL     1      49.058   4.472  17.771  0.00  0.00    +0.000 A 
ATOM      6  N   UNL     1      50.014   4.300  18.723  0.00  0.00    +0.000 NA
ATOM      7  C   UNL     1      51.032   5.085  18.600  0.00  0.00    +0.000 A 
ATOM      8  N   UNL     1      51.174   6.037  17.622  0.00  0.00    +0.000 N 
ATOM      9  C   UNL     1      50.247   6.229  16.622  0.00  0.00    +0.000 A 
ATOM     10  O   UNL     1      50.394   7.097  15.768  0.00  0.00    +0.000 OA
ATOM     11  C   UNL     1      49.105   5.336  16.694  0.00  0.00    +0.000 A 
ATOM     12  H   UNL     1      51.976   6.649  17.611  0.00  0.00    +0.000 HD
ENDBRANCH   1   2
BRANCH   1  13
ATOM     13  C   UNL     1      46.705   5.144  13.738  0.00  0.00    +0.000 A 
ATOM     14  C   UNL     1      45.538   5.789  13.304  0.00  0.00    +0.000 A 
ATOM     15  C   UNL     1      44.600   5.104  12.532  0.00  0.00    +0.000 A 
ATOM     16  C   UNL     1      44.838   3.770  12.211  0.00  0.00    +0.000 A 
ATOM     17  N   UNL     1      45.924   3.100  12.671  0.00  0.00    +0.000 NA
ATOM     18  C   UNL     1      46.816   3.792  13.423  0.00  0.00    +0.000 A 
BRANCH  16  19
ATOM     19  C   UNL     1      43.950   3.048  11.228  0.00  0.00    +0.000 C 
BRANCH  19  20
ATOM     20  N   UNL     1      44.505   3.145   9.892  0.00  0.00    +0.000 N 
ATOM     21  C   UNL     1      44.452   4.210   9.043  0.00  0.00    +0.000 A 
ATOM     22  N   UNL     1      45.096   3.922   7.935  0.00  0.00    +0.000 NA
ATOM     23  C   UNL     1      45.536   2.650   8.158  0.00  0.00    +0.000 A 
ATOM     24  N   UNL     1      45.204   2.128   9.342  0.00  0.00    +0.000 NA
ENDBRANCH  19  20
ENDBRANCH  16  19
ENDBRANCH   1  13
BRANCH   1  26
ATOM     25  C   UNL     1      48.130   8.076  13.510  0.00  0.00    +0.000 C 
ATOM     26  N   UNL     1      47.572   7.295  14.608  0.00  0.00    +0.000 NA
ATOM     27  H   UNL     1      46.557   7.410  14.584  0.00  0.00    +0.000 HD
ENDBRANCH   1  26
TORSDOF 5
ENDMDL
MODEL 7
REMARK VINA RESULT:    -6.336      2.038      2.734
REMARK INTER + INTRA:          -8.618
REMARK INTER:                  -9.138
REMARK INTRA:                   0.520
REMARK UNBOUND:                -0.430
REMARK  Name = 
REMARK  6 active torsions:
REMARK  status: ('A' for Active; 'I' for Inactive)
REMARK    1  A    between atoms: C_1  and  N_2
REMARK    2  A    between atoms: N_2  and  C_3
REMARK    3  A    between atoms: C_3  and  C_4
REMARK    4  A    between atoms: C_3  and  C_16
REMARK    5  A    between atoms: C_7  and  C_8
REMARK    6  A    between atoms: C_8  and  N_9
REMARK                            x       y       z     vdW  Elec       q    Type
REMARK                         _______ _______ _______ _____ _____    ______ ____
ROOT
ATOM      1  C   UNL     1      45.614   6.170  12.922  0.00  0.00    +0.000 C 
ENDROOT
BRANCH   1   2
ATOM      2  C   UNL     1      45.677   7.605  12.455  0.00  0.00    +0.000 A 
ATOM      3  C   UNL     1      44.584   8.402  12.143  0.00  0.00    +0.000 A 
ATOM      4  S   UNL     1      45.002  10.019  11.786  0.00  0.00    +0.000 S 
ATOM      5  C   UNL     1      46.662   9.690  11.961  0.00  0.00    +0.000 A 
ATOM      6  N   UNL     1      47.596  10.669  11.822  0.00  0.00    +0.000 NA
ATOM      7  C   UNL     1      48.817  10.253  11.904  0.00  0.00    +0.000 A 
ATOM      8  N   UNL     1      49.189   8.946  12.095  0.00  0.00    +0.000 N 
ATOM      9  C   UNL     1      48.280   7.926  12.268  0.00  0.00    +0.000 A 
ATOM     10  O   UNL     1      48.641   6.764  12.423  0.00  0.00    +0.000 OA
ATOM     11  C   UNL     1      46.894   8.355  12.228  0.00  0.00    +0.000 A 
ATOM     12  H   UNL     1      50.163   8.684  12.103  0.00  0.00    +0.000 HD
ENDBRANCH   1   2
BRANCH   1  13
ATOM     13  C   UNL     1      45.545   5.324  11.658  0.00  0.00    +0.000 A 
ATOM     14  C   UNL     1      45.007   4.030  11.621  0.00  0.00    +0.000 A 
ATOM     15  C   UNL     1      44.846   3.368  10.404  0.00  0.00    +0.000 A 
ATOM     16  C   UNL     1      45.237   4.011   9.232  0.00  0.00    +0.000 A 
ATOM     17  N   UNL     1      45.820   5.236   9.240  0.00  0.00    +0.000 NA
ATOM     18  C   UNL     1      45.968   5.852  10.440  0.00  0.00    +0.000 A 
BRANCH  16  19
ATOM     19  C   UNL     1      44.909   3.415   7.885  0.00  0.00    +0.000 C 
BRANCH  19  20
ATOM     20  N   UNL     1      46.082   2.767   7.330  0.00  0.00    +0.000 N 
ATOM     21  C   UNL     1      46.642   1.585   7.715  0.00  0.00    +0.000 A 
ATOM     22  N   UNL     1      47.677   1.319   6.951  0.00  0.00    +0.000 NA
ATOM     23  C   UNL     1      47.708   2.382   6.096  0.00  0.00    +0.000 A 
ATOM     24  N   UNL     1      46.752   3.296   6.283  0.00  0.00    +0.000 NA
ENDBRANCH  19  20
ENDBRANCH  16  19
ENDBRANCH   1  13
BRANCH   1  26
ATOM     25  C   UNL     1      46.565   4.583  14.491  0.00  0.00    +0.000 C 
ATOM     26  N   UNL     1      46.778   5.820  13.749  0.00  0.00    +0.000 NA
ATOM     27  H   UNL     1      47.560   5.666  13.110  0.00  0.00    +0.000 HD
ENDBRANCH   1  26
TORSDOF 5
ENDMDL
MODEL 8
REMARK VINA RESULT:    -6.206      2.580      4.348
REMARK INTER + INTRA:          -8.450
REMARK INTER:                  -8.146
REMARK INTRA:                  -0.304
REMARK UNBOUND:                -0.430
REMARK  Name = 
REMARK  6 active torsions:
REMARK  status: ('A' for Active; 'I' for Inactive)
REMARK    1  A    between atoms: C_1  and  N_2
REMARK    2  A    between atoms: N_2  and  C_3
REMARK    3  A    between atoms: C_3  and  C_4
REMARK    4  A    between atoms: C_3  and  C_16
REMARK    5  A    between atoms: C_7  and  C_8
REMARK    6  A    between atoms: C_8  and  N_9
REMARK                            x       y       z     vdW  Elec       q    Type
REMARK                         _______ _______ _______ _____ _____    ______ ____
ROOT
ATOM      1  C   UNL     1      46.930   8.494  13.650  0.00  0.00    +0.000 C 
ENDROOT
BRANCH   1   2
ATOM      2  C   UNL     1      47.789   9.278  12.686  0.00  0.00    +0.000 A 
ATOM      3  C   UNL     1      47.478  10.523  12.156  0.00  0.00    +0.000 A 
ATOM      4  S   UNL     1      48.734  11.192  11.211  0.00  0.00    +0.000 S 
ATOM      5  C   UNL     1      49.703   9.809  11.415  0.00  0.00    +0.000 A 
ATOM      6  N   UNL     1      50.953   9.736  10.883  0.00  0.00    +0.000 NA
ATOM      7  C   UNL     1      51.536   8.595  11.054  0.00  0.00    +0.000 A 
ATOM      8  N   UNL     1      50.978   7.517  11.693  0.00  0.00    +0.000 N 
ATOM      9  C   UNL     1      49.729   7.553  12.271  0.00  0.00    +0.000 A 
ATOM     10  O   UNL     1      49.249   6.569  12.825  0.00  0.00    +0.000 OA
ATOM     11  C   UNL     1      49.053   8.831  12.143  0.00  0.00    +0.000 A 
ATOM     12  H   UNL     1      51.473   6.640  11.751  0.00  0.00    +0.000 HD
ENDBRANCH   1   2
BRANCH   1  13
ATOM     13  C   UNL     1      46.218   7.442  12.811  0.00  0.00    +0.000 A 
ATOM     14  C   UNL     1      46.303   6.065  13.061  0.00  0.00    +0.000 A 
ATOM     15  C   UNL     1      45.512   5.168  12.342  0.00  0.00    +0.000 A 
ATOM     16  C   UNL     1      44.647   5.664  11.370  0.00  0.00    +0.000 A 
ATOM     17  N   UNL     1      44.589   6.983  11.060  0.00  0.00    +0.000 NA
ATOM     18  C   UNL     1      45.374   7.830  11.772  0.00  0.00    +0.000 A 
BRANCH  16  19
ATOM     19  C   UNL     1      43.643   4.756  10.704  0.00  0.00    +0.000 C 
BRANCH  19  20
ATOM     20  N   UNL     1      44.306   3.909   9.731  0.00  0.00    +0.000 N 
ATOM     21  C   UNL     1      44.487   2.558   9.789  0.00  0.00    +0.000 A 
ATOM     22  N   UNL     1      45.108   2.151   8.706  0.00  0.00    +0.000 NA
ATOM     23  C   UNL     1      45.285   3.307   8.001  0.00  0.00    +0.000 A 
ATOM     24  N   UNL     1      44.810   4.411   8.583  0.00  0.00    +0.000 NA
ENDBRANCH  19  20
ENDBRANCH  16  19
ENDBRANCH   1  13
BRANCH   1  26
ATOM     25  C   UNL     1      48.227   8.880  15.664  0.00  0.00    +0.000 C 
ATOM     26  N   UNL     1      47.736   7.884  14.717  0.00  0.00    +0.000 NA
ATOM     27  H   UNL     1      47.121   7.250  15.229  0.00  0.00    +0.000 HD
ENDBRANCH   1  26
TORSDOF 5
ENDMDL
MODEL 9
REMARK VINA RESULT:    -6.130      3.298      5.853
REMARK INTER + INTRA:          -8.352
REMARK INTER:                  -7.481
REMARK INTRA:                  -0.871
REMARK UNBOUND:                -0.430
REMARK  Name = 
REMARK  6 active torsions:
REMARK  status: ('A' for Active; 'I' for Inactive)
REMARK    1  A    between atoms: C_1  and  N_2
REMARK    2  A    between atoms: N_2  and  C_3
REMARK    3  A    between atoms: C_3  and  C_4
REMARK    4  A    between atoms: C_3  and  C_16
REMARK    5  A    between atoms: C_7  and  C_8
REMARK    6  A    between atoms: C_8  and  N_9
REMARK                            x       y       z     vdW  Elec       q    Type
REMARK                         _______ _______ _______ _____ _____    ______ ____
ROOT
ATOM      1  C   UNL     1      49.276   7.025  14.750  0.00  0.00    +0.000 C 
ENDROOT
BRANCH   1   2
ATOM      2  C   UNL     1      48.870   7.496  16.128  0.00  0.00    +0.000 A 
ATOM      3  C   UNL     1      48.494   8.790  16.460  0.00  0.00    +0.000 A 
ATOM      4  S   UNL     1      47.958   8.948  18.074  0.00  0.00    +0.000 S 
ATOM      5  C   UNL     1      48.285   7.311  18.405  0.00  0.00    +0.000 A 
ATOM      6  N   UNL     1      48.014   6.767  19.621  0.00  0.00    +0.000 NA
ATOM      7  C   UNL     1      48.388   5.536  19.747  0.00  0.00    +0.000 A 
ATOM      8  N   UNL     1      49.023   4.806  18.773  0.00  0.00    +0.000 N 
ATOM      9  C   UNL     1      49.292   5.305  17.518  0.00  0.00    +0.000 A 
ATOM     10  O   UNL     1      49.872   4.633  16.672  0.00  0.00    +0.000 OA
ATOM     11  C   UNL     1      48.848   6.672  17.317  0.00  0.00    +0.000 A 
ATOM     12  H   UNL     1      49.329   3.862  18.955  0.00  0.00    +0.000 HD
ENDBRANCH   1   2
BRANCH   1  13
ATOM     13  C   UNL     1      47.988   6.592  14.063  0.00  0.00    +0.000 A 
ATOM     14  C   UNL     1      47.419   5.319  14.215  0.00  0.00    +0.000 A 
ATOM     15  C   UNL     1      46.166   5.038  13.673  0.00  0.00    +0.000 A 
ATOM     16  C   UNL     1      45.497   6.038  12.971  0.00  0.00    +0.000 A 
ATOM     17  N   UNL     1      46.048   7.258  12.751  0.00  0.00    +0.000 NA
ATOM     18  C   UNL     1      47.270   7.500  13.287  0.00  0.00    +0.000 A 
BRANCH  16  19
ATOM     19  C   UNL     1      44.067   5.840  12.532  0.00  0.00    +0.000 C 
BRANCH  19  20
ATOM     20  N   UNL     1      43.953   4.630  11.741  0.00  0.00    +0.000 N 
ATOM     21  C   UNL     1      43.288   3.484  12.062  0.00  0.00    +0.000 A 
ATOM     22  N   UNL     1      43.392   2.623  11.076  0.00  0.00    +0.000 NA
ATOM     23  C   UNL     1      44.138   3.301  10.155  0.00  0.00    +0.000 A 
ATOM     24  N   UNL     1      44.506   4.535  10.512  0.00  0.00    +0.000 NA
ENDBRANCH  19  20
ENDBRANCH  16  19
ENDBRANCH   1  13
BRANCH   1  26
ATOM     25  C   UNL     1      51.373   8.181  14.363  0.00  0.00    +0.000 C 
ATOM     26  N   UNL     1      49.963   8.085  13.999  0.00  0.00    +0.000 NA
ATOM     27  H   UNL     1      49.917   7.828  13.012  0.00  0.00    +0.000 HD
ENDBRANCH   1  26
TORSDOF 5
ENDMDL
