MODEL 1
REMARK VINA RESULT:    -8.528      0.000      0.000
REMARK INTER + INTRA:         -12.993
REMARK INTER:                 -12.017
REMARK INTRA:                  -0.976
REMARK UNBOUND:                -0.976
REMARK  Name = 
REMARK  7 active torsions:
REMARK  status: ('A' for Active; 'I' for Inactive)
REMARK    1  A    between atoms: C_2  and  C_20
REMARK    2  A    between atoms: N_3  and  C_4
REMARK    3  A    between atoms: C_4  and  C_5
REMARK    4  A    between atoms: C_8  and  C_9
REMARK    5  A    between atoms: C_9  and  N_10
REMARK    6  A    between atoms: N_10  and  C_11
REMARK    7  A    between atoms: C_11  and  C_12
REMARK                            x       y       z     vdW  Elec       q    Type
REMARK                         _______ _______ _______ _____ _____    ______ ____
ROOT
ATOM      1  C   UNL     1      48.027   6.659  13.419  0.00  0.00    +0.000 C 
ENDROOT
BRANCH   1   2
ATOM      2  C   UNL     1      46.852   5.943  12.820  0.00  0.00    +0.000 A 
ATOM      3  C   UNL     1      46.383   6.259  11.546  0.00  0.00    +0.000 A 
ATOM      4  C   UNL     1      45.319   5.544  11.001  0.00  0.00    +0.000 A 
ATOM      5  C   UNL     1      44.735   4.524  11.747  0.00  0.00    +0.000 A 
ATOM      6  N   UNL     1      45.156   4.209  13.000  0.00  0.00    +0.000 NA
ATOM      7  C   UNL     1      46.189   4.928  13.506  0.00  0.00    +0.000 A 
BRANCH   5   8
ATOM      8  C   UNL     1      43.568   3.739  11.177  0.00  0.00    +0.000 C 
BRANCH   8   9
ATOM      9  N   UNL     1      43.739   3.314   9.779  0.00  0.00    +0.000 NA
ATOM     10  H   UNL     1      44.231   4.074   9.303  0.00  0.00    +0.000 HD
BRANCH   9  11
ATOM     11  C   UNL     1      44.591   2.118   9.667  0.00  0.00    +0.000 C 
BRANCH  11  12
ATOM     12  C   UNL     1      45.592   2.233   8.531  0.00  0.00    +0.000 A 
ATOM     13  C   UNL     1      45.761   3.441   7.855  0.00  0.00    +0.000 A 
ATOM     14  C   UNL     1      46.702   3.516   6.831  0.00  0.00    +0.000 A 
ATOM     15  C   UNL     1      47.442   2.388   6.504  0.00  0.00    +0.000 A 
ATOM     16  C   UNL     1      47.210   1.225   7.217  0.00  0.00    +0.000 A 
ATOM     17  N   UNL     1      46.308   1.121   8.217  0.00  0.00    +0.000 NA
ENDBRANCH  11  12
ENDBRANCH   9  11
ENDBRANCH   8   9
ENDBRANCH   5   8
ENDBRANCH   1   2
BRANCH   1  20
ATOM     18  O   UNL     1      50.207   6.683  15.253  0.00  0.00    +0.000 OA
ATOM     19  C   UNL     1      49.057   6.750  15.675  0.00  0.00    +0.000 C 
ATOM     20  N   UNL     1      47.960   6.717  14.854  0.00  0.00    +0.000 N 
ATOM     21  H   UNL     1      47.052   6.947  15.239  0.00  0.00    +0.000 HD
BRANCH  19  22
ATOM     22  C   UNL     1      48.762   6.825  17.112  0.00  0.00    +0.000 A 
ATOM     23  C   UNL     1      48.331   8.013  17.690  0.00  0.00    +0.000 A 
ATOM     24  S   UNL     1      48.032   7.878  19.368  0.00  0.00    +0.000 S 
ATOM     25  C   UNL     1      48.442   6.225  19.370  0.00  0.00    +0.000 A 
ATOM     26  N   UNL     1      48.378   5.478  20.505  0.00  0.00    +0.000 NA
ATOM     27  C   UNL     1      48.690   4.235  20.345  0.00  0.00    +0.000 A 
ATOM     28  N   UNL     1      49.074   3.667  19.157  0.00  0.00    +0.000 N 
ATOM     29  C   UNL     1      49.231   4.399  18.008  0.00  0.00    +0.000 A 
ATOM     30  O   UNL     1      49.740   3.892  17.014  0.00  0.00    +0.000 OA
ATOM     31  C   UNL     1      48.834   5.791  18.116  0.00  0.00    +0.000 A 
ATOM     32  H   UNL     1      49.352   2.700  19.100  0.00  0.00    +0.000 HD
ENDBRANCH  19  22
ENDBRANCH   1  20
TORSDOF 7
ENDMDL
MODEL 2
REMARK VINA RESULT:    -8.430      1.557      1.790
REMARK INTER + INTRA:         -12.856
REMARK INTER:                 -12.007
REMARK INTRA:                  -0.849
REMARK UNBOUND:                -0.976
REMARK  Name = 
REMARK  7 active torsions:
REMARK  status: ('A' for Active; 'I' for Inactive)
REMARK    1  A    between atoms: C_2  and  C_20
REMARK    2  A    between atoms: N_3  and  C_4
REMARK    3  A    between atoms: C_4  and  C_5
REMARK    4  A    between atoms: C_8  and  C_9
REMARK    5  A    between atoms: C_9  and  N_10
REMARK    6  A    between atoms: N_10  and  C_11
REMARK    7  A    between atoms: C_11  and  C_12
REMARK                            x       y       z     vdW  Elec       q    Type
REMARK                         _______ _______ _______ _____ _____    ______ ____
ROOT
ATOM      1  C   UNL     1      47.300   8.078  13.438  0.00  0.00    +0.000 C 
ENDROOT
BRANCH   1   2
ATOM      2  C   UNL     1      46.345   7.234  12.646  0.00  0.00    +0.000 A 
ATOM      3  C   UNL     1      46.577   5.875  12.442  0.00  0.00    +0.000 A 
ATOM      4  C   UNL     1      45.647   5.110  11.742  0.00  0.00    +0.000 A 
ATOM      5  C   UNL     1      44.499   5.723  11.249  0.00  0.00    +0.000 A 
ATOM      6  N   UNL     1      44.258   7.050  11.412  0.00  0.00    +0.000 NA
ATOM      7  C   UNL     1      45.185   7.769  12.092  0.00  0.00    +0.000 A 
BRANCH   5   8
ATOM      8  C   UNL     1      43.477   4.911  10.474  0.00  0.00    +0.000 C 
BRANCH   8   9
ATOM      9  N   UNL     1      43.981   4.326   9.221  0.00  0.00    +0.000 NA
ATOM     10  H   UNL     1      44.816   4.860   8.967  0.00  0.00    +0.000 HD
BRANCH   9  11
ATOM     11  C   UNL     1      44.406   2.928   9.398  0.00  0.00    +0.000 C 
BRANCH  11  12
ATOM     12  C   UNL     1      45.489   2.530   8.411  0.00  0.00    +0.000 A 
ATOM     13  C   UNL     1      45.977   3.451   7.484  0.00  0.00    +0.000 A 
ATOM     14  C   UNL     1      46.984   3.058   6.608  0.00  0.00    +0.000 A 
ATOM     15  C   UNL     1      47.472   1.759   6.671  0.00  0.00    +0.000 A 
ATOM     16  C   UNL     1      46.930   0.903   7.613  0.00  0.00    +0.000 A 
ATOM     17  N   UNL     1      45.955   1.255   8.479  0.00  0.00    +0.000 NA
ENDBRANCH  11  12
ENDBRANCH   9  11
ENDBRANCH   8   9
ENDBRANCH   5   8
ENDBRANCH   1   2
BRANCH   1  20
ATOM     18  O   UNL     1      49.893   7.087  14.081  0.00  0.00    +0.000 OA
ATOM     19  C   UNL     1      48.991   7.009  14.908  0.00  0.00    +0.000 C 
ATOM     20  N   UNL     1      47.713   7.440  14.659  0.00  0.00    +0.000 N 
ATOM     21  H   UNL     1      47.060   7.508  15.428  0.00  0.00    +0.000 HD
BRANCH  19  22
ATOM     22  C   UNL     1      49.199   6.398  16.227  0.00  0.00    +0.000 A 
ATOM     23  C   UNL     1      50.039   6.991  17.162  0.00  0.00    +0.000 A 
ATOM     24  S   UNL     1      50.128   6.124  18.634  0.00  0.00    +0.000 S 
ATOM     25  C   UNL     1      49.029   4.948  18.079  0.00  0.00    +0.000 A 
ATOM     26  N   UNL     1      48.640   3.910  18.867  0.00  0.00    +0.000 NA
ATOM     27  C   UNL     1      47.780   3.116  18.321  0.00  0.00    +0.000 A 
ATOM     28  N   UNL     1      47.280   3.253  17.052  0.00  0.00    +0.000 N 
ATOM     29  C   UNL     1      47.706   4.235  16.194  0.00  0.00    +0.000 A 
ATOM     30  O   UNL     1      47.365   4.221  15.017  0.00  0.00    +0.000 OA
ATOM     31  C   UNL     1      48.626   5.193  16.778  0.00  0.00    +0.000 A 
ATOM     32  H   UNL     1      46.646   2.575  16.659  0.00  0.00    +0.000 HD
ENDBRANCH  19  22
ENDBRANCH   1  20
TORSDOF 7
ENDMDL
MODEL 3
REMARK VINA RESULT:    -8.094      1.565      2.394
REMARK INTER + INTRA:         -12.382
REMARK INTER:                 -11.342
REMARK INTRA:                  -1.040
REMARK UNBOUND:                -0.976
REMARK  Name = 
REMARK  7 active torsions:
REMARK  status: ('A' for Active; 'I' for Inactive)
REMARK    1  A    between atoms: C_2  and  C_20
REMARK    2  A    between atoms: N_3  and  C_4
REMARK    3  A    between atoms: C_4  and  C_5
REMARK    4  A    between atoms: C_8  and  C_9
REMARK    5  A    between atoms: C_9  and  N_10
REMARK    6  A    between atoms: N_10  and  C_11
REMARK    7  A    between atoms: C_11  and  C_12
REMARK                            x       y       z     vdW  Elec       q    Type
REMARK                         _______ _______ _______ _____ _____    ______ ____
ROOT
ATOM      1  C   UNL     1      48.255   6.586  13.771  0.00  0.00    +0.000 C 
ENDROOT
BRANCH   1   2
ATOM      2  C   UNL     1      47.066   6.034  13.041  0.00  0.00    +0.000 A 
ATOM      3  C   UNL     1      46.724   6.486  11.767  0.00  0.00    +0.000 A 
ATOM      4  C   UNL     1      45.641   5.920  11.098  0.00  0.00    +0.000 A 
ATOM      5  C   UNL     1      44.911   4.911  11.721  0.00  0.00    +0.000 A 
ATOM      6  N   UNL     1      45.208   4.467  12.970  0.00  0.00    +0.000 NA
ATOM      7  C   UNL     1      46.263   5.043  13.599  0.00  0.00    +0.000 A 
BRANCH   5   8
ATOM      8  C   UNL     1      43.721   4.288  11.015  0.00  0.00    +0.000 C 
BRANCH   8   9
ATOM      9  N   UNL     1      43.980   3.873   9.627  0.00  0.00    +0.000 NA
ATOM     10  H   UNL     1      44.704   4.500   9.267  0.00  0.00    +0.000 HD
BRANCH   9  11
ATOM     11  C   UNL     1      44.523   2.507   9.552  0.00  0.00    +0.000 C 
BRANCH  11  12
ATOM     12  C   UNL     1      45.550   2.359   8.444  0.00  0.00    +0.000 A 
ATOM     13  C   UNL     1      45.831   3.426   7.591  0.00  0.00    +0.000 A 
ATOM     14  C   UNL     1      46.793   3.262   6.598  0.00  0.00    +0.000 A 
ATOM     15  C   UNL     1      47.443   2.040   6.476  0.00  0.00    +0.000 A 
ATOM     16  C   UNL     1      47.101   1.028   7.357  0.00  0.00    +0.000 A 
ATOM     17  N   UNL     1      46.176   1.157   8.331  0.00  0.00    +0.000 NA
ENDBRANCH  11  12
ENDBRANCH   9  11
ENDBRANCH   8   9
ENDBRANCH   5   8
ENDBRANCH   1   2
BRANCH   1  20
ATOM     18  O   UNL     1      50.160   6.162  15.847  0.00  0.00    +0.000 OA
ATOM     19  C   UNL     1      49.011   6.479  16.132  0.00  0.00    +0.000 C 
ATOM     20  N   UNL     1      48.036   6.673  15.189  0.00  0.00    +0.000 N 
ATOM     21  H   UNL     1      47.160   7.098  15.469  0.00  0.00    +0.000 HD
BRANCH  19  22
ATOM     22  C   UNL     1      48.574   6.633  17.526  0.00  0.00    +0.000 A 
ATOM     23  C   UNL     1      48.565   5.548  18.394  0.00  0.00    +0.000 A 
ATOM     24  S   UNL     1      48.035   5.948  19.970  0.00  0.00    +0.000 S 
ATOM     25  C   UNL     1      47.827   7.585  19.550  0.00  0.00    +0.000 A 
ATOM     26  N   UNL     1      47.407   8.505  20.460  0.00  0.00    +0.000 NA
ATOM     27  C   UNL     1      47.326   9.710  20.004  0.00  0.00    +0.000 A 
ATOM     28  N   UNL     1      47.611  10.084  18.716  0.00  0.00    +0.000 N 
ATOM     29  C   UNL     1      47.957   9.179  17.746  0.00  0.00    +0.000 A 
ATOM     30  O   UNL     1      48.035   9.526  16.573  0.00  0.00    +0.000 OA
ATOM     31  C   UNL     1      48.124   7.817  18.219  0.00  0.00    +0.000 A 
ATOM     32  H   UNL     1      47.484  11.033  18.402  0.00  0.00    +0.000 HD
ENDBRANCH  19  22
ENDBRANCH   1  20
TORSDOF 7
ENDMDL
MODEL 4
REMARK VINA RESULT:    -7.616      1.794      2.447
REMARK INTER + INTRA:         -11.708
REMARK INTER:                 -10.931
REMARK INTRA:                  -0.778
REMARK UNBOUND:                -0.976
REMARK  Name = 
REMARK  7 active torsions:
REMARK  status: ('A' for Active; 'I' for Inactive)
REMARK    1  A    between atoms: C_2  and  C_20
REMARK    2  A    between atoms: N_3  and  C_4
REMARK    3  A    between atoms: C_4  and  C_5
REMARK    4  A    between atoms: C_8  and  C_9
REMARK    5  A    between atoms: C_9  and  N_10
REMARK    6  A    between atoms: N_10  and  C_11
REMARK    7  A    between atoms: C_11  and  C_12
REMARK                            x       y       z     vdW  Elec       q    Type
REMARK                         _______ _______ _______ _____ _____    ______ ____
ROOT
ATOM      1  C   UNL     1      47.521   3.269  14.960  0.00  0.00    +0.000 C 
ENDROOT
BRANCH   1   2
ATOM      2  C   UNL     1      46.865   3.910  13.773  0.00  0.00    +0.000 A 
ATOM      3  C   UNL     1      45.931   3.221  13.001  0.00  0.00    +0.000 A 
ATOM      4  C   UNL     1      45.306   3.860  11.933  0.00  0.00    +0.000 A 
ATOM      5  C   UNL     1      45.635   5.184  11.649  0.00  0.00    +0.000 A 
ATOM      6  N   UNL     1      46.558   5.872  12.369  0.00  0.00    +0.000 NA
ATOM      7  C   UNL     1      47.154   5.220  13.398  0.00  0.00    +0.000 A 
BRANCH   5   8
ATOM      8  C   UNL     1      44.974   5.897  10.483  0.00  0.00    +0.000 C 
BRANCH   8   9
ATOM      9  N   UNL     1      45.438   5.462   9.156  0.00  0.00    +0.000 NA
ATOM     10  H   UNL     1      46.418   5.189   9.267  0.00  0.00    +0.000 HD
BRANCH   9  11
ATOM     11  C   UNL     1      44.713   4.272   8.682  0.00  0.00    +0.000 C 
BRANCH  11  12
ATOM     12  C   UNL     1      45.646   3.236   8.082  0.00  0.00    +0.000 A 
ATOM     13  C   UNL     1      46.552   3.591   7.082  0.00  0.00    +0.000 A 
ATOM     14  C   UNL     1      47.406   2.619   6.568  0.00  0.00    +0.000 A 
ATOM     15  C   UNL     1      47.330   1.321   7.055  0.00  0.00    +0.000 A 
ATOM     16  C   UNL     1      46.399   1.046   8.041  0.00  0.00    +0.000 A 
ATOM     17  N   UNL     1      45.559   1.967   8.562  0.00  0.00    +0.000 NA
ENDBRANCH  11  12
ENDBRANCH   9  11
ENDBRANCH   8   9
ENDBRANCH   5   8
ENDBRANCH   1   2
BRANCH   1  20
ATOM     18  O   UNL     1      46.645   3.164  17.669  0.00  0.00    +0.000 OA
ATOM     19  C   UNL     1      47.366   4.084  17.299  0.00  0.00    +0.000 C 
ATOM     20  N   UNL     1      47.804   4.214  16.007  0.00  0.00    +0.000 N 
ATOM     21  H   UNL     1      48.529   4.889  15.799  0.00  0.00    +0.000 HD
BRANCH  19  22
ATOM     22  C   UNL     1      47.785   5.156  18.212  0.00  0.00    +0.000 A 
ATOM     23  C   UNL     1      46.852   5.843  18.980  0.00  0.00    +0.000 A 
ATOM     24  S   UNL     1      47.552   7.039  19.981  0.00  0.00    +0.000 S 
ATOM     25  C   UNL     1      49.121   6.660  19.442  0.00  0.00    +0.000 A 
ATOM     26  N   UNL     1      50.215   7.307  19.926  0.00  0.00    +0.000 NA
ATOM     27  C   UNL     1      51.340   6.890  19.446  0.00  0.00    +0.000 A 
ATOM     28  N   UNL     1      51.475   5.895  18.513  0.00  0.00    +0.000 N 
ATOM     29  C   UNL     1      50.396   5.273  17.938  0.00  0.00    +0.000 A 
ATOM     30  O   UNL     1      50.552   4.514  16.988  0.00  0.00    +0.000 OA
ATOM     31  C   UNL     1      49.110   5.659  18.487  0.00  0.00    +0.000 A 
ATOM     32  H   UNL     1      52.376   5.642  18.138  0.00  0.00    +0.000 HD
ENDBRANCH  19  22
ENDBRANCH   1  20
TORSDOF 7
ENDMDL
MODEL 5
REMARK VINA RESULT:    -7.402      2.491      3.240
REMARK INTER + INTRA:         -11.406
REMARK INTER:                 -10.489
REMARK INTRA:                  -0.917
REMARK UNBOUND:                -0.976
REMARK  Name = 
REMARK  7 active torsions:
REMARK  status: ('A' for Active; 'I' for Inactive)
REMARK    1  A    between atoms: C_2  and  C_20
REMARK    2  A    between atoms: N_3  and  C_4
REMARK    3  A    between atoms: C_4  and  C_5
REMARK    4  A    between atoms: C_8  and  C_9
REMARK    5  A    between atoms: C_9  and  N_10
REMARK    6  A    between atoms: N_10  and  C_11
REMARK    7  A    between atoms: C_11  and  C_12
REMARK                            x       y       z     vdW  Elec       q    Type
REMARK                         _______ _______ _______ _____ _____    ______ ____
ROOT
ATOM      1  C   UNL     1      48.710   6.655  15.732  0.00  0.00    +0.000 C 
ENDROOT
BRANCH   1   2
ATOM      2  C   UNL     1      47.858   5.844  14.801  0.00  0.00    +0.000 A 
ATOM      3  C   UNL     1      47.341   4.607  15.184  0.00  0.00    +0.000 A 
ATOM      4  C   UNL     1      46.516   3.900  14.313  0.00  0.00    +0.000 A 
ATOM      5  C   UNL     1      46.227   4.443  13.064  0.00  0.00    +0.000 A 
ATOM      6  N   UNL     1      46.735   5.634  12.654  0.00  0.00    +0.000 NA
ATOM      7  C   UNL     1      47.541   6.294  13.522  0.00  0.00    +0.000 A 
BRANCH   5   8
ATOM      8  C   UNL     1      45.338   3.684  12.094  0.00  0.00    +0.000 C 
BRANCH   8   9
ATOM      9  N   UNL     1      44.889   4.468  10.932  0.00  0.00    +0.000 NA
ATOM     10  H   UNL     1      45.732   4.848  10.496  0.00  0.00    +0.000 HD
BRANCH   9  11
ATOM     11  C   UNL     1      44.228   3.625   9.923  0.00  0.00    +0.000 C 
BRANCH  11  12
ATOM     12  C   UNL     1      45.203   3.111   8.879  0.00  0.00    +0.000 A 
ATOM     13  C   UNL     1      45.786   3.986   7.962  0.00  0.00    +0.000 A 
ATOM     14  C   UNL     1      46.691   3.484   7.031  0.00  0.00    +0.000 A 
ATOM     15  C   UNL     1      46.985   2.126   7.032  0.00  0.00    +0.000 A 
ATOM     16  C   UNL     1      46.358   1.323   7.968  0.00  0.00    +0.000 A 
ATOM     17  N   UNL     1      45.479   1.780   8.886  0.00  0.00    +0.000 NA
ENDBRANCH  11  12
ENDBRANCH   9  11
ENDBRANCH   8   9
ENDBRANCH   5   8
ENDBRANCH   1   2
BRANCH   1  20
ATOM     18  O   UNL     1      49.152   6.050  18.481  0.00  0.00    +0.000 OA
ATOM     19  C   UNL     1      49.924   5.617  17.632  0.00  0.00    +0.000 C 
ATOM     20  N   UNL     1      49.789   5.889  16.296  0.00  0.00    +0.000 N 
ATOM     21  H   UNL     1      50.348   5.370  15.631  0.00  0.00    +0.000 HD
BRANCH  19  22
ATOM     22  C   UNL     1      51.092   4.803  17.991  0.00  0.00    +0.000 A 
ATOM     23  C   UNL     1      52.183   5.368  18.640  0.00  0.00    +0.000 A 
ATOM     24  S   UNL     1      53.426   4.243  18.976  0.00  0.00    +0.000 S 
ATOM     25  C   UNL     1      52.537   2.963  18.290  0.00  0.00    +0.000 A 
ATOM     26  N   UNL     1      53.021   1.692  18.269  0.00  0.00    +0.000 NA
ATOM     27  C   UNL     1      52.222   0.824  17.743  0.00  0.00    +0.000 A 
ATOM     28  N   UNL     1      50.986   1.108  17.223  0.00  0.00    +0.000 N 
ATOM     29  C   UNL     1      50.494   2.386  17.149  0.00  0.00    +0.000 A 
ATOM     30  O   UNL     1      49.465   2.619  16.524  0.00  0.00    +0.000 OA
ATOM     31  C   UNL     1      51.324   3.393  17.782  0.00  0.00    +0.000 A 
ATOM     32  H   UNL     1      50.424   0.397  16.781  0.00  0.00    +0.000 HD
ENDBRANCH  19  22
ENDBRANCH   1  20
TORSDOF 7
ENDMDL
MODEL 6
REMARK VINA RESULT:    -7.395      1.865      3.196
REMARK INTER + INTRA:         -11.397
REMARK INTER:                 -10.299
REMARK INTRA:                  -1.099
REMARK UNBOUND:                -0.976
REMARK  Name = 
REMARK  7 active torsions:
REMARK  status: ('A' for Active; 'I' for Inactive)
REMARK    1  A    between atoms: C_2  and  C_20
REMARK    2  A    between atoms: N_3  and  C_4
REMARK    3  A    between atoms: C_4  and  C_5
REMARK    4  A    between atoms: C_8  and  C_9
REMARK    5  A    between atoms: C_9  and  N_10
REMARK    6  A    between atoms: N_10  and  C_11
REMARK    7  A    between atoms: C_11  and  C_12
REMARK                            x       y       z     vdW  Elec       q    Type
REMARK                         _______ _______ _______ _____ _____    ______ ____
ROOT
ATOM      1  C   UNL     1      47.394   4.096  14.843  0.00  0.00    +0.000 C 
ENDROOT
BRANCH   1   2
ATOM      2  C   UNL     1      46.412   4.302  13.727  0.00  0.00    +0.000 A 
ATOM      3  C   UNL     1      45.901   3.226  13.003  0.00  0.00    +0.000 A 
ATOM      4  C   UNL     1      44.956   3.447  12.004  0.00  0.00    +0.000 A 
ATOM      5  C   UNL     1      44.542   4.750  11.741  0.00  0.00    +0.000 A 
ATOM      6  N   UNL     1      45.039   5.820  12.414  0.00  0.00    +0.000 NA
ATOM      7  C   UNL     1      45.963   5.572  13.375  0.00  0.00    +0.000 A 
BRANCH   5   8
ATOM      8  C   UNL     1      43.521   5.016  10.649  0.00  0.00    +0.000 C 
BRANCH   8   9
ATOM      9  N   UNL     1      43.808   4.356   9.366  0.00  0.00    +0.000 NA
ATOM     10  H   UNL     1      43.100   4.686   8.706  0.00  0.00    +0.000 HD
BRANCH   9  11
ATOM     11  C   UNL     1      45.117   4.754   8.823  0.00  0.00    +0.000 C 
BRANCH  11  12
ATOM     12  C   UNL     1      45.856   3.586   8.195  0.00  0.00    +0.000 A 
ATOM     13  C   UNL     1      45.622   2.282   8.632  0.00  0.00    +0.000 A 
ATOM     14  C   UNL     1      46.302   1.233   8.020  0.00  0.00    +0.000 A 
ATOM     15  C   UNL     1      47.201   1.509   6.998  0.00  0.00    +0.000 A 
ATOM     16  C   UNL     1      47.384   2.830   6.628  0.00  0.00    +0.000 A 
ATOM     17  N   UNL     1      46.737   3.869   7.199  0.00  0.00    +0.000 NA
ENDBRANCH  11  12
ENDBRANCH   9  11
ENDBRANCH   8   9
ENDBRANCH   5   8
ENDBRANCH   1   2
BRANCH   1  20
ATOM     18  O   UNL     1      49.505   4.687  16.662  0.00  0.00    +0.000 OA
ATOM     19  C   UNL     1      48.588   5.488  16.515  0.00  0.00    +0.000 C 
ATOM     20  N   UNL     1      47.527   5.258  15.678  0.00  0.00    +0.000 N 
ATOM     21  H   UNL     1      46.894   6.020  15.468  0.00  0.00    +0.000 HD
BRANCH  19  22
ATOM     22  C   UNL     1      48.531   6.748  17.267  0.00  0.00    +0.000 A 
ATOM     23  C   UNL     1      48.485   6.748  18.656  0.00  0.00    +0.000 A 
ATOM     24  S   UNL     1      48.437   8.319  19.330  0.00  0.00    +0.000 S 
ATOM     25  C   UNL     1      48.504   9.047  17.792  0.00  0.00    +0.000 A 
ATOM     26  N   UNL     1      48.520  10.399  17.645  0.00  0.00    +0.000 NA
ATOM     27  C   UNL     1      48.602  10.804  16.422  0.00  0.00    +0.000 A 
ATOM     28  N   UNL     1      48.656   9.984  15.324  0.00  0.00    +0.000 N 
ATOM     29  C   UNL     1      48.559   8.619  15.420  0.00  0.00    +0.000 A 
ATOM     30  O   UNL     1      48.437   7.933  14.411  0.00  0.00    +0.000 OA
ATOM     31  C   UNL     1      48.527   8.106  16.778  0.00  0.00    +0.000 A 
ATOM     32  H   UNL     1      48.671  10.355  14.388  0.00  0.00    +0.000 HD
ENDBRANCH  19  22
ENDBRANCH   1  20
TORSDOF 7
ENDMDL
MODEL 7
REMARK VINA RESULT:    -7.124      3.087      4.464
REMARK INTER + INTRA:         -11.015
REMARK INTER:                 -10.017
REMARK INTRA:                  -0.998
REMARK UNBOUND:                -0.976
REMARK  Name = 
REMARK  7 active torsions:
REMARK  status: ('A' for Active; 'I' for Inactive)
REMARK    1  A    between atoms: C_2  and  C_20
REMARK    2  A    between atoms: N_3  and  C_4
REMARK    3  A    between atoms: C_4  and  C_5
REMARK    4  A    between atoms: C_8  and  C_9
REMARK    5  A    between atoms: C_9  and  N_10
REMARK    6  A    between atoms: N_10  and  C_11
REMARK    7  A    between atoms: C_11  and  C_12
REMARK                            x       y       z     vdW  Elec       q    Type
REMARK                         _______ _______ _______ _____ _____    ______ ____
ROOT
ATOM      1  C   UNL     1      48.969   5.784  17.921  0.00  0.00    +0.000 C 
ENDROOT
BRANCH   1   2
ATOM      2  C   UNL     1      48.249   5.343  16.681  0.00  0.00    +0.000 A 
ATOM      3  C   UNL     1      48.248   6.124  15.527  0.00  0.00    +0.000 A 
ATOM      4  C   UNL     1      47.609   5.664  14.378  0.00  0.00    +0.000 A 
ATOM      5  C   UNL     1      46.971   4.427  14.407  0.00  0.00    +0.000 A 
ATOM      6  N   UNL     1      46.936   3.655  15.524  0.00  0.00    +0.000 NA
ATOM      7  C   UNL     1      47.561   4.133  16.628  0.00  0.00    +0.000 A 
BRANCH   5   8
ATOM      8  C   UNL     1      46.259   3.911  13.170  0.00  0.00    +0.000 C 
BRANCH   8   9
ATOM      9  N   UNL     1      44.790   3.953  13.245  0.00  0.00    +0.000 NA
ATOM     10  H   UNL     1      44.558   4.425  14.122  0.00  0.00    +0.000 HD
BRANCH   9  11
ATOM     11  C   UNL     1      44.206   4.758  12.160  0.00  0.00    +0.000 C 
BRANCH  11  12
ATOM     12  C   UNL     1      44.537   4.196  10.788  0.00  0.00    +0.000 A 
ATOM     13  C   UNL     1      44.167   2.895  10.448  0.00  0.00    +0.000 A 
ATOM     14  C   UNL     1      44.468   2.418   9.175  0.00  0.00    +0.000 A 
ATOM     15  C   UNL     1      45.136   3.244   8.280  0.00  0.00    +0.000 A 
ATOM     16  C   UNL     1      45.476   4.519   8.697  0.00  0.00    +0.000 A 
ATOM     17  N   UNL     1      45.195   5.012   9.923  0.00  0.00    +0.000 NA
ENDBRANCH  11  12
ENDBRANCH   9  11
ENDBRANCH   8   9
ENDBRANCH   5   8
ENDBRANCH   1   2
BRANCH   1  20
ATOM     18  O   UNL     1      51.554   5.969  16.738  0.00  0.00    +0.000 OA
ATOM     19  C   UNL     1      51.345   5.135  17.611  0.00  0.00    +0.000 C 
ATOM     20  N   UNL     1      50.120   4.971  18.205  0.00  0.00    +0.000 N 
ATOM     21  H   UNL     1      50.050   4.390  19.032  0.00  0.00    +0.000 HD
BRANCH  19  22
ATOM     22  C   UNL     1      52.388   4.204  18.060  0.00  0.00    +0.000 A 
ATOM     23  C   UNL     1      53.533   4.670  18.696  0.00  0.00    +0.000 A 
ATOM     24  S   UNL     1      54.609   3.420  19.148  0.00  0.00    +0.000 S 
ATOM     25  C   UNL     1      53.570   2.219  18.533  0.00  0.00    +0.000 A 
ATOM     26  N   UNL     1      53.882   0.898  18.618  0.00  0.00    +0.000 NA
ATOM     27  C   UNL     1      52.984   0.105  18.136  0.00  0.00    +0.000 A 
ATOM     28  N   UNL     1      51.806   0.507  17.562  0.00  0.00    +0.000 N 
ATOM     29  C   UNL     1      51.489   1.829  17.381  0.00  0.00    +0.000 A 
ATOM     30  O   UNL     1      50.512   2.147  16.713  0.00  0.00    +0.000 OA
ATOM     31  C   UNL     1      52.435   2.765  17.961  0.00  0.00    +0.000 A 
ATOM     32  H   UNL     1      51.162  -0.155  17.159  0.00  0.00    +0.000 HD
ENDBRANCH  19  22
ENDBRANCH   1  20
TORSDOF 7
ENDMDL
MODEL 8
REMARK VINA RESULT:    -7.029      4.360      9.464
REMARK INTER + INTRA:         -10.881
REMARK INTER:                  -9.995
REMARK INTRA:                  -0.886
REMARK UNBOUND:                -0.976
REMARK  Name = 
REMARK  7 active torsions:
REMARK  status: ('A' for Active; 'I' for Inactive)
REMARK    1  A    between atoms: C_2  and  C_20
REMARK    2  A    between atoms: N_3  and  C_4
REMARK    3  A    between atoms: C_4  and  C_5
REMARK    4  A    between atoms: C_8  and  C_9
REMARK    5  A    between atoms: C_9  and  N_10
REMARK    6  A    between atoms: N_10  and  C_11
REMARK    7  A    between atoms: C_11  and  C_12
REMARK                            x       y       z     vdW  Elec       q    Type
REMARK                         _______ _______ _______ _____ _____    ______ ____
ROOT
ATOM      1  C   UNL     1      47.112   3.378  16.887  0.00  0.00    +0.000 C 
ENDROOT
BRANCH   1   2
ATOM      2  C   UNL     1      48.557   3.441  17.287  0.00  0.00    +0.000 A 
ATOM      3  C   UNL     1      49.428   2.383  17.027  0.00  0.00    +0.000 A 
ATOM      4  C   UNL     1      50.773   2.492  17.370  0.00  0.00    +0.000 A 
ATOM      5  C   UNL     1      51.225   3.660  17.977  0.00  0.00    +0.000 A 
ATOM      6  N   UNL     1      50.396   4.697  18.263  0.00  0.00    +0.000 NA
ATOM      7  C   UNL     1      49.091   4.558  17.924  0.00  0.00    +0.000 A 
BRANCH   5   8
ATOM      8  C   UNL     1      52.686   3.796  18.369  0.00  0.00    +0.000 C 
BRANCH   8   9
ATOM      9  N   UNL     1      53.143   2.827  19.378  0.00  0.00    +0.000 NA
ATOM     10  H   UNL     1      52.549   2.001  19.276  0.00  0.00    +0.000 HD
BRANCH   9  11
ATOM     11  C   UNL     1      54.527   2.391  19.134  0.00  0.00    +0.000 C 
BRANCH  11  12
ATOM     12  C   UNL     1      54.589   1.023  18.478  0.00  0.00    +0.000 A 
ATOM     13  C   UNL     1      54.656   0.905  17.090  0.00  0.00    +0.000 A 
ATOM     14  C   UNL     1      54.731  -0.364  16.523  0.00  0.00    +0.000 A 
ATOM     15  C   UNL     1      54.729  -1.480  17.350  0.00  0.00    +0.000 A 
ATOM     16  C   UNL     1      54.651  -1.279  18.717  0.00  0.00    +0.000 A 
ATOM     17  N   UNL     1      54.581  -0.062  19.297  0.00  0.00    +0.000 NA
ENDBRANCH  11  12
ENDBRANCH   9  11
ENDBRANCH   8   9
ENDBRANCH   5   8
ENDBRANCH   1   2
BRANCH   1  20
ATOM     18  O   UNL     1      47.311   3.093  14.059  0.00  0.00    +0.000 OA
ATOM     19  C   UNL     1      46.877   4.136  14.535  0.00  0.00    +0.000 C 
ATOM     20  N   UNL     1      46.778   4.354  15.885  0.00  0.00    +0.000 N 
ATOM     21  H   UNL     1      46.258   5.157  16.216  0.00  0.00    +0.000 HD
BRANCH  19  22
ATOM     22  C   UNL     1      46.468   5.264  13.688  0.00  0.00    +0.000 A 
ATOM     23  C   UNL     1      47.308   6.355  13.499  0.00  0.00    +0.000 A 
ATOM     24  S   UNL     1      46.645   7.547  12.467  0.00  0.00    +0.000 S 
ATOM     25  C   UNL     1      45.230   6.632  12.220  0.00  0.00    +0.000 A 
ATOM     26  N   UNL     1      44.233   7.072  11.405  0.00  0.00    +0.000 NA
ATOM     27  C   UNL     1      43.237   6.258  11.293  0.00  0.00    +0.000 A 
ATOM     28  N   UNL     1      43.134   5.048  11.930  0.00  0.00    +0.000 N 
ATOM     29  C   UNL     1      44.075   4.604  12.823  0.00  0.00    +0.000 A 
ATOM     30  O   UNL     1      43.865   3.604  13.500  0.00  0.00    +0.000 OA
ATOM     31  C   UNL     1      45.247   5.452  12.940  0.00  0.00    +0.000 A 
ATOM     32  H   UNL     1      42.310   4.474  11.843  0.00  0.00    +0.000 HD
ENDBRANCH  19  22
ENDBRANCH   1  20
TORSDOF 7
ENDMDL
MODEL 9
REMARK VINA RESULT:    -6.940      3.249      8.930
REMARK INTER + INTRA:         -10.756
REMARK INTER:                  -9.363
REMARK INTRA:                  -1.393
REMARK UNBOUND:                -0.976
REMARK  Name = 
REMARK  7 active torsions:
REMARK  status: ('A' for Active; 'I' for Inactive)
REMARK    1  A    between atoms: C_2  and  C_20
REMARK    2  A    between atoms: N_3  and  C_4
REMARK    3  A    between atoms: C_4  and  C_5
REMARK    4  A    between atoms: C_8  and  C_9
REMARK    5  A    between atoms: C_9  and  N_10
REMARK    6  A    between atoms: N_10  and  C_11
REMARK    7  A    between atoms: C_11  and  C_12
REMARK                            x       y       z     vdW  Elec       q    Type
REMARK                         _______ _______ _______ _____ _____    ______ ____
ROOT
ATOM      1  C   UNL     1      47.375   7.735  12.039  0.00  0.00    +0.000 C 
ENDROOT
BRANCH   1   2
ATOM      2  C   UNL     1      47.919   7.790  13.436  0.00  0.00    +0.000 A 
ATOM      3  C   UNL     1      48.639   6.726  13.976  0.00  0.00    +0.000 A 
ATOM      4  C   UNL     1      49.169   6.827  15.260  0.00  0.00    +0.000 A 
ATOM      5  C   UNL     1      48.963   7.996  15.988  0.00  0.00    +0.000 A 
ATOM      6  N   UNL     1      48.247   9.040  15.496  0.00  0.00    +0.000 NA
ATOM      7  C   UNL     1      47.737   8.908  14.247  0.00  0.00    +0.000 A 
BRANCH   5   8
ATOM      8  C   UNL     1      49.524   8.124  17.393  0.00  0.00    +0.000 C 
BRANCH   8   9
ATOM      9  N   UNL     1      48.646   7.605  18.453  0.00  0.00    +0.000 NA
ATOM     10  H   UNL     1      47.772   7.332  17.997  0.00  0.00    +0.000 HD
BRANCH   9  11
ATOM     11  C   UNL     1      49.198   6.392  19.080  0.00  0.00    +0.000 C 
BRANCH  11  12
ATOM     12  C   UNL     1      48.801   5.131  18.333  0.00  0.00    +0.000 A 
ATOM     13  C   UNL     1      49.740   4.131  18.082  0.00  0.00    +0.000 A 
ATOM     14  C   UNL     1      49.337   2.979  17.412  0.00  0.00    +0.000 A 
ATOM     15  C   UNL     1      48.015   2.857  17.003  0.00  0.00    +0.000 A 
ATOM     16  C   UNL     1      47.147   3.898  17.283  0.00  0.00    +0.000 A 
ATOM     17  N   UNL     1      47.506   5.026  17.933  0.00  0.00    +0.000 NA
ENDBRANCH  11  12
ENDBRANCH   9  11
ENDBRANCH   8   9
ENDBRANCH   5   8
ENDBRANCH   1   2
BRANCH   1  20
ATOM     18  O   UNL     1      44.550   7.407  11.869  0.00  0.00    +0.000 OA
ATOM     19  C   UNL     1      45.285   6.443  11.688  0.00  0.00    +0.000 C 
ATOM     20  N   UNL     1      46.651   6.520  11.780  0.00  0.00    +0.000 N 
ATOM     21  H   UNL     1      47.209   5.741  11.454  0.00  0.00    +0.000 HD
BRANCH  19  22
ATOM     22  C   UNL     1      44.752   5.105  11.401  0.00  0.00    +0.000 A 
ATOM     23  C   UNL     1      43.994   4.423  12.344  0.00  0.00    +0.000 A 
ATOM     24  S   UNL     1      43.461   2.890  11.802  0.00  0.00    +0.000 S 
ATOM     25  C   UNL     1      44.202   3.102  10.284  0.00  0.00    +0.000 A 
ATOM     26  N   UNL     1      44.114   2.156   9.311  0.00  0.00    +0.000 NA
ATOM     27  C   UNL     1      44.701   2.470   8.204  0.00  0.00    +0.000 A 
ATOM     28  N   UNL     1      45.383   3.637   7.979  0.00  0.00    +0.000 N 
ATOM     29  C   UNL     1      45.567   4.582   8.957  0.00  0.00    +0.000 A 
ATOM     30  O   UNL     1      46.325   5.527   8.771  0.00  0.00    +0.000 OA
ATOM     31  C   UNL     1      44.875   4.308  10.203  0.00  0.00    +0.000 A 
ATOM     32  H   UNL     1      45.863   3.810   7.110  0.00  0.00    +0.000 HD
ENDBRANCH  19  22
ENDBRANCH   1  20
TORSDOF 7
ENDMDL
