MODEL 1
REMARK VINA RESULT:    -8.403      0.000      0.000
REMARK INTER + INTRA:         -13.263
REMARK INTER:                 -11.841
REMARK INTRA:                  -1.422
REMARK UNBOUND:                -1.422
REMARK  Name = 
REMARK  8 active torsions:
REMARK  status: ('A' for Active; 'I' for Inactive)
REMARK    1  A    between atoms: C_1  and  O_2
REMARK    2  A    between atoms: O_2  and  C_3
REMARK    3  A    between atoms: C_10  and  C_11
REMARK    4  A    between atoms: N_13  and  C_14
REMARK    5  A    between atoms: C_14  and  C_15
REMARK    6  A    between atoms: C_18  and  N_19
REMARK    7  A    between atoms: N_19  and  C_20
REMARK    8  A    between atoms: C_20  and  C_21
REMARK                            x       y       z     vdW  Elec       q    Type
REMARK                         _______ _______ _______ _____ _____    ______ ____
ROOT
ATOM      1  C   UNL     1      47.012   7.898  13.255  0.00  0.00    +0.000 C 
ENDROOT
BRANCH   1   2
ATOM      2  C   UNL     1      46.229   6.989  12.342  0.00  0.00    +0.000 A 
ATOM      3  C   UNL     1      45.008   6.444  12.748  0.00  0.00    +0.000 A 
ATOM      4  C   UNL     1      44.269   5.616  11.888  0.00  0.00    +0.000 A 
ATOM      5  C   UNL     1      44.744   5.272  10.617  0.00  0.00    +0.000 A 
ATOM      6  C   UNL     1      45.980   5.809  10.229  0.00  0.00    +0.000 A 
ATOM      7  C   UNL     1      46.718   6.648  11.077  0.00  0.00    +0.000 A 
BRANCH   5   8
ATOM      8  N   UNL     1      44.015   4.529   9.681  0.00  0.00    +0.000 N 
ATOM      9  H   UNL     1      43.877   5.049   8.819  0.00  0.00    +0.000 HD
BRANCH   8  10
ATOM     10  C   UNL     1      44.261   3.100   9.511  0.00  0.00    +0.000 C 
BRANCH  10  11
ATOM     11  C   UNL     1      45.534   2.793   8.692  0.00  0.00    +0.000 C 
ATOM     12  C   UNL     1      45.617   3.588   7.377  0.00  0.00    +0.000 C 
ATOM     13  C   UNL     1      46.894   3.265   6.598  0.00  0.00    +0.000 C 
ATOM     14  C   UNL     1      47.036   1.767   6.351  0.00  0.00    +0.000 C 
ATOM     15  C   UNL     1      46.994   0.987   7.660  0.00  0.00    +0.000 C 
ATOM     16  C   UNL     1      45.721   1.287   8.451  0.00  0.00    +0.000 C 
ENDBRANCH  10  11
ENDBRANCH   8  10
ENDBRANCH   5   8
ENDBRANCH   1   2
BRANCH   1  19
ATOM     17  C   UNL     1      48.728   6.825  14.659  0.00  0.00    +0.000 C 
ATOM     18  O   UNL     1      49.604   7.069  13.835  0.00  0.00    +0.000 OA
ATOM     19  N   UNL     1      47.430   7.201  14.445  0.00  0.00    +0.000 N 
ATOM     20  H   UNL     1      46.712   6.945  15.108  0.00  0.00    +0.000 HD
BRANCH  17  28
ATOM     21  C   UNL     1      47.268   4.174  16.301  0.00  0.00    +0.000 A 
ATOM     22  N   UNL     1      46.905   3.181  17.137  0.00  0.00    +0.000 NA
ATOM     23  C   UNL     1      47.616   3.008  18.251  0.00  0.00    +0.000 A 
ATOM     24  N   UNL     1      48.671   3.714  18.646  0.00  0.00    +0.000 NA
ATOM     25  C   UNL     1      49.005   4.687  17.782  0.00  0.00    +0.000 A 
ATOM     26  S   UNL     1      50.331   5.694  18.124  0.00  0.00    +0.000 S 
ATOM     27  C   UNL     1      50.101   6.568  16.686  0.00  0.00    +0.000 A 
ATOM     28  C   UNL     1      49.028   6.124  15.920  0.00  0.00    +0.000 A 
ATOM     29  C   UNL     1      48.373   4.995  16.581  0.00  0.00    +0.000 A 
BRANCH  21  31
ATOM     30  C   UNL     1      47.074   3.560  14.055  0.00  0.00    +0.000 C 
ATOM     31  O   UNL     1      46.548   4.328  15.134  0.00  0.00    +0.000 OA
ENDBRANCH  21  31
ENDBRANCH  17  28
ENDBRANCH   1  19
TORSDOF 7
ENDMDL
MODEL 2
REMARK VINA RESULT:    -7.679      2.154      2.867
REMARK INTER + INTRA:         -12.244
REMARK INTER:                 -11.172
REMARK INTRA:                  -1.072
REMARK UNBOUND:                -1.422
REMARK  Name = 
REMARK  8 active torsions:
REMARK  status: ('A' for Active; 'I' for Inactive)
REMARK    1  A    between atoms: C_1  and  O_2
REMARK    2  A    between atoms: O_2  and  C_3
REMARK    3  A    between atoms: C_10  and  C_11
REMARK    4  A    between atoms: N_13  and  C_14
REMARK    5  A    between atoms: C_14  and  C_15
REMARK    6  A    between atoms: C_18  and  N_19
REMARK    7  A    between atoms: N_19  and  C_20
REMARK    8  A    between atoms: C_20  and  C_21
REMARK                            x       y       z     vdW  Elec       q    Type
REMARK                         _______ _______ _______ _____ _____    ______ ____
ROOT
ATOM      1  C   UNL     1      47.947   6.632  13.553  0.00  0.00    +0.000 C 
ENDROOT
BRANCH   1   2
ATOM      2  C   UNL     1      46.915   5.910  12.724  0.00  0.00    +0.000 A 
ATOM      3  C   UNL     1      46.477   6.437  11.505  0.00  0.00    +0.000 A 
ATOM      4  C   UNL     1      45.533   5.753  10.724  0.00  0.00    +0.000 A 
ATOM      5  C   UNL     1      44.966   4.547  11.151  0.00  0.00    +0.000 A 
ATOM      6  C   UNL     1      45.397   4.038  12.385  0.00  0.00    +0.000 A 
ATOM      7  C   UNL     1      46.351   4.709  13.166  0.00  0.00    +0.000 A 
BRANCH   5   8
ATOM      8  N   UNL     1      44.092   3.773  10.379  0.00  0.00    +0.000 N 
ATOM      9  H   UNL     1      43.566   4.345   9.723  0.00  0.00    +0.000 HD
BRANCH   8  10
ATOM     10  C   UNL     1      44.506   2.468   9.870  0.00  0.00    +0.000 C 
BRANCH  10  11
ATOM     11  C   UNL     1      45.666   2.551   8.853  0.00  0.00    +0.000 C 
ATOM     12  C   UNL     1      45.438   3.603   7.754  0.00  0.00    +0.000 C 
ATOM     13  C   UNL     1      46.610   3.663   6.772  0.00  0.00    +0.000 C 
ATOM     14  C   UNL     1      46.909   2.292   6.174  0.00  0.00    +0.000 C 
ATOM     15  C   UNL     1      47.175   1.261   7.265  0.00  0.00    +0.000 C 
ATOM     16  C   UNL     1      46.011   1.178   8.253  0.00  0.00    +0.000 C 
ENDBRANCH  10  11
ENDBRANCH   8  10
ENDBRANCH   5   8
ENDBRANCH   1   2
BRANCH   1  19
ATOM     17  C   UNL     1      48.914   6.282  15.790  0.00  0.00    +0.000 C 
ATOM     18  O   UNL     1      50.030   6.607  15.397  0.00  0.00    +0.000 OA
ATOM     19  N   UNL     1      47.840   6.269  14.943  0.00  0.00    +0.000 N 
ATOM     20  H   UNL     1      46.939   5.946  15.270  0.00  0.00    +0.000 HD
BRANCH  17  28
ATOM     21  C   UNL     1      47.904   8.021  18.585  0.00  0.00    +0.000 A 
ATOM     22  N   UNL     1      47.532   8.447  19.809  0.00  0.00    +0.000 NA
ATOM     23  C   UNL     1      47.509   7.557  20.802  0.00  0.00    +0.000 A 
ATOM     24  N   UNL     1      47.813   6.265  20.726  0.00  0.00    +0.000 NA
ATOM     25  C   UNL     1      48.170   5.880  19.490  0.00  0.00    +0.000 A 
ATOM     26  S   UNL     1      48.594   4.259  19.206  0.00  0.00    +0.000 S 
ATOM     27  C   UNL     1      48.887   4.573  17.562  0.00  0.00    +0.000 A 
ATOM     28  C   UNL     1      48.672   5.896  17.192  0.00  0.00    +0.000 A 
ATOM     29  C   UNL     1      48.241   6.677  18.352  0.00  0.00    +0.000 A 
BRANCH  21  31
ATOM     30  C   UNL     1      49.126   9.649  17.439  0.00  0.00    +0.000 C 
ATOM     31  O   UNL     1      47.896   8.940  17.555  0.00  0.00    +0.000 OA
ENDBRANCH  21  31
ENDBRANCH  17  28
ENDBRANCH   1  19
TORSDOF 7
ENDMDL
MODEL 3
REMARK VINA RESULT:    -7.580      1.999      3.718
REMARK INTER + INTRA:         -12.105
REMARK INTER:                 -10.813
REMARK INTRA:                  -1.291
REMARK UNBOUND:                -1.422
REMARK  Name = 
REMARK  8 active torsions:
REMARK  status: ('A' for Active; 'I' for Inactive)
REMARK    1  A    between atoms: C_1  and  O_2
REMARK    2  A    between atoms: O_2  and  C_3
REMARK    3  A    between atoms: C_10  and  C_11
REMARK    4  A    between atoms: N_13  and  C_14
REMARK    5  A    between atoms: C_14  and  C_15
REMARK    6  A    between atoms: C_18  and  N_19
REMARK    7  A    between atoms: N_19  and  C_20
REMARK    8  A    between atoms: C_20  and  C_21
REMARK                            x       y       z     vdW  Elec       q    Type
REMARK                         _______ _______ _______ _____ _____    ______ ____
ROOT
ATOM      1  C   UNL     1      46.852   4.398  14.880  0.00  0.00    +0.000 C 
ENDROOT
BRANCH   1   2
ATOM      2  C   UNL     1      46.364   4.608  13.468  0.00  0.00    +0.000 A 
ATOM      3  C   UNL     1      46.690   5.770  12.762  0.00  0.00    +0.000 A 
ATOM      4  C   UNL     1      46.254   5.955  11.441  0.00  0.00    +0.000 A 
ATOM      5  C   UNL     1      45.446   5.010  10.799  0.00  0.00    +0.000 A 
ATOM      6  C   UNL     1      45.108   3.858  11.524  0.00  0.00    +0.000 A 
ATOM      7  C   UNL     1      45.551   3.659  12.840  0.00  0.00    +0.000 A 
BRANCH   5   8
ATOM      8  N   UNL     1      45.057   5.092   9.457  0.00  0.00    +0.000 N 
ATOM      9  H   UNL     1      45.792   5.489   8.879  0.00  0.00    +0.000 HD
BRANCH   8  10
ATOM     10  C   UNL     1      44.296   4.011   8.836  0.00  0.00    +0.000 C 
BRANCH  10  11
ATOM     11  C   UNL     1      45.159   3.092   7.944  0.00  0.00    +0.000 C 
ATOM     12  C   UNL     1      45.686   1.848   8.681  0.00  0.00    +0.000 C 
ATOM     13  C   UNL     1      46.527   0.958   7.764  0.00  0.00    +0.000 C 
ATOM     14  C   UNL     1      47.663   1.740   7.113  0.00  0.00    +0.000 C 
ATOM     15  C   UNL     1      47.133   2.949   6.349  0.00  0.00    +0.000 C 
ATOM     16  C   UNL     1      46.296   3.858   7.250  0.00  0.00    +0.000 C 
ENDBRANCH  10  11
ENDBRANCH   8  10
ENDBRANCH   5   8
ENDBRANCH   1   2
BRANCH   1  19
ATOM     17  C   UNL     1      48.570   5.499  16.258  0.00  0.00    +0.000 C 
ATOM     18  O   UNL     1      48.978   4.419  16.673  0.00  0.00    +0.000 OA
ATOM     19  N   UNL     1      47.528   5.570  15.374  0.00  0.00    +0.000 N 
ATOM     20  H   UNL     1      47.169   6.469  15.084  0.00  0.00    +0.000 HD
BRANCH  17  28
ATOM     21  C   UNL     1      49.960   8.145  14.547  0.00  0.00    +0.000 A 
ATOM     22  N   UNL     1      50.545   9.289  14.140  0.00  0.00    +0.000 NA
ATOM     23  C   UNL     1      50.952  10.151  15.073  0.00  0.00    +0.000 A 
ATOM     24  N   UNL     1      50.842  10.015  16.392  0.00  0.00    +0.000 NA
ATOM     25  C   UNL     1      50.247   8.867  16.754  0.00  0.00    +0.000 A 
ATOM     26  S   UNL     1      50.022   8.523  18.403  0.00  0.00    +0.000 S 
ATOM     27  C   UNL     1      49.280   7.038  18.043  0.00  0.00    +0.000 A 
ATOM     28  C   UNL     1      49.183   6.771  16.682  0.00  0.00    +0.000 A 
ATOM     29  C   UNL     1      49.764   7.871  15.911  0.00  0.00    +0.000 A 
BRANCH  21  31
ATOM     30  C   UNL     1      49.894   7.664  12.262  0.00  0.00    +0.000 C 
ATOM     31  O   UNL     1      49.512   7.271  13.577  0.00  0.00    +0.000 OA
ENDBRANCH  21  31
ENDBRANCH  17  28
ENDBRANCH   1  19
TORSDOF 7
ENDMDL
MODEL 4
REMARK VINA RESULT:    -7.536      1.580      2.128
REMARK INTER + INTRA:         -12.042
REMARK INTER:                 -10.924
REMARK INTRA:                  -1.118
REMARK UNBOUND:                -1.422
REMARK  Name = 
REMARK  8 active torsions:
REMARK  status: ('A' for Active; 'I' for Inactive)
REMARK    1  A    between atoms: C_1  and  O_2
REMARK    2  A    between atoms: O_2  and  C_3
REMARK    3  A    between atoms: C_10  and  C_11
REMARK    4  A    between atoms: N_13  and  C_14
REMARK    5  A    between atoms: C_14  and  C_15
REMARK    6  A    between atoms: C_18  and  N_19
REMARK    7  A    between atoms: N_19  and  C_20
REMARK    8  A    between atoms: C_20  and  C_21
REMARK                            x       y       z     vdW  Elec       q    Type
REMARK                         _______ _______ _______ _____ _____    ______ ____
ROOT
ATOM      1  C   UNL     1      47.352   7.203  13.371  0.00  0.00    +0.000 C 
ENDROOT
BRANCH   1   2
ATOM      2  C   UNL     1      46.613   6.041  12.756  0.00  0.00    +0.000 A 
ATOM      3  C   UNL     1      45.980   6.169  11.516  0.00  0.00    +0.000 A 
ATOM      4  C   UNL     1      45.310   5.081  10.935  0.00  0.00    +0.000 A 
ATOM      5  C   UNL     1      45.215   3.848  11.588  0.00  0.00    +0.000 A 
ATOM      6  C   UNL     1      45.836   3.737  12.841  0.00  0.00    +0.000 A 
ATOM      7  C   UNL     1      46.519   4.816  13.423  0.00  0.00    +0.000 A 
BRANCH   5   8
ATOM      8  N   UNL     1      44.644   2.701  11.023  0.00  0.00    +0.000 N 
ATOM      9  H   UNL     1      43.911   2.319  11.615  0.00  0.00    +0.000 HD
BRANCH   8  10
ATOM     10  C   UNL     1      44.382   2.631   9.588  0.00  0.00    +0.000 C 
BRANCH  10  11
ATOM     11  C   UNL     1      45.669   2.598   8.735  0.00  0.00    +0.000 C 
ATOM     12  C   UNL     1      45.656   3.608   7.574  0.00  0.00    +0.000 C 
ATOM     13  C   UNL     1      46.949   3.554   6.759  0.00  0.00    +0.000 C 
ATOM     14  C   UNL     1      47.238   2.141   6.261  0.00  0.00    +0.000 C 
ATOM     15  C   UNL     1      47.291   1.150   7.419  0.00  0.00    +0.000 C 
ATOM     16  C   UNL     1      46.004   1.181   8.243  0.00  0.00    +0.000 C 
ENDBRANCH  10  11
ENDBRANCH   8  10
ENDBRANCH   5   8
ENDBRANCH   1   2
BRANCH   1  19
ATOM     17  C   UNL     1      49.242   7.597  14.900  0.00  0.00    +0.000 C 
ATOM     18  O   UNL     1      49.008   8.801  14.933  0.00  0.00    +0.000 OA
ATOM     19  N   UNL     1      48.472   6.747  14.155  0.00  0.00    +0.000 N 
ATOM     20  H   UNL     1      48.711   5.766  14.095  0.00  0.00    +0.000 HD
BRANCH  17  28
ATOM     21  C   UNL     1      49.450   5.005  17.157  0.00  0.00    +0.000 A 
ATOM     22  N   UNL     1      49.811   4.058  18.047  0.00  0.00    +0.000 NA
ATOM     23  C   UNL     1      51.091   4.002  18.418  0.00  0.00    +0.000 A 
ATOM     24  N   UNL     1      52.081   4.786  18.000  0.00  0.00    +0.000 NA
ATOM     25  C   UNL     1      51.682   5.708  17.110  0.00  0.00    +0.000 A 
ATOM     26  S   UNL     1      52.814   6.800  16.467  0.00  0.00    +0.000 S 
ATOM     27  C   UNL     1      51.624   7.555  15.520  0.00  0.00    +0.000 A 
ATOM     28  C   UNL     1      50.355   7.005  15.664  0.00  0.00    +0.000 A 
ATOM     29  C   UNL     1      50.394   5.896  16.619  0.00  0.00    +0.000 A 
BRANCH  21  31
ATOM     30  C   UNL     1      47.440   3.822  17.025  0.00  0.00    +0.000 C 
ATOM     31  O   UNL     1      48.131   5.038  16.754  0.00  0.00    +0.000 OA
ENDBRANCH  21  31
ENDBRANCH  17  28
ENDBRANCH   1  19
TORSDOF 7
ENDMDL
MODEL 5
REMARK VINA RESULT:    -7.449      2.541      3.469
REMARK INTER + INTRA:         -11.919
REMARK INTER:                 -10.851
REMARK INTRA:                  -1.068
REMARK UNBOUND:                -1.422
REMARK  Name = 
REMARK  8 active torsions:
REMARK  status: ('A' for Active; 'I' for Inactive)
REMARK    1  A    between atoms: C_1  and  O_2
REMARK    2  A    between atoms: O_2  and  C_3
REMARK    3  A    between atoms: C_10  and  C_11
REMARK    4  A    between atoms: N_13  and  C_14
REMARK    5  A    between atoms: C_14  and  C_15
REMARK    6  A    between atoms: C_18  and  N_19
REMARK    7  A    between atoms: N_19  and  C_20
REMARK    8  A    between atoms: C_20  and  C_21
REMARK                            x       y       z     vdW  Elec       q    Type
REMARK                         _______ _______ _______ _____ _____    ______ ____
ROOT
ATOM      1  C   UNL     1      47.131   4.277  14.962  0.00  0.00    +0.000 C 
ENDROOT
BRANCH   1   2
ATOM      2  C   UNL     1      46.561   4.529  13.588  0.00  0.00    +0.000 A 
ATOM      3  C   UNL     1      46.830   5.721  12.908  0.00  0.00    +0.000 A 
ATOM      4  C   UNL     1      46.317   5.945  11.621  0.00  0.00    +0.000 A 
ATOM      5  C   UNL     1      45.488   5.009  10.991  0.00  0.00    +0.000 A 
ATOM      6  C   UNL     1      45.209   3.827  11.691  0.00  0.00    +0.000 A 
ATOM      7  C   UNL     1      45.729   3.589  12.973  0.00  0.00    +0.000 A 
BRANCH   5   8
ATOM      8  N   UNL     1      45.023   5.132   9.676  0.00  0.00    +0.000 N 
ATOM      9  H   UNL     1      45.714   5.571   9.075  0.00  0.00    +0.000 HD
BRANCH   8  10
ATOM     10  C   UNL     1      44.254   4.056   9.056  0.00  0.00    +0.000 C 
BRANCH  10  11
ATOM     11  C   UNL     1      45.094   3.179   8.103  0.00  0.00    +0.000 C 
ATOM     12  C   UNL     1      45.618   1.891   8.762  0.00  0.00    +0.000 C 
ATOM     13  C   UNL     1      46.437   1.044   7.786  0.00  0.00    +0.000 C 
ATOM     14  C   UNL     1      47.572   1.849   7.162  0.00  0.00    +0.000 C 
ATOM     15  C   UNL     1      47.045   3.103   6.474  0.00  0.00    +0.000 C 
ATOM     16  C   UNL     1      46.231   3.970   7.435  0.00  0.00    +0.000 C 
ENDBRANCH  10  11
ENDBRANCH   8  10
ENDBRANCH   5   8
ENDBRANCH   1   2
BRANCH   1  19
ATOM     17  C   UNL     1      48.558   5.632  16.442  0.00  0.00    +0.000 C 
ATOM     18  O   UNL     1      49.292   4.675  16.668  0.00  0.00    +0.000 OA
ATOM     19  N   UNL     1      47.476   5.515  15.614  0.00  0.00    +0.000 N 
ATOM     20  H   UNL     1      46.851   6.298  15.482  0.00  0.00    +0.000 HD
BRANCH  17  28
ATOM     21  C   UNL     1      48.047   6.940  19.587  0.00  0.00    +0.000 A 
ATOM     22  N   UNL     1      47.958   7.690  20.703  0.00  0.00    +0.000 NA
ATOM     23  C   UNL     1      48.368   8.957  20.640  0.00  0.00    +0.000 A 
ATOM     24  N   UNL     1      48.871   9.585  19.580  0.00  0.00    +0.000 NA
ATOM     25  C   UNL     1      48.949   8.801  18.493  0.00  0.00    +0.000 A 
ATOM     26  S   UNL     1      49.567   9.437  17.044  0.00  0.00    +0.000 S 
ATOM     27  C   UNL     1      49.347   7.956  16.242  0.00  0.00    +0.000 A 
ATOM     28  C   UNL     1      48.808   6.955  17.043  0.00  0.00    +0.000 A 
ATOM     29  C   UNL     1      48.571   7.466  18.394  0.00  0.00    +0.000 A 
BRANCH  21  31
ATOM     30  C   UNL     1      48.650   4.777  20.233  0.00  0.00    +0.000 C 
ATOM     31  O   UNL     1      47.651   5.620  19.666  0.00  0.00    +0.000 OA
ENDBRANCH  21  31
ENDBRANCH  17  28
ENDBRANCH   1  19
TORSDOF 7
ENDMDL
MODEL 6
REMARK VINA RESULT:    -6.565      2.410      3.656
REMARK INTER + INTRA:         -10.673
REMARK INTER:                  -9.646
REMARK INTRA:                  -1.027
REMARK UNBOUND:                -1.422
REMARK  Name = 
REMARK  8 active torsions:
REMARK  status: ('A' for Active; 'I' for Inactive)
REMARK    1  A    between atoms: C_1  and  O_2
REMARK    2  A    between atoms: O_2  and  C_3
REMARK    3  A    between atoms: C_10  and  C_11
REMARK    4  A    between atoms: N_13  and  C_14
REMARK    5  A    between atoms: C_14  and  C_15
REMARK    6  A    between atoms: C_18  and  N_19
REMARK    7  A    between atoms: N_19  and  C_20
REMARK    8  A    between atoms: C_20  and  C_21
REMARK                            x       y       z     vdW  Elec       q    Type
REMARK                         _______ _______ _______ _____ _____    ______ ____
ROOT
ATOM      1  C   UNL     1      47.672   4.179  15.026  0.00  0.00    +0.000 C 
ENDROOT
BRANCH   1   2
ATOM      2  C   UNL     1      46.873   4.535  13.797  0.00  0.00    +0.000 A 
ATOM      3  C   UNL     1      47.159   5.692  13.066  0.00  0.00    +0.000 A 
ATOM      4  C   UNL     1      46.430   6.010  11.910  0.00  0.00    +0.000 A 
ATOM      5  C   UNL     1      45.369   5.211  11.472  0.00  0.00    +0.000 A 
ATOM      6  C   UNL     1      45.078   4.064  12.224  0.00  0.00    +0.000 A 
ATOM      7  C   UNL     1      45.810   3.731  13.374  0.00  0.00    +0.000 A 
BRANCH   5   8
ATOM      8  N   UNL     1      44.665   5.423  10.280  0.00  0.00    +0.000 N 
ATOM      9  H   UNL     1      45.032   6.220   9.767  0.00  0.00    +0.000 HD
BRANCH   8  10
ATOM     10  C   UNL     1      44.244   4.295   9.454  0.00  0.00    +0.000 C 
BRANCH  10  11
ATOM     11  C   UNL     1      45.426   3.476   8.892  0.00  0.00    +0.000 C 
ATOM     12  C   UNL     1      46.000   4.051   7.586  0.00  0.00    +0.000 C 
ATOM     13  C   UNL     1      47.174   3.219   7.065  0.00  0.00    +0.000 C 
ATOM     14  C   UNL     1      46.792   1.751   6.904  0.00  0.00    +0.000 C 
ATOM     15  C   UNL     1      46.263   1.174   8.212  0.00  0.00    +0.000 C 
ATOM     16  C   UNL     1      45.082   1.985   8.746  0.00  0.00    +0.000 C 
ENDBRANCH  10  11
ENDBRANCH   8  10
ENDBRANCH   5   8
ENDBRANCH   1   2
BRANCH   1  19
ATOM     17  C   UNL     1      48.630   5.712  16.698  0.00  0.00    +0.000 C 
ATOM     18  O   UNL     1      49.768   5.320  16.456  0.00  0.00    +0.000 OA
ATOM     19  N   UNL     1      47.548   5.199  16.037  0.00  0.00    +0.000 N 
ATOM     20  H   UNL     1      46.614   5.493  16.287  0.00  0.00    +0.000 HD
BRANCH  17  28
ATOM     21  C   UNL     1      48.691   9.154  16.609  0.00  0.00    +0.000 A 
ATOM     22  N   UNL     1      48.640  10.479  16.851  0.00  0.00    +0.000 NA
ATOM     23  C   UNL     1      48.333  10.879  18.085  0.00  0.00    +0.000 A 
ATOM     24  N   UNL     1      48.059  10.107  19.133  0.00  0.00    +0.000 NA
ATOM     25  C   UNL     1      48.113   8.796  18.848  0.00  0.00    +0.000 A 
ATOM     26  S   UNL     1      47.791   7.658  20.069  0.00  0.00    +0.000 S 
ATOM     27  C   UNL     1      48.044   6.364  18.998  0.00  0.00    +0.000 A 
ATOM     28  C   UNL     1      48.372   6.757  17.705  0.00  0.00    +0.000 A 
ATOM     29  C   UNL     1      48.412   8.217  17.619  0.00  0.00    +0.000 A 
BRANCH  21  31
ATOM     30  C   UNL     1      47.866   8.869  14.443  0.00  0.00    +0.000 C 
ATOM     31  O   UNL     1      48.979   8.746  15.323  0.00  0.00    +0.000 OA
ENDBRANCH  21  31
ENDBRANCH  17  28
ENDBRANCH   1  19
TORSDOF 7
ENDMDL
MODEL 7
REMARK VINA RESULT:    -6.519      2.494      3.769
REMARK INTER + INTRA:         -10.609
REMARK INTER:                  -9.647
REMARK INTRA:                  -0.962
REMARK UNBOUND:                -1.422
REMARK  Name = 
REMARK  8 active torsions:
REMARK  status: ('A' for Active; 'I' for Inactive)
REMARK    1  A    between atoms: C_1  and  O_2
REMARK    2  A    between atoms: O_2  and  C_3
REMARK    3  A    between atoms: C_10  and  C_11
REMARK    4  A    between atoms: N_13  and  C_14
REMARK    5  A    between atoms: C_14  and  C_15
REMARK    6  A    between atoms: C_18  and  N_19
REMARK    7  A    between atoms: N_19  and  C_20
REMARK    8  A    between atoms: C_20  and  C_21
REMARK                            x       y       z     vdW  Elec       q    Type
REMARK                         _______ _______ _______ _____ _____    ______ ____
ROOT
ATOM      1  C   UNL     1      47.138   4.894  14.681  0.00  0.00    +0.000 C 
ENDROOT
BRANCH   1   2
ATOM      2  C   UNL     1      46.489   4.993  13.323  0.00  0.00    +0.000 A 
ATOM      3  C   UNL     1      46.813   6.034  12.447  0.00  0.00    +0.000 A 
ATOM      4  C   UNL     1      46.225   6.113  11.175  0.00  0.00    +0.000 A 
ATOM      5  C   UNL     1      45.267   5.184  10.754  0.00  0.00    +0.000 A 
ATOM      6  C   UNL     1      44.935   4.156  11.649  0.00  0.00    +0.000 A 
ATOM      7  C   UNL     1      45.528   4.062  12.917  0.00  0.00    +0.000 A 
BRANCH   5   8
ATOM      8  N   UNL     1      44.714   5.154   9.469  0.00  0.00    +0.000 N 
ATOM      9  H   UNL     1      45.128   5.861   8.867  0.00  0.00    +0.000 HD
BRANCH   8  10
ATOM     10  C   UNL     1      44.417   3.881   8.816  0.00  0.00    +0.000 C 
BRANCH  10  11
ATOM     11  C   UNL     1      45.681   3.113   8.375  0.00  0.00    +0.000 C 
ATOM     12  C   UNL     1      46.285   3.637   7.060  0.00  0.00    +0.000 C 
ATOM     13  C   UNL     1      47.540   2.859   6.661  0.00  0.00    +0.000 C 
ATOM     14  C   UNL     1      47.269   1.359   6.587  0.00  0.00    +0.000 C 
ATOM     15  C   UNL     1      46.709   0.836   7.905  0.00  0.00    +0.000 C 
ATOM     16  C   UNL     1      45.448   1.594   8.319  0.00  0.00    +0.000 C 
ENDBRANCH  10  11
ENDBRANCH   8  10
ENDBRANCH   5   8
ENDBRANCH   1   2
BRANCH   1  19
ATOM     17  C   UNL     1      48.556   6.253  16.166  0.00  0.00    +0.000 C 
ATOM     18  O   UNL     1      48.554   5.378  17.026  0.00  0.00    +0.000 OA
ATOM     19  N   UNL     1      47.883   6.089  14.987  0.00  0.00    +0.000 N 
ATOM     20  H   UNL     1      47.850   6.842  14.312  0.00  0.00    +0.000 HD
BRANCH  17  28
ATOM     21  C   UNL     1      51.874   7.020  16.678  0.00  0.00    +0.000 A 
ATOM     22  N   UNL     1      53.077   7.591  16.884  0.00  0.00    +0.000 NA
ATOM     23  C   UNL     1      53.129   8.918  17.002  0.00  0.00    +0.000 A 
ATOM     24  N   UNL     1      52.109   9.769  16.935  0.00  0.00    +0.000 NA
ATOM     25  C   UNL     1      50.931   9.161  16.721  0.00  0.00    +0.000 A 
ATOM     26  S   UNL     1      49.514  10.093  16.608  0.00  0.00    +0.000 S 
ATOM     27  C   UNL     1      48.563   8.707  16.361  0.00  0.00    +0.000 A 
ATOM     28  C   UNL     1      49.286   7.520  16.356  0.00  0.00    +0.000 A 
ATOM     29  C   UNL     1      50.707   7.796  16.572  0.00  0.00    +0.000 A 
BRANCH  21  31
ATOM     30  C   UNL     1      52.131   4.950  17.730  0.00  0.00    +0.000 C 
ATOM     31  O   UNL     1      51.830   5.649  16.526  0.00  0.00    +0.000 OA
ENDBRANCH  21  31
ENDBRANCH  17  28
ENDBRANCH   1  19
TORSDOF 7
ENDMDL
MODEL 8
REMARK VINA RESULT:    -6.466      2.036      3.358
REMARK INTER + INTRA:         -10.533
REMARK INTER:                  -9.511
REMARK INTRA:                  -1.023
REMARK UNBOUND:                -1.422
REMARK  Name = 
REMARK  8 active torsions:
REMARK  status: ('A' for Active; 'I' for Inactive)
REMARK    1  A    between atoms: C_1  and  O_2
REMARK    2  A    between atoms: O_2  and  C_3
REMARK    3  A    between atoms: C_10  and  C_11
REMARK    4  A    between atoms: N_13  and  C_14
REMARK    5  A    between atoms: C_14  and  C_15
REMARK    6  A    between atoms: C_18  and  N_19
REMARK    7  A    between atoms: N_19  and  C_20
REMARK    8  A    between atoms: C_20  and  C_21
REMARK                            x       y       z     vdW  Elec       q    Type
REMARK                         _______ _______ _______ _____ _____    ______ ____
ROOT
ATOM      1  C   UNL     1      48.114   8.397  14.480  0.00  0.00    +0.000 C 
ENDROOT
BRANCH   1   2
ATOM      2  C   UNL     1      47.152   7.836  13.463  0.00  0.00    +0.000 A 
ATOM      3  C   UNL     1      46.084   8.602  12.988  0.00  0.00    +0.000 A 
ATOM      4  C   UNL     1      45.202   8.086  12.025  0.00  0.00    +0.000 A 
ATOM      5  C   UNL     1      45.332   6.780  11.539  0.00  0.00    +0.000 A 
ATOM      6  C   UNL     1      46.395   6.014  12.039  0.00  0.00    +0.000 A 
ATOM      7  C   UNL     1      47.289   6.527  12.991  0.00  0.00    +0.000 A 
BRANCH   5   8
ATOM      8  N   UNL     1      44.545   6.241  10.515  0.00  0.00    +0.000 N 
ATOM      9  H   UNL     1      44.914   6.477   9.597  0.00  0.00    +0.000 HD
BRANCH   8  10
ATOM     10  C   UNL     1      43.990   4.896  10.633  0.00  0.00    +0.000 C 
BRANCH  10  11
ATOM     11  C   UNL     1      44.400   3.963   9.473  0.00  0.00    +0.000 C 
ATOM     12  C   UNL     1      44.671   2.516   9.922  0.00  0.00    +0.000 C 
ATOM     13  C   UNL     1      45.064   1.620   8.746  0.00  0.00    +0.000 C 
ATOM     14  C   UNL     1      46.251   2.194   7.978  0.00  0.00    +0.000 C 
ATOM     15  C   UNL     1      45.963   3.612   7.500  0.00  0.00    +0.000 C 
ATOM     16  C   UNL     1      45.576   4.528   8.661  0.00  0.00    +0.000 C 
ENDBRANCH  10  11
ENDBRANCH   8  10
ENDBRANCH   5   8
ENDBRANCH   1   2
BRANCH   1  19
ATOM     17  C   UNL     1      49.366   6.803  15.878  0.00  0.00    +0.000 C 
ATOM     18  O   UNL     1      50.345   6.873  15.142  0.00  0.00    +0.000 OA
ATOM     19  N   UNL     1      48.232   7.522  15.619  0.00  0.00    +0.000 N 
ATOM     20  H   UNL     1      47.415   7.412  16.205  0.00  0.00    +0.000 HD
BRANCH  17  28
ATOM     21  C   UNL     1      50.930   7.016  18.939  0.00  0.00    +0.000 A 
ATOM     22  N   UNL     1      51.405   6.853  20.190  0.00  0.00    +0.000 NA
ATOM     23  C   UNL     1      51.028   5.767  20.866  0.00  0.00    +0.000 A 
ATOM     24  N   UNL     1      50.215   4.802  20.444  0.00  0.00    +0.000 NA
ATOM     25  C   UNL     1      49.759   5.007  19.198  0.00  0.00    +0.000 A 
ATOM     26  S   UNL     1      48.708   3.873  18.493  0.00  0.00    +0.000 S 
ATOM     27  C   UNL     1      48.612   4.779  17.060  0.00  0.00    +0.000 A 
ATOM     28  C   UNL     1      49.364   5.949  17.080  0.00  0.00    +0.000 A 
ATOM     29  C   UNL     1      50.050   6.082  18.365  0.00  0.00    +0.000 A 
BRANCH  21  31
ATOM     30  C   UNL     1      52.596   8.059  17.676  0.00  0.00    +0.000 C 
ATOM     31  O   UNL     1      51.298   8.157  18.255  0.00  0.00    +0.000 OA
ENDBRANCH  21  31
ENDBRANCH  17  28
ENDBRANCH   1  19
TORSDOF 7
ENDMDL
MODEL 9
REMARK VINA RESULT:    -6.382      4.236      9.113
REMARK INTER + INTRA:         -10.415
REMARK INTER:                  -9.352
REMARK INTRA:                  -1.064
REMARK UNBOUND:                -1.422
REMARK  Name = 
REMARK  8 active torsions:
REMARK  status: ('A' for Active; 'I' for Inactive)
REMARK    1  A    between atoms: C_1  and  O_2
REMARK    2  A    between atoms: O_2  and  C_3
REMARK    3  A    between atoms: C_10  and  C_11
REMARK    4  A    between atoms: N_13  and  C_14
REMARK    5  A    between atoms: C_14  and  C_15
REMARK    6  A    between atoms: C_18  and  N_19
REMARK    7  A    between atoms: N_19  and  C_20
REMARK    8  A    between atoms: C_20  and  C_21
REMARK                            x       y       z     vdW  Elec       q    Type
REMARK                         _______ _______ _______ _____ _____    ______ ____
ROOT
ATOM      1  C   UNL     1      47.427   3.225  17.043  0.00  0.00    +0.000 C 
ENDROOT
BRANCH   1   2
ATOM      2  C   UNL     1      48.895   3.203  17.387  0.00  0.00    +0.000 A 
ATOM      3  C   UNL     1      49.704   2.127  17.010  0.00  0.00    +0.000 A 
ATOM      4  C   UNL     1      51.075   2.118  17.312  0.00  0.00    +0.000 A 
ATOM      5  C   UNL     1      51.671   3.158  18.034  0.00  0.00    +0.000 A 
ATOM      6  C   UNL     1      50.846   4.222  18.425  0.00  0.00    +0.000 A 
ATOM      7  C   UNL     1      49.478   4.245  18.116  0.00  0.00    +0.000 A 
BRANCH   5   8
ATOM      8  N   UNL     1      53.045   3.252  18.286  0.00  0.00    +0.000 N 
ATOM      9  H   UNL     1      53.266   3.014  19.249  0.00  0.00    +0.000 HD
BRANCH   8  10
ATOM     10  C   UNL     1      54.016   2.794  17.296  0.00  0.00    +0.000 C 
BRANCH  10  11
ATOM     11  C   UNL     1      54.738   1.492  17.708  0.00  0.00    +0.000 C 
ATOM     12  C   UNL     1      54.183   0.239  17.008  0.00  0.00    +0.000 C 
ATOM     13  C   UNL     1      54.928  -1.027  17.434  0.00  0.00    +0.000 C 
ATOM     14  C   UNL     1      54.930  -1.193  18.950  0.00  0.00    +0.000 C 
ATOM     15  C   UNL     1      55.520   0.033  19.637  0.00  0.00    +0.000 C 
ATOM     16  C   UNL     1      54.783   1.311  19.234  0.00  0.00    +0.000 C 
ENDBRANCH  10  11
ENDBRANCH   8  10
ENDBRANCH   5   8
ENDBRANCH   1   2
BRANCH   1  19
ATOM     17  C   UNL     1      47.150   4.142  14.774  0.00  0.00    +0.000 C 
ATOM     18  O   UNL     1      47.435   3.062  14.266  0.00  0.00    +0.000 OA
ATOM     19  N   UNL     1      47.125   4.301  16.133  0.00  0.00    +0.000 N 
ATOM     20  H   UNL     1      46.942   5.210  16.534  0.00  0.00    +0.000 HD
BRANCH  17  28
ATOM     21  C   UNL     1      44.511   4.905  12.698  0.00  0.00    +0.000 A 
ATOM     22  N   UNL     1      43.619   5.452  11.848  0.00  0.00    +0.000 NA
ATOM     23  C   UNL     1      43.879   6.666  11.362  0.00  0.00    +0.000 A 
ATOM     24  N   UNL     1      44.940   7.424  11.626  0.00  0.00    +0.000 NA
ATOM     25  C   UNL     1      45.798   6.847  12.482  0.00  0.00    +0.000 A 
ATOM     26  S   UNL     1      47.213   7.672  12.934  0.00  0.00    +0.000 S 
ATOM     27  C   UNL     1      47.702   6.389  13.934  0.00  0.00    +0.000 A 
ATOM     28  C   UNL     1      46.815   5.318  13.952  0.00  0.00    +0.000 A 
ATOM     29  C   UNL     1      45.673   5.597  13.079  0.00  0.00    +0.000 A 
BRANCH  21  31
ATOM     30  C   UNL     1      43.528   2.823  12.303  0.00  0.00    +0.000 C 
ATOM     31  O   UNL     1      44.221   3.662  13.222  0.00  0.00    +0.000 OA
ENDBRANCH  21  31
ENDBRANCH  17  28
ENDBRANCH   1  19
TORSDOF 7
ENDMDL
