MODEL 1
REMARK VINA RESULT:    -9.284      0.000      0.000
REMARK INTER + INTRA:         -13.894
REMARK INTER:                 -12.812
REMARK INTRA:                  -1.082
REMARK UNBOUND:                -1.082
REMARK  Name = 
REMARK  9 active torsions:
REMARK  status: ('A' for Active; 'I' for Inactive)
REMARK    1  A    between atoms: C_1  and  C_2
REMARK    2  A    between atoms: C_2  and  C_3
REMARK    3  A    between atoms: C_2  and  C_4
REMARK    4  A    between atoms: C_2  and  C_19
REMARK    5  A    between atoms: C_4  and  C_5
REMARK    6  A    between atoms: C_5  and  C_6
REMARK    7  A    between atoms: C_10  and  C_11
REMARK    8  A    between atoms: C_11  and  O_12
REMARK    9  A    between atoms: C_22  and  C_23
REMARK                            x       y       z     vdW  Elec       q    Type
REMARK                         _______ _______ _______ _____ _____    ______ ____
ROOT
ATOM      1  C   UNL     1      45.363   4.924  11.943  0.00  0.00    +0.000 C 
ENDROOT
BRANCH   1   3
ATOM      2  C   UNL     1      43.631   3.062  11.717  0.00  0.00    +0.000 C 
ATOM      3  C   UNL     1      44.344   4.229  10.990  0.00  0.00    +0.000 C 
ATOM      4  C   UNL     1      43.228   5.262  10.673  0.00  0.00    +0.000 C 
BRANCH   3   5
ATOM      5  C   UNL     1      45.068   3.747   9.718  0.00  0.00    +0.000 A 
ATOM      6  C   UNL     1      45.687   4.635   8.819  0.00  0.00    +0.000 A 
ATOM      7  C   UNL     1      46.408   4.163   7.709  0.00  0.00    +0.000 A 
ATOM      8  C   UNL     1      46.545   2.793   7.477  0.00  0.00    +0.000 A 
ATOM      9  C   UNL     1      45.937   1.907   8.356  0.00  0.00    +0.000 A 
ATOM     10  F   UNL     1      46.049   0.578   8.204  0.00  0.00    +0.000 F 
ATOM     11  C   UNL     1      45.207   2.372   9.449  0.00  0.00    +0.000 A 
BRANCH   8  12
ATOM     12  C   UNL     1      47.351   2.337   6.313  0.00  0.00    +0.000 C 
ATOM     13  N   UNL     1      47.191   2.984   5.124  0.00  0.00    +0.000 N 
ATOM     14  O   UNL     1      48.131   1.398   6.411  0.00  0.00    +0.000 OA
ATOM     15  H   UNL     1      46.547   3.760   4.996  0.00  0.00    +0.000 HD
ATOM     16  H   UNL     1      47.730   2.664   4.332  0.00  0.00    +0.000 HD
ENDBRANCH   8  12
ENDBRANCH   3   5
ENDBRANCH   1   3
BRANCH   1  17
ATOM     17  C   UNL     1      46.015   4.016  13.000  0.00  0.00    +0.000 C 
BRANCH  17  18
ATOM     18  C   UNL     1      46.848   4.806  13.974  0.00  0.00    +0.000 A 
ATOM     19  C   UNL     1      47.495   5.978  13.586  0.00  0.00    +0.000 A 
ATOM     20  C   UNL     1      48.304   6.653  14.494  0.00  0.00    +0.000 A 
ATOM     21  C   UNL     1      48.504   6.135  15.778  0.00  0.00    +0.000 A 
ATOM     22  C   UNL     1      47.881   4.941  16.195  0.00  0.00    +0.000 A 
ATOM     23  C   UNL     1      47.016   4.324  15.280  0.00  0.00    +0.000 A 
BRANCH  22  24
ATOM     24  C   UNL     1      48.187   4.332  17.571  0.00  0.00    +0.000 C 
ATOM     25  C   UNL     1      49.508   4.894  18.143  0.00  0.00    +0.000 C 
ATOM     26  C   UNL     1      50.731   4.364  17.397  0.00  0.00    +0.000 C 
ATOM     27  C   UNL     1      50.805   2.843  17.476  0.00  0.00    +0.000 C 
ATOM     28  C   UNL     1      49.519   2.172  17.009  0.00  0.00    +0.000 C 
ATOM     29  C   UNL     1      48.263   2.785  17.642  0.00  0.00    +0.000 C 
BRANCH  24  30
ATOM     30  O   UNL     1      47.143   4.712  18.484  0.00  0.00    +0.000 OA
ATOM     31  H   UNL     1      47.386   5.554  18.902  0.00  0.00    +0.000 HD
ENDBRANCH  24  30
ENDBRANCH  22  24
ENDBRANCH  17  18
ENDBRANCH   1  17
TORSDOF 7
ENDMDL
MODEL 2
REMARK VINA RESULT:    -8.633      2.866      3.782
REMARK INTER + INTRA:         -12.996
REMARK INTER:                 -11.463
REMARK INTRA:                  -1.533
REMARK UNBOUND:                -1.082
REMARK  Name = 
REMARK  9 active torsions:
REMARK  status: ('A' for Active; 'I' for Inactive)
REMARK    1  A    between atoms: C_1  and  C_2
REMARK    2  A    between atoms: C_2  and  C_3
REMARK    3  A    between atoms: C_2  and  C_4
REMARK    4  A    between atoms: C_2  and  C_19
REMARK    5  A    between atoms: C_4  and  C_5
REMARK    6  A    between atoms: C_5  and  C_6
REMARK    7  A    between atoms: C_10  and  C_11
REMARK    8  A    between atoms: C_11  and  O_12
REMARK    9  A    between atoms: C_22  and  C_23
REMARK                            x       y       z     vdW  Elec       q    Type
REMARK                         _______ _______ _______ _____ _____    ______ ____
ROOT
ATOM      1  C   UNL     1      45.094   4.348  12.242  0.00  0.00    +0.000 C 
ENDROOT
BRANCH   1   3
ATOM      2  C   UNL     1      43.360   2.559  11.686  0.00  0.00    +0.000 C 
ATOM      3  C   UNL     1      44.093   3.822  11.170  0.00  0.00    +0.000 C 
ATOM      4  C   UNL     1      42.989   4.900  10.998  0.00  0.00    +0.000 C 
BRANCH   3   5
ATOM      5  C   UNL     1      44.843   3.543   9.852  0.00  0.00    +0.000 A 
ATOM      6  C   UNL     1      45.346   4.574   9.037  0.00  0.00    +0.000 A 
ATOM      7  C   UNL     1      46.093   4.290   7.882  0.00  0.00    +0.000 A 
ATOM      8  C   UNL     1      46.375   2.971   7.520  0.00  0.00    +0.000 A 
ATOM      9  C   UNL     1      45.882   1.946   8.314  0.00  0.00    +0.000 A 
ATOM     10  F   UNL     1      46.135   0.657   8.036  0.00  0.00    +0.000 F 
ATOM     11  C   UNL     1      45.125   2.223   9.453  0.00  0.00    +0.000 A 
BRANCH   8  12
ATOM     12  C   UNL     1      47.205   2.718   6.311  0.00  0.00    +0.000 C 
ATOM     13  N   UNL     1      48.536   2.480   6.481  0.00  0.00    +0.000 N 
ATOM     14  O   UNL     1      46.712   2.733   5.191  0.00  0.00    +0.000 OA
ATOM     15  H   UNL     1      48.987   2.470   7.391  0.00  0.00    +0.000 HD
ATOM     16  H   UNL     1      49.100   2.322   5.658  0.00  0.00    +0.000 HD
ENDBRANCH   8  12
ENDBRANCH   3   5
ENDBRANCH   1   3
BRANCH   1  17
ATOM     17  C   UNL     1      44.614   5.553  13.069  0.00  0.00    +0.000 C 
BRANCH  17  18
ATOM     18  C   UNL     1      45.488   6.760  12.852  0.00  0.00    +0.000 A 
ATOM     19  C   UNL     1      45.003   7.898  12.211  0.00  0.00    +0.000 A 
ATOM     20  C   UNL     1      45.852   8.973  11.975  0.00  0.00    +0.000 A 
ATOM     21  C   UNL     1      47.201   8.895  12.338  0.00  0.00    +0.000 A 
ATOM     22  C   UNL     1      47.729   7.751  12.968  0.00  0.00    +0.000 A 
ATOM     23  C   UNL     1      46.830   6.715  13.257  0.00  0.00    +0.000 A 
BRANCH  22  24
ATOM     24  C   UNL     1      49.231   7.640  13.272  0.00  0.00    +0.000 C 
ATOM     25  C   UNL     1      49.467   7.218  14.740  0.00  0.00    +0.000 C 
ATOM     26  C   UNL     1      49.131   8.337  15.724  0.00  0.00    +0.000 C 
ATOM     27  C   UNL     1      49.980   9.575  15.458  0.00  0.00    +0.000 C 
ATOM     28  C   UNL     1      49.891  10.044  14.010  0.00  0.00    +0.000 C 
ATOM     29  C   UNL     1      50.087   8.904  13.001  0.00  0.00    +0.000 C 
BRANCH  24  30
ATOM     30  O   UNL     1      49.792   6.606  12.446  0.00  0.00    +0.000 OA
ATOM     31  H   UNL     1      50.350   7.019  11.768  0.00  0.00    +0.000 HD
ENDBRANCH  24  30
ENDBRANCH  22  24
ENDBRANCH  17  18
ENDBRANCH   1  17
TORSDOF 7
ENDMDL
MODEL 3
REMARK VINA RESULT:    -8.256      2.448      4.264
REMARK INTER + INTRA:         -12.476
REMARK INTER:                 -11.172
REMARK INTRA:                  -1.304
REMARK UNBOUND:                -1.082
REMARK  Name = 
REMARK  9 active torsions:
REMARK  status: ('A' for Active; 'I' for Inactive)
REMARK    1  A    between atoms: C_1  and  C_2
REMARK    2  A    between atoms: C_2  and  C_3
REMARK    3  A    between atoms: C_2  and  C_4
REMARK    4  A    between atoms: C_2  and  C_19
REMARK    5  A    between atoms: C_4  and  C_5
REMARK    6  A    between atoms: C_5  and  C_6
REMARK    7  A    between atoms: C_10  and  C_11
REMARK    8  A    between atoms: C_11  and  O_12
REMARK    9  A    between atoms: C_22  and  C_23
REMARK                            x       y       z     vdW  Elec       q    Type
REMARK                         _______ _______ _______ _____ _____    ______ ____
ROOT
ATOM      1  C   UNL     1      45.290   4.275  12.069  0.00  0.00    +0.000 C 
ENDROOT
BRANCH   1   3
ATOM      2  C   UNL     1      43.376   2.706  11.441  0.00  0.00    +0.000 C 
ATOM      3  C   UNL     1      44.283   3.863  10.953  0.00  0.00    +0.000 C 
ATOM      4  C   UNL     1      43.329   5.067  10.722  0.00  0.00    +0.000 C 
BRANCH   3   5
ATOM      5  C   UNL     1      45.054   3.480   9.674  0.00  0.00    +0.000 A 
ATOM      6  C   UNL     1      45.622   4.441   8.818  0.00  0.00    +0.000 A 
ATOM      7  C   UNL     1      46.386   4.062   7.702  0.00  0.00    +0.000 A 
ATOM      8  C   UNL     1      46.619   2.714   7.421  0.00  0.00    +0.000 A 
ATOM      9  C   UNL     1      46.061   1.756   8.256  0.00  0.00    +0.000 A 
ATOM     10  F   UNL     1      46.264   0.445   8.057  0.00  0.00    +0.000 F 
ATOM     11  C   UNL     1      45.288   2.129   9.356  0.00  0.00    +0.000 A 
BRANCH   8  12
ATOM     12  C   UNL     1      47.468   2.358   6.252  0.00  0.00    +0.000 C 
ATOM     13  N   UNL     1      47.241   2.999   5.071  0.00  0.00    +0.000 N 
ATOM     14  O   UNL     1      48.341   1.505   6.340  0.00  0.00    +0.000 OA
ATOM     15  H   UNL     1      46.519   3.705   4.951  0.00  0.00    +0.000 HD
ATOM     16  H   UNL     1      47.809   2.746   4.275  0.00  0.00    +0.000 HD
ENDBRANCH   8  12
ENDBRANCH   3   5
ENDBRANCH   1   3
BRANCH   1  17
ATOM     17  C   UNL     1      45.524   5.788  12.231  0.00  0.00    +0.000 C 
BRANCH  17  18
ATOM     18  C   UNL     1      46.773   6.075  13.021  0.00  0.00    +0.000 A 
ATOM     19  C   UNL     1      46.964   5.536  14.292  0.00  0.00    +0.000 A 
ATOM     20  C   UNL     1      48.102   5.867  15.019  0.00  0.00    +0.000 A 
ATOM     21  C   UNL     1      49.031   6.773  14.496  0.00  0.00    +0.000 A 
ATOM     22  C   UNL     1      48.858   7.351  13.223  0.00  0.00    +0.000 A 
ATOM     23  C   UNL     1      47.738   6.941  12.486  0.00  0.00    +0.000 A 
BRANCH  22  24
ATOM     24  C   UNL     1      49.834   8.417  12.702  0.00  0.00    +0.000 C 
ATOM     25  C   UNL     1      50.173   9.443  13.807  0.00  0.00    +0.000 C 
ATOM     26  C   UNL     1      48.996  10.364  14.120  0.00  0.00    +0.000 C 
ATOM     27  C   UNL     1      48.566  11.145  12.883  0.00  0.00    +0.000 C 
ATOM     28  C   UNL     1      48.279  10.238  11.692  0.00  0.00    +0.000 C 
ATOM     29  C   UNL     1      49.389   9.208  11.445  0.00  0.00    +0.000 C 
BRANCH  24  30
ATOM     30  O   UNL     1      51.068   7.774  12.339  0.00  0.00    +0.000 OA
ATOM     31  H   UNL     1      51.208   7.886  11.385  0.00  0.00    +0.000 HD
ENDBRANCH  24  30
ENDBRANCH  22  24
ENDBRANCH  17  18
ENDBRANCH   1  17
TORSDOF 7
ENDMDL
MODEL 4
REMARK VINA RESULT:    -7.901      2.801      4.173
REMARK INTER + INTRA:         -11.985
REMARK INTER:                  -9.837
REMARK INTRA:                  -2.148
REMARK UNBOUND:                -1.082
REMARK  Name = 
REMARK  9 active torsions:
REMARK  status: ('A' for Active; 'I' for Inactive)
REMARK    1  A    between atoms: C_1  and  C_2
REMARK    2  A    between atoms: C_2  and  C_3
REMARK    3  A    between atoms: C_2  and  C_4
REMARK    4  A    between atoms: C_2  and  C_19
REMARK    5  A    between atoms: C_4  and  C_5
REMARK    6  A    between atoms: C_5  and  C_6
REMARK    7  A    between atoms: C_10  and  C_11
REMARK    8  A    between atoms: C_11  and  O_12
REMARK    9  A    between atoms: C_22  and  C_23
REMARK                            x       y       z     vdW  Elec       q    Type
REMARK                         _______ _______ _______ _____ _____    ______ ____
ROOT
ATOM      1  C   UNL     1      48.875   6.786  13.454  0.00  0.00    +0.000 C 
ENDROOT
BRANCH   1   3
ATOM      2  C   UNL     1      46.989   8.506  13.522  0.00  0.00    +0.000 C 
ATOM      3  C   UNL     1      47.690   7.422  12.666  0.00  0.00    +0.000 C 
ATOM      4  C   UNL     1      48.294   8.180  11.453  0.00  0.00    +0.000 C 
BRANCH   3   5
ATOM      5  C   UNL     1      46.705   6.319  12.230  0.00  0.00    +0.000 A 
ATOM      6  C   UNL     1      45.896   6.438  11.085  0.00  0.00    +0.000 A 
ATOM      7  C   UNL     1      45.066   5.386  10.667  0.00  0.00    +0.000 A 
ATOM      8  C   UNL     1      45.034   4.179  11.369  0.00  0.00    +0.000 A 
ATOM      9  C   UNL     1      45.826   4.050  12.501  0.00  0.00    +0.000 A 
ATOM     10  F   UNL     1      45.861   2.910  13.208  0.00  0.00    +0.000 F 
ATOM     11  C   UNL     1      46.639   5.099  12.929  0.00  0.00    +0.000 A 
BRANCH   8  12
ATOM     12  C   UNL     1      44.171   3.076  10.867  0.00  0.00    +0.000 C 
ATOM     13  N   UNL     1      44.652   2.283   9.869  0.00  0.00    +0.000 N 
ATOM     14  O   UNL     1      43.051   2.890  11.326  0.00  0.00    +0.000 OA
ATOM     15  H   UNL     1      45.570   2.410   9.452  0.00  0.00    +0.000 HD
ATOM     16  H   UNL     1      44.059   1.543   9.521  0.00  0.00    +0.000 HD
ENDBRANCH   8  12
ENDBRANCH   3   5
ENDBRANCH   1   3
BRANCH   1  17
ATOM     17  C   UNL     1      49.654   7.743  14.374  0.00  0.00    +0.000 C 
BRANCH  17  18
ATOM     18  C   UNL     1      49.506   7.362  15.824  0.00  0.00    +0.000 A 
ATOM     19  C   UNL     1      50.254   7.993  16.816  0.00  0.00    +0.000 A 
ATOM     20  C   UNL     1      50.137   7.579  18.138  0.00  0.00    +0.000 A 
ATOM     21  C   UNL     1      49.305   6.502  18.466  0.00  0.00    +0.000 A 
ATOM     22  C   UNL     1      48.551   5.829  17.483  0.00  0.00    +0.000 A 
ATOM     23  C   UNL     1      48.637   6.318  16.173  0.00  0.00    +0.000 A 
BRANCH  22  24
ATOM     24  C   UNL     1      47.718   4.589  17.841  0.00  0.00    +0.000 C 
ATOM     25  C   UNL     1      48.565   3.565  18.630  0.00  0.00    +0.000 C 
ATOM     26  C   UNL     1      49.607   2.878  17.750  0.00  0.00    +0.000 C 
ATOM     27  C   UNL     1      48.946   2.136  16.594  0.00  0.00    +0.000 C 
ATOM     28  C   UNL     1      48.016   3.030  15.783  0.00  0.00    +0.000 C 
ATOM     29  C   UNL     1      47.051   3.839  16.660  0.00  0.00    +0.000 C 
BRANCH  24  30
ATOM     30  O   UNL     1      46.641   4.991  18.704  0.00  0.00    +0.000 OA
ATOM     31  H   UNL     1      46.820   5.889  19.028  0.00  0.00    +0.000 HD
ENDBRANCH  24  30
ENDBRANCH  22  24
ENDBRANCH  17  18
ENDBRANCH   1  17
TORSDOF 7
ENDMDL
MODEL 5
REMARK VINA RESULT:    -7.535      1.836      2.634
REMARK INTER + INTRA:         -11.480
REMARK INTER:                 -10.759
REMARK INTRA:                  -0.721
REMARK UNBOUND:                -1.082
REMARK  Name = 
REMARK  9 active torsions:
REMARK  status: ('A' for Active; 'I' for Inactive)
REMARK    1  A    between atoms: C_1  and  C_2
REMARK    2  A    between atoms: C_2  and  C_3
REMARK    3  A    between atoms: C_2  and  C_4
REMARK    4  A    between atoms: C_2  and  C_19
REMARK    5  A    between atoms: C_4  and  C_5
REMARK    6  A    between atoms: C_5  and  C_6
REMARK    7  A    between atoms: C_10  and  C_11
REMARK    8  A    between atoms: C_11  and  O_12
REMARK    9  A    between atoms: C_22  and  C_23
REMARK                            x       y       z     vdW  Elec       q    Type
REMARK                         _______ _______ _______ _____ _____    ______ ____
ROOT
ATOM      1  C   UNL     1      45.534   3.961  12.200  0.00  0.00    +0.000 C 
ENDROOT
BRANCH   1   3
ATOM      2  C   UNL     1      43.386   2.807  11.443  0.00  0.00    +0.000 C 
ATOM      3  C   UNL     1      44.453   3.870  11.081  0.00  0.00    +0.000 C 
ATOM      4  C   UNL     1      43.695   5.225  11.057  0.00  0.00    +0.000 C 
BRANCH   3   5
ATOM      5  C   UNL     1      45.129   3.558   9.730  0.00  0.00    +0.000 A 
ATOM      6  C   UNL     1      45.609   4.567   8.876  0.00  0.00    +0.000 A 
ATOM      7  C   UNL     1      46.290   4.253   7.689  0.00  0.00    +0.000 A 
ATOM      8  C   UNL     1      46.527   2.923   7.332  0.00  0.00    +0.000 A 
ATOM      9  C   UNL     1      46.057   1.919   8.166  0.00  0.00    +0.000 A 
ATOM     10  F   UNL     1      46.270   0.622   7.895  0.00  0.00    +0.000 F 
ATOM     11  C   UNL     1      45.364   2.227   9.337  0.00  0.00    +0.000 A 
BRANCH   8  12
ATOM     12  C   UNL     1      47.289   2.636   6.087  0.00  0.00    +0.000 C 
ATOM     13  N   UNL     1      48.634   2.439   6.184  0.00  0.00    +0.000 N 
ATOM     14  O   UNL     1      46.729   2.590   4.999  0.00  0.00    +0.000 OA
ATOM     15  H   UNL     1      49.139   2.480   7.065  0.00  0.00    +0.000 HD
ATOM     16  H   UNL     1      49.151   2.258   5.335  0.00  0.00    +0.000 HD
ENDBRANCH   8  12
ENDBRANCH   3   5
ENDBRANCH   1   3
BRANCH   1  17
ATOM     17  C   UNL     1      45.849   5.379  12.709  0.00  0.00    +0.000 C 
BRANCH  17  18
ATOM     18  C   UNL     1      46.772   5.350  13.898  0.00  0.00    +0.000 A 
ATOM     19  C   UNL     1      46.696   4.332  14.847  0.00  0.00    +0.000 A 
ATOM     20  C   UNL     1      47.523   4.365  15.964  0.00  0.00    +0.000 A 
ATOM     21  C   UNL     1      48.397   5.440  16.159  0.00  0.00    +0.000 A 
ATOM     22  C   UNL     1      48.484   6.496  15.230  0.00  0.00    +0.000 A 
ATOM     23  C   UNL     1      47.689   6.396  14.079  0.00  0.00    +0.000 A 
BRANCH  22  24
ATOM     24  C   UNL     1      49.375   7.717  15.504  0.00  0.00    +0.000 C 
ATOM     25  C   UNL     1      50.870   7.349  15.373  0.00  0.00    +0.000 C 
ATOM     26  C   UNL     1      51.351   6.468  16.524  0.00  0.00    +0.000 C 
ATOM     27  C   UNL     1      51.165   7.168  17.866  0.00  0.00    +0.000 C 
ATOM     28  C   UNL     1      49.735   7.652  18.078  0.00  0.00    +0.000 C 
ATOM     29  C   UNL     1      49.181   8.421  16.871  0.00  0.00    +0.000 C 
BRANCH  24  30
ATOM     30  O   UNL     1      49.104   8.718  14.509  0.00  0.00    +0.000 OA
ATOM     31  H   UNL     1      49.947   9.027  14.141  0.00  0.00    +0.000 HD
ENDBRANCH  24  30
ENDBRANCH  22  24
ENDBRANCH  17  18
ENDBRANCH   1  17
TORSDOF 7
ENDMDL
MODEL 6
REMARK VINA RESULT:    -7.093      4.512      8.855
REMARK INTER + INTRA:         -10.870
REMARK INTER:                 -10.095
REMARK INTRA:                  -0.775
REMARK UNBOUND:                -1.082
REMARK  Name = 
REMARK  9 active torsions:
REMARK  status: ('A' for Active; 'I' for Inactive)
REMARK    1  A    between atoms: C_1  and  C_2
REMARK    2  A    between atoms: C_2  and  C_3
REMARK    3  A    between atoms: C_2  and  C_4
REMARK    4  A    between atoms: C_2  and  C_19
REMARK    5  A    between atoms: C_4  and  C_5
REMARK    6  A    between atoms: C_5  and  C_6
REMARK    7  A    between atoms: C_10  and  C_11
REMARK    8  A    between atoms: C_11  and  O_12
REMARK    9  A    between atoms: C_22  and  C_23
REMARK                            x       y       z     vdW  Elec       q    Type
REMARK                         _______ _______ _______ _____ _____    ______ ____
ROOT
ATOM      1  C   UNL     1      48.471   5.464  15.877  0.00  0.00    +0.000 C 
ENDROOT
BRANCH   1   3
ATOM      2  C   UNL     1      48.954   6.410  18.198  0.00  0.00    +0.000 C 
ATOM      3  C   UNL     1      48.649   5.126  17.387  0.00  0.00    +0.000 C 
ATOM      4  C   UNL     1      47.279   4.620  17.913  0.00  0.00    +0.000 C 
BRANCH   3   5
ATOM      5  C   UNL     1      49.762   4.071  17.556  0.00  0.00    +0.000 A 
ATOM      6  C   UNL     1      49.575   2.717  17.222  0.00  0.00    +0.000 A 
ATOM      7  C   UNL     1      50.629   1.793  17.311  0.00  0.00    +0.000 A 
ATOM      8  C   UNL     1      51.902   2.199  17.718  0.00  0.00    +0.000 A 
ATOM      9  C   UNL     1      52.098   3.532  18.052  0.00  0.00    +0.000 A 
ATOM     10  F   UNL     1      53.300   3.993  18.430  0.00  0.00    +0.000 F 
ATOM     11  C   UNL     1      51.049   4.449  17.981  0.00  0.00    +0.000 A 
BRANCH   8  12
ATOM     12  C   UNL     1      52.999   1.195  17.759  0.00  0.00    +0.000 C 
ATOM     13  N   UNL     1      54.141   1.458  17.063  0.00  0.00    +0.000 N 
ATOM     14  O   UNL     1      52.880   0.153  18.389  0.00  0.00    +0.000 OA
ATOM     15  H   UNL     1      54.276   2.305  16.517  0.00  0.00    +0.000 HD
ATOM     16  H   UNL     1      54.879   0.769  17.081  0.00  0.00    +0.000 HD
ENDBRANCH   8  12
ENDBRANCH   3   5
ENDBRANCH   1   3
BRANCH   1  17
ATOM     17  C   UNL     1      47.294   4.767  15.171  0.00  0.00    +0.000 C 
BRANCH  17  18
ATOM     18  C   UNL     1      47.012   5.381  13.825  0.00  0.00    +0.000 A 
ATOM     19  C   UNL     1      47.898   6.287  13.243  0.00  0.00    +0.000 A 
ATOM     20  C   UNL     1      47.580   6.880  12.026  0.00  0.00    +0.000 A 
ATOM     21  C   UNL     1      46.355   6.604  11.410  0.00  0.00    +0.000 A 
ATOM     22  C   UNL     1      45.427   5.709  11.981  0.00  0.00    +0.000 A 
ATOM     23  C   UNL     1      45.810   5.074  13.171  0.00  0.00    +0.000 A 
BRANCH  22  24
ATOM     24  C   UNL     1      44.047   5.491  11.344  0.00  0.00    +0.000 C 
ATOM     25  C   UNL     1      43.047   4.921  12.375  0.00  0.00    +0.000 C 
ATOM     26  C   UNL     1      43.352   3.467  12.731  0.00  0.00    +0.000 C 
ATOM     27  C   UNL     1      43.298   2.576  11.496  0.00  0.00    +0.000 C 
ATOM     28  C   UNL     1      44.190   3.085  10.370  0.00  0.00    +0.000 C 
ATOM     29  C   UNL     1      44.000   4.582  10.089  0.00  0.00    +0.000 C 
BRANCH  24  30
ATOM     30  O   UNL     1      43.529   6.764  10.921  0.00  0.00    +0.000 OA
ATOM     31  H   UNL     1      43.675   7.410  11.630  0.00  0.00    +0.000 HD
ENDBRANCH  24  30
ENDBRANCH  22  24
ENDBRANCH  17  18
ENDBRANCH   1  17
TORSDOF 7
ENDMDL
MODEL 7
REMARK VINA RESULT:    -7.060      3.914      5.404
REMARK INTER + INTRA:         -10.826
REMARK INTER:                  -8.851
REMARK INTRA:                  -1.975
REMARK UNBOUND:                -1.082
REMARK  Name = 
REMARK  9 active torsions:
REMARK  status: ('A' for Active; 'I' for Inactive)
REMARK    1  A    between atoms: C_1  and  C_2
REMARK    2  A    between atoms: C_2  and  C_3
REMARK    3  A    between atoms: C_2  and  C_4
REMARK    4  A    between atoms: C_2  and  C_19
REMARK    5  A    between atoms: C_4  and  C_5
REMARK    6  A    between atoms: C_5  and  C_6
REMARK    7  A    between atoms: C_10  and  C_11
REMARK    8  A    between atoms: C_11  and  O_12
REMARK    9  A    between atoms: C_22  and  C_23
REMARK                            x       y       z     vdW  Elec       q    Type
REMARK                         _______ _______ _______ _____ _____    ______ ____
ROOT
ATOM      1  C   UNL     1      48.721   8.313  14.219  0.00  0.00    +0.000 C 
ENDROOT
BRANCH   1   3
ATOM      2  C   UNL     1      47.968   9.183  11.940  0.00  0.00    +0.000 C 
ATOM      3  C   UNL     1      48.357   7.925  12.755  0.00  0.00    +0.000 C 
ATOM      4  C   UNL     1      49.648   7.381  12.085  0.00  0.00    +0.000 C 
BRANCH   3   5
ATOM      5  C   UNL     1      47.222   6.880  12.761  0.00  0.00    +0.000 A 
ATOM      6  C   UNL     1      47.190   5.806  13.669  0.00  0.00    +0.000 A 
ATOM      7  C   UNL     1      46.106   4.915  13.706  0.00  0.00    +0.000 A 
ATOM      8  C   UNL     1      45.015   5.083  12.849  0.00  0.00    +0.000 A 
ATOM      9  C   UNL     1      45.036   6.137  11.947  0.00  0.00    +0.000 A 
ATOM     10  F   UNL     1      44.011   6.369  11.112  0.00  0.00    +0.000 F 
ATOM     11  C   UNL     1      46.120   7.014  11.897  0.00  0.00    +0.000 A 
BRANCH   8  12
ATOM     12  C   UNL     1      43.869   4.139  12.949  0.00  0.00    +0.000 C 
ATOM     13  N   UNL     1      44.075   2.835  12.612  0.00  0.00    +0.000 N 
ATOM     14  O   UNL     1      42.764   4.522  13.313  0.00  0.00    +0.000 OA
ATOM     15  H   UNL     1      44.972   2.479  12.294  0.00  0.00    +0.000 HD
ATOM     16  H   UNL     1      43.292   2.200  12.668  0.00  0.00    +0.000 HD
ENDBRANCH   8  12
ENDBRANCH   3   5
ENDBRANCH   1   3
BRANCH   1  17
ATOM     17  C   UNL     1      50.225   8.389  14.535  0.00  0.00    +0.000 C 
BRANCH  17  18
ATOM     18  C   UNL     1      50.632   7.355  15.551  0.00  0.00    +0.000 A 
ATOM     19  C   UNL     1      51.973   7.132  15.858  0.00  0.00    +0.000 A 
ATOM     20  C   UNL     1      52.319   6.130  16.758  0.00  0.00    +0.000 A 
ATOM     21  C   UNL     1      51.327   5.318  17.320  0.00  0.00    +0.000 A 
ATOM     22  C   UNL     1      49.964   5.503  17.015  0.00  0.00    +0.000 A 
ATOM     23  C   UNL     1      49.644   6.568  16.161  0.00  0.00    +0.000 A 
BRANCH  22  24
ATOM     24  C   UNL     1      48.896   4.543  17.561  0.00  0.00    +0.000 C 
ATOM     25  C   UNL     1      47.540   5.264  17.730  0.00  0.00    +0.000 C 
ATOM     26  C   UNL     1      47.554   6.255  18.893  0.00  0.00    +0.000 C 
ATOM     27  C   UNL     1      47.870   5.552  20.208  0.00  0.00    +0.000 C 
ATOM     28  C   UNL     1      49.155   4.736  20.140  0.00  0.00    +0.000 C 
ATOM     29  C   UNL     1      49.224   3.835  18.901  0.00  0.00    +0.000 C 
BRANCH  24  30
ATOM     30  O   UNL     1      48.692   3.490  16.604  0.00  0.00    +0.000 OA
ATOM     31  H   UNL     1      48.957   2.648  17.008  0.00  0.00    +0.000 HD
ENDBRANCH  24  30
ENDBRANCH  22  24
ENDBRANCH  17  18
ENDBRANCH   1  17
TORSDOF 7
ENDMDL
MODEL 8
REMARK VINA RESULT:    -7.060      3.369      4.976
REMARK INTER + INTRA:         -10.825
REMARK INTER:                  -8.818
REMARK INTRA:                  -2.006
REMARK UNBOUND:                -1.082
REMARK  Name = 
REMARK  9 active torsions:
REMARK  status: ('A' for Active; 'I' for Inactive)
REMARK    1  A    between atoms: C_1  and  C_2
REMARK    2  A    between atoms: C_2  and  C_3
REMARK    3  A    between atoms: C_2  and  C_4
REMARK    4  A    between atoms: C_2  and  C_19
REMARK    5  A    between atoms: C_4  and  C_5
REMARK    6  A    between atoms: C_5  and  C_6
REMARK    7  A    between atoms: C_10  and  C_11
REMARK    8  A    between atoms: C_11  and  O_12
REMARK    9  A    between atoms: C_22  and  C_23
REMARK                            x       y       z     vdW  Elec       q    Type
REMARK                         _______ _______ _______ _____ _____    ______ ____
ROOT
ATOM      1  C   UNL     1      49.270   7.866  14.255  0.00  0.00    +0.000 C 
ENDROOT
BRANCH   1   3
ATOM      2  C   UNL     1      47.880   9.363  12.724  0.00  0.00    +0.000 C 
ATOM      3  C   UNL     1      48.543   7.972  12.881  0.00  0.00    +0.000 C 
ATOM      4  C   UNL     1      49.632   7.906  11.775  0.00  0.00    +0.000 C 
BRANCH   3   5
ATOM      5  C   UNL     1      47.512   6.834  12.749  0.00  0.00    +0.000 A 
ATOM      6  C   UNL     1      46.525   6.821  11.747  0.00  0.00    +0.000 A 
ATOM      7  C   UNL     1      45.648   5.734  11.602  0.00  0.00    +0.000 A 
ATOM      8  C   UNL     1      45.744   4.622  12.442  0.00  0.00    +0.000 A 
ATOM      9  C   UNL     1      46.712   4.624  13.436  0.00  0.00    +0.000 A 
ATOM     10  F   UNL     1      46.873   3.578  14.262  0.00  0.00    +0.000 F 
ATOM     11  C   UNL     1      47.573   5.710  13.594  0.00  0.00    +0.000 A 
BRANCH   8  12
ATOM     12  C   UNL     1      44.821   3.475  12.226  0.00  0.00    +0.000 C 
ATOM     13  N   UNL     1      44.948   2.752  11.078  0.00  0.00    +0.000 N 
ATOM     14  O   UNL     1      43.961   3.192  13.050  0.00  0.00    +0.000 OA
ATOM     15  H   UNL     1      45.640   2.960  10.364  0.00  0.00    +0.000 HD
ATOM     16  H   UNL     1      44.312   1.982  10.928  0.00  0.00    +0.000 HD
ENDBRANCH   8  12
ENDBRANCH   3   5
ENDBRANCH   1   3
BRANCH   1  17
ATOM     17  C   UNL     1      49.027   9.031  15.231  0.00  0.00    +0.000 C 
BRANCH  17  18
ATOM     18  C   UNL     1      48.474   8.548  16.546  0.00  0.00    +0.000 A 
ATOM     19  C   UNL     1      48.048   9.445  17.524  0.00  0.00    +0.000 A 
ATOM     20  C   UNL     1      47.597   8.968  18.749  0.00  0.00    +0.000 A 
ATOM     21  C   UNL     1      47.613   7.595  19.017  0.00  0.00    +0.000 A 
ATOM     22  C   UNL     1      48.057   6.663  18.058  0.00  0.00    +0.000 A 
ATOM     23  C   UNL     1      48.437   7.171  16.808  0.00  0.00    +0.000 A 
BRANCH  22  24
ATOM     24  C   UNL     1      48.161   5.169  18.400  0.00  0.00    +0.000 C 
ATOM     25  C   UNL     1      48.728   4.967  19.824  0.00  0.00    +0.000 C 
ATOM     26  C   UNL     1      50.213   5.311  19.908  0.00  0.00    +0.000 C 
ATOM     27  C   UNL     1      51.032   4.443  18.959  0.00  0.00    +0.000 C 
ATOM     28  C   UNL     1      50.516   4.498  17.526  0.00  0.00    +0.000 C 
ATOM     29  C   UNL     1      48.998   4.294  17.432  0.00  0.00    +0.000 C 
BRANCH  24  30
ATOM     30  O   UNL     1      46.840   4.602  18.394  0.00  0.00    +0.000 OA
ATOM     31  H   UNL     1      46.214   5.271  18.713  0.00  0.00    +0.000 HD
ENDBRANCH  24  30
ENDBRANCH  22  24
ENDBRANCH  17  18
ENDBRANCH   1  17
TORSDOF 7
ENDMDL
MODEL 9
REMARK VINA RESULT:    -6.427      4.505      8.910
REMARK INTER + INTRA:          -9.951
REMARK INTER:                  -8.816
REMARK INTRA:                  -1.135
REMARK UNBOUND:                -1.082
REMARK  Name = 
REMARK  9 active torsions:
REMARK  status: ('A' for Active; 'I' for Inactive)
REMARK    1  A    between atoms: C_1  and  C_2
REMARK    2  A    between atoms: C_2  and  C_3
REMARK    3  A    between atoms: C_2  and  C_4
REMARK    4  A    between atoms: C_2  and  C_19
REMARK    5  A    between atoms: C_4  and  C_5
REMARK    6  A    between atoms: C_5  and  C_6
REMARK    7  A    between atoms: C_10  and  C_11
REMARK    8  A    between atoms: C_11  and  O_12
REMARK    9  A    between atoms: C_22  and  C_23
REMARK                            x       y       z     vdW  Elec       q    Type
REMARK                         _______ _______ _______ _____ _____    ______ ____
ROOT
ATOM      1  C   UNL     1      49.458   7.633  13.857  0.00  0.00    +0.000 C 
ENDROOT
BRANCH   1   3
ATOM      2  C   UNL     1      51.685   8.377  14.860  0.00  0.00    +0.000 C 
ATOM      3  C   UNL     1      50.168   8.205  15.121  0.00  0.00    +0.000 C 
ATOM      4  C   UNL     1      49.621   9.640  15.350  0.00  0.00    +0.000 C 
BRANCH   3   5
ATOM      5  C   UNL     1      49.901   7.283  16.328  0.00  0.00    +0.000 A 
ATOM      6  C   UNL     1      48.755   7.409  17.136  0.00  0.00    +0.000 A 
ATOM      7  C   UNL     1      48.498   6.507  18.180  0.00  0.00    +0.000 A 
ATOM      8  C   UNL     1      49.367   5.443  18.436  0.00  0.00    +0.000 A 
ATOM      9  C   UNL     1      50.501   5.310  17.648  0.00  0.00    +0.000 A 
ATOM     10  F   UNL     1      51.366   4.299  17.825  0.00  0.00    +0.000 F 
ATOM     11  C   UNL     1      50.769   6.215  16.620  0.00  0.00    +0.000 A 
BRANCH   8  12
ATOM     12  C   UNL     1      49.035   4.487  19.527  0.00  0.00    +0.000 C 
ATOM     13  N   UNL     1      48.329   3.366  19.209  0.00  0.00    +0.000 N 
ATOM     14  O   UNL     1      49.373   4.704  20.683  0.00  0.00    +0.000 OA
ATOM     15  H   UNL     1      48.018   3.154  18.265  0.00  0.00    +0.000 HD
ATOM     16  H   UNL     1      48.092   2.726  19.953  0.00  0.00    +0.000 HD
ENDBRANCH   8  12
ENDBRANCH   3   5
ENDBRANCH   1   3
BRANCH   1  17
ATOM     17  C   UNL     1      48.314   6.639  14.127  0.00  0.00    +0.000 C 
BRANCH  17  18
ATOM     18  C   UNL     1      47.094   6.961  13.305  0.00  0.00    +0.000 A 
ATOM     19  C   UNL     1      46.904   8.230  12.759  0.00  0.00    +0.000 A 
ATOM     20  C   UNL     1      45.740   8.511  12.054  0.00  0.00    +0.000 A 
ATOM     21  C   UNL     1      44.740   7.540  11.931  0.00  0.00    +0.000 A 
ATOM     22  C   UNL     1      44.891   6.254  12.489  0.00  0.00    +0.000 A 
ATOM     23  C   UNL     1      46.107   5.980  13.130  0.00  0.00    +0.000 A 
BRANCH  22  24
ATOM     24  C   UNL     1      43.747   5.231  12.431  0.00  0.00    +0.000 C 
ATOM     25  C   UNL     1      44.249   3.820  12.812  0.00  0.00    +0.000 C 
ATOM     26  C   UNL     1      45.137   3.212  11.728  0.00  0.00    +0.000 C 
ATOM     27  C   UNL     1      44.386   3.092  10.407  0.00  0.00    +0.000 C 
ATOM     28  C   UNL     1      43.772   4.415   9.963  0.00  0.00    +0.000 C 
ATOM     29  C   UNL     1      42.990   5.115  11.083  0.00  0.00    +0.000 C 
BRANCH  24  30
ATOM     30  O   UNL     1      42.753   5.596  13.404  0.00  0.00    +0.000 OA
ATOM     31  H   UNL     1      42.203   4.819  13.593  0.00  0.00    +0.000 HD
ENDBRANCH  24  30
ENDBRANCH  22  24
ENDBRANCH  17  18
ENDBRANCH   1  17
TORSDOF 7
ENDMDL
