MODEL 1
REMARK VINA RESULT:    -8.971      0.000      0.000
REMARK INTER + INTRA:         -11.759
REMARK INTER:                 -11.069
REMARK INTRA:                  -0.690
REMARK UNBOUND:                -0.690
REMARK  Name = 
REMARK  4 active torsions:
REMARK  status: ('A' for Active; 'I' for Inactive)
REMARK    1  A    between atoms: C_2  and  C_4
REMARK    2  A    between atoms: N_8  and  C_9
REMARK    3  A    between atoms: C_9  and  C_10
REMARK    4  A    between atoms: C_14  and  N_15
REMARK                            x       y       z     vdW  Elec       q    Type
REMARK                         _______ _______ _______ _____ _____    ______ ____
ROOT
ATOM      1  C   UNL     1      46.449   2.298   7.693  0.00  0.00    +0.000 A 
ATOM      2  C   UNL     1      45.611   1.801   8.684  0.00  0.00    +0.000 A 
ATOM      3  C   UNL     1      44.735   2.673   9.334  0.00  0.00    +0.000 A 
ATOM      4  C   UNL     1      44.719   4.021   8.995  0.00  0.00    +0.000 A 
ATOM      5  N   UNL     1      43.827   4.928   9.526  0.00  0.00    +0.000 N 
ATOM      6  N   UNL     1      45.551   4.519   8.057  0.00  0.00    +0.000 NA
ATOM      7  C   UNL     1      46.401   3.658   7.434  0.00  0.00    +0.000 A 
ATOM      8  H   UNL     1      44.054   5.853   9.172  0.00  0.00    +0.000 HD
ENDROOT
BRANCH   1  10
ATOM      9  N   UNL     1      48.525   2.024   6.467  0.00  0.00    +0.000 N 
ATOM     10  C   UNL     1      47.371   1.444   6.917  0.00  0.00    +0.000 C 
ATOM     11  O   UNL     1      47.132   0.260   6.719  0.00  0.00    +0.000 OA
ATOM     12  H   UNL     1      49.201   1.406   6.034  0.00  0.00    +0.000 HD
ATOM     13  H   UNL     1      48.867   2.904   6.824  0.00  0.00    +0.000 HD
ENDBRANCH   1  10
BRANCH   5  14
ATOM     14  C   UNL     1      43.408   4.888  10.917  0.00  0.00    +0.000 C 
BRANCH  14  15
ATOM     15  C   UNL     1      44.523   4.992  11.927  0.00  0.00    +0.000 A 
ATOM     16  C   UNL     1      44.731   3.932  12.803  0.00  0.00    +0.000 A 
ATOM     17  N   UNL     1      45.707   3.894  13.729  0.00  0.00    +0.000 NA
ATOM     18  C   UNL     1      46.520   4.977  13.789  0.00  0.00    +0.000 A 
ATOM     19  C   UNL     1      46.425   6.118  12.987  0.00  0.00    +0.000 A 
ATOM     20  C   UNL     1      45.387   6.091  12.049  0.00  0.00    +0.000 A 
BRANCH  19  21
ATOM     21  N   UNL     1      47.282   7.191  13.100  0.00  0.00    +0.000 N 
ATOM     22  C   UNL     1      46.827   8.575  13.296  0.00  0.00    +0.000 C 
ATOM     23  C   UNL     1      47.356   9.474  12.170  0.00  0.00    +0.000 C 
ATOM     24  O   UNL     1      48.787   9.380  12.058  0.00  0.00    +0.000 OA
ATOM     25  C   UNL     1      49.176   8.027  11.772  0.00  0.00    +0.000 C 
ATOM     26  C   UNL     1      48.731   7.056  12.881  0.00  0.00    +0.000 C 
ENDBRANCH  19  21
ENDBRANCH  14  15
ENDBRANCH   5  14
TORSDOF 4
ENDMDL
MODEL 2
REMARK VINA RESULT:    -8.485      1.873      2.793
REMARK INTER + INTRA:         -11.159
REMARK INTER:                 -10.462
REMARK INTRA:                  -0.697
REMARK UNBOUND:                -0.690
REMARK  Name = 
REMARK  4 active torsions:
REMARK  status: ('A' for Active; 'I' for Inactive)
REMARK    1  A    between atoms: C_2  and  C_4
REMARK    2  A    between atoms: N_8  and  C_9
REMARK    3  A    between atoms: C_9  and  C_10
REMARK    4  A    between atoms: C_14  and  N_15
REMARK                            x       y       z     vdW  Elec       q    Type
REMARK                         _______ _______ _______ _____ _____    ______ ____
ROOT
ATOM      1  C   UNL     1      46.376   2.230   7.673  0.00  0.00    +0.000 A 
ATOM      2  C   UNL     1      45.687   1.810   8.805  0.00  0.00    +0.000 A 
ATOM      3  C   UNL     1      44.819   2.699   9.442  0.00  0.00    +0.000 A 
ATOM      4  C   UNL     1      44.663   3.990   8.951  0.00  0.00    +0.000 A 
ATOM      5  N   UNL     1      43.765   4.898   9.469  0.00  0.00    +0.000 N 
ATOM      6  N   UNL     1      45.352   4.418   7.872  0.00  0.00    +0.000 NA
ATOM      7  C   UNL     1      46.196   3.542   7.263  0.00  0.00    +0.000 A 
ATOM      8  H   UNL     1      43.882   5.784   8.984  0.00  0.00    +0.000 HD
ENDROOT
BRANCH   1  10
ATOM      9  N   UNL     1      48.308   1.941   6.235  0.00  0.00    +0.000 N 
ATOM     10  C   UNL     1      47.275   1.346   6.905  0.00  0.00    +0.000 C 
ATOM     11  O   UNL     1      47.125   0.131   6.899  0.00  0.00    +0.000 OA
ATOM     12  H   UNL     1      48.982   1.320   5.803  0.00  0.00    +0.000 HD
ATOM     13  H   UNL     1      48.606   2.886   6.423  0.00  0.00    +0.000 HD
ENDBRANCH   1  10
BRANCH   5  14
ATOM     14  C   UNL     1      43.498   5.007  10.893  0.00  0.00    +0.000 C 
BRANCH  14  15
ATOM     15  C   UNL     1      44.508   5.806  11.676  0.00  0.00    +0.000 A 
ATOM     16  C   UNL     1      44.500   7.191  11.556  0.00  0.00    +0.000 A 
ATOM     17  N   UNL     1      45.331   8.016  12.222  0.00  0.00    +0.000 NA
ATOM     18  C   UNL     1      46.226   7.424  13.052  0.00  0.00    +0.000 A 
ATOM     19  C   UNL     1      46.361   6.049  13.264  0.00  0.00    +0.000 A 
ATOM     20  C   UNL     1      45.467   5.253  12.538  0.00  0.00    +0.000 A 
BRANCH  19  21
ATOM     21  N   UNL     1      47.294   5.507  14.120  0.00  0.00    +0.000 N 
ATOM     22  C   UNL     1      47.197   4.148  14.670  0.00  0.00    +0.000 C 
ATOM     23  C   UNL     1      47.200   4.193  16.204  0.00  0.00    +0.000 C 
ATOM     24  O   UNL     1      48.348   4.904  16.702  0.00  0.00    +0.000 OA
ATOM     25  C   UNL     1      48.346   6.255  16.213  0.00  0.00    +0.000 C 
ATOM     26  C   UNL     1      48.397   6.308  14.675  0.00  0.00    +0.000 C 
ENDBRANCH  19  21
ENDBRANCH  14  15
ENDBRANCH   5  14
TORSDOF 4
ENDMDL
MODEL 3
REMARK VINA RESULT:    -7.304      1.602      2.185
REMARK INTER + INTRA:          -9.702
REMARK INTER:                  -9.273
REMARK INTRA:                  -0.430
REMARK UNBOUND:                -0.690
REMARK  Name = 
REMARK  4 active torsions:
REMARK  status: ('A' for Active; 'I' for Inactive)
REMARK    1  A    between atoms: C_2  and  C_4
REMARK    2  A    between atoms: N_8  and  C_9
REMARK    3  A    between atoms: C_9  and  C_10
REMARK    4  A    between atoms: C_14  and  N_15
REMARK                            x       y       z     vdW  Elec       q    Type
REMARK                         _______ _______ _______ _____ _____    ______ ____
ROOT
ATOM      1  C   UNL     1      46.691   2.527   7.163  0.00  0.00    +0.000 A 
ATOM      2  C   UNL     1      46.217   3.748   7.629  0.00  0.00    +0.000 A 
ATOM      3  C   UNL     1      45.495   3.786   8.824  0.00  0.00    +0.000 A 
ATOM      4  C   UNL     1      45.250   2.611   9.525  0.00  0.00    +0.000 A 
ATOM      5  N   UNL     1      44.623   2.574  10.752  0.00  0.00    +0.000 N 
ATOM      6  N   UNL     1      45.678   1.418   9.065  0.00  0.00    +0.000 NA
ATOM      7  C   UNL     1      46.377   1.395   7.898  0.00  0.00    +0.000 A 
ATOM      8  H   UNL     1      44.506   1.603  11.028  0.00  0.00    +0.000 HD
ENDROOT
BRANCH   1  10
ATOM      9  N   UNL     1      47.276   3.305   4.941  0.00  0.00    +0.000 N 
ATOM     10  C   UNL     1      47.505   2.396   5.938  0.00  0.00    +0.000 C 
ATOM     11  O   UNL     1      48.371   1.538   5.834  0.00  0.00    +0.000 OA
ATOM     12  H   UNL     1      47.912   3.277   4.153  0.00  0.00    +0.000 HD
ATOM     13  H   UNL     1      46.765   4.161   5.091  0.00  0.00    +0.000 HD
ENDBRANCH   1  10
BRANCH   5  14
ATOM     14  C   UNL     1      43.511   3.447  11.087  0.00  0.00    +0.000 C 
BRANCH  14  15
ATOM     15  C   UNL     1      43.884   4.878  11.383  0.00  0.00    +0.000 A 
ATOM     16  C   UNL     1      43.030   5.891  10.960  0.00  0.00    +0.000 A 
ATOM     17  N   UNL     1      43.238   7.202  11.186  0.00  0.00    +0.000 NA
ATOM     18  C   UNL     1      44.366   7.523  11.867  0.00  0.00    +0.000 A 
ATOM     19  C   UNL     1      45.322   6.619  12.340  0.00  0.00    +0.000 A 
ATOM     20  C   UNL     1      45.042   5.274  12.068  0.00  0.00    +0.000 A 
BRANCH  19  21
ATOM     21  N   UNL     1      46.452   7.008  13.024  0.00  0.00    +0.000 N 
ATOM     22  C   UNL     1      46.714   8.395  13.436  0.00  0.00    +0.000 C 
ATOM     23  C   UNL     1      48.044   8.883  12.846  0.00  0.00    +0.000 C 
ATOM     24  O   UNL     1      49.123   7.998  13.193  0.00  0.00    +0.000 OA
ATOM     25  C   UNL     1      48.866   6.678  12.686  0.00  0.00    +0.000 C 
ATOM     26  C   UNL     1      47.570   6.084  13.269  0.00  0.00    +0.000 C 
ENDBRANCH  19  21
ENDBRANCH  14  15
ENDBRANCH   5  14
TORSDOF 4
ENDMDL
MODEL 4
REMARK VINA RESULT:    -7.028      1.789      6.561
REMARK INTER + INTRA:          -9.361
REMARK INTER:                  -8.668
REMARK INTRA:                  -0.693
REMARK UNBOUND:                -0.690
REMARK  Name = 
REMARK  4 active torsions:
REMARK  status: ('A' for Active; 'I' for Inactive)
REMARK    1  A    between atoms: C_2  and  C_4
REMARK    2  A    between atoms: N_8  and  C_9
REMARK    3  A    between atoms: C_9  and  C_10
REMARK    4  A    between atoms: C_14  and  N_15
REMARK                            x       y       z     vdW  Elec       q    Type
REMARK                         _______ _______ _______ _____ _____    ______ ____
ROOT
ATOM      1  C   UNL     1      49.568   7.900  11.882  0.00  0.00    +0.000 A 
ATOM      2  C   UNL     1      48.363   8.506  11.549  0.00  0.00    +0.000 A 
ATOM      3  C   UNL     1      47.176   7.998  12.081  0.00  0.00    +0.000 A 
ATOM      4  C   UNL     1      47.209   6.892  12.922  0.00  0.00    +0.000 A 
ATOM      5  N   UNL     1      46.095   6.384  13.555  0.00  0.00    +0.000 N 
ATOM      6  N   UNL     1      48.371   6.277  13.226  0.00  0.00    +0.000 NA
ATOM      7  C   UNL     1      49.519   6.781  12.698  0.00  0.00    +0.000 A 
ATOM      8  H   UNL     1      46.363   5.544  14.061  0.00  0.00    +0.000 HD
ENDROOT
BRANCH   1  10
ATOM      9  N   UNL     1      51.805   7.458  11.054  0.00  0.00    +0.000 N 
ATOM     10  C   UNL     1      50.876   8.397  11.410  0.00  0.00    +0.000 C 
ATOM     11  O   UNL     1      51.105   9.594  11.305  0.00  0.00    +0.000 OA
ATOM     12  H   UNL     1      52.656   7.806  10.627  0.00  0.00    +0.000 HD
ATOM     13  H   UNL     1      51.567   6.493  10.886  0.00  0.00    +0.000 HD
ENDBRANCH   1  10
BRANCH   5  14
ATOM     14  C   UNL     1      44.792   6.327  12.915  0.00  0.00    +0.000 C 
BRANCH  14  15
ATOM     15  C   UNL     1      44.432   4.995  12.307  0.00  0.00    +0.000 A 
ATOM     16  C   UNL     1      43.728   4.078  13.080  0.00  0.00    +0.000 A 
ATOM     17  N   UNL     1      43.326   2.868  12.644  0.00  0.00    +0.000 NA
ATOM     18  C   UNL     1      43.651   2.553  11.366  0.00  0.00    +0.000 A 
ATOM     19  C   UNL     1      44.365   3.363  10.478  0.00  0.00    +0.000 A 
ATOM     20  C   UNL     1      44.752   4.604  10.999  0.00  0.00    +0.000 A 
BRANCH  19  21
ATOM     21  N   UNL     1      44.668   2.983   9.189  0.00  0.00    +0.000 N 
ATOM     22  C   UNL     1      44.897   1.587   8.788  0.00  0.00    +0.000 C 
ATOM     23  C   UNL     1      46.288   1.436   8.158  0.00  0.00    +0.000 C 
ATOM     24  O   UNL     1      46.468   2.356   7.066  0.00  0.00    +0.000 OA
ATOM     25  C   UNL     1      46.329   3.710   7.527  0.00  0.00    +0.000 C 
ATOM     26  C   UNL     1      44.936   3.969   8.131  0.00  0.00    +0.000 C 
ENDBRANCH  19  21
ENDBRANCH  14  15
ENDBRANCH   5  14
TORSDOF 4
ENDMDL
MODEL 5
REMARK VINA RESULT:    -6.895      3.673      8.296
REMARK INTER + INTRA:          -9.197
REMARK INTER:                  -8.796
REMARK INTRA:                  -0.401
REMARK UNBOUND:                -0.690
REMARK  Name = 
REMARK  4 active torsions:
REMARK  status: ('A' for Active; 'I' for Inactive)
REMARK    1  A    between atoms: C_2  and  C_4
REMARK    2  A    between atoms: N_8  and  C_9
REMARK    3  A    between atoms: C_9  and  C_10
REMARK    4  A    between atoms: C_14  and  N_15
REMARK                            x       y       z     vdW  Elec       q    Type
REMARK                         _______ _______ _______ _____ _____    ______ ____
ROOT
ATOM      1  C   UNL     1      49.011   4.528  18.244  0.00  0.00    +0.000 A 
ATOM      2  C   UNL     1      49.102   5.497  17.252  0.00  0.00    +0.000 A 
ATOM      3  C   UNL     1      48.218   5.451  16.172  0.00  0.00    +0.000 A 
ATOM      4  C   UNL     1      47.270   4.437  16.094  0.00  0.00    +0.000 A 
ATOM      5  N   UNL     1      46.308   4.370  15.109  0.00  0.00    +0.000 N 
ATOM      6  N   UNL     1      47.195   3.473  17.035  0.00  0.00    +0.000 NA
ATOM      7  C   UNL     1      48.065   3.529  18.079  0.00  0.00    +0.000 A 
ATOM      8  H   UNL     1      45.778   3.511  15.231  0.00  0.00    +0.000 HD
ENDROOT
BRANCH   1  10
ATOM      9  N   UNL     1      49.266   4.228  20.637  0.00  0.00    +0.000 N 
ATOM     10  C   UNL     1      49.869   4.525  19.446  0.00  0.00    +0.000 C 
ATOM     11  O   UNL     1      51.071   4.741  19.374  0.00  0.00    +0.000 OA
ATOM     12  H   UNL     1      49.879   4.119  21.437  0.00  0.00    +0.000 HD
ATOM     13  H   UNL     1      48.354   3.802  20.695  0.00  0.00    +0.000 HD
ENDBRANCH   1  10
BRANCH   5  14
ATOM     14  C   UNL     1      46.576   4.737  13.730  0.00  0.00    +0.000 C 
BRANCH  14  15
ATOM     15  C   UNL     1      45.444   4.484  12.766  0.00  0.00    +0.000 A 
ATOM     16  C   UNL     1      44.148   4.794  13.163  0.00  0.00    +0.000 A 
ATOM     17  N   UNL     1      43.059   4.639  12.386  0.00  0.00    +0.000 NA
ATOM     18  C   UNL     1      43.274   4.141  11.143  0.00  0.00    +0.000 A 
ATOM     19  C   UNL     1      44.513   3.773  10.612  0.00  0.00    +0.000 A 
ATOM     20  C   UNL     1      45.600   3.959  11.474  0.00  0.00    +0.000 A 
BRANCH  19  21
ATOM     21  N   UNL     1      44.667   3.268   9.339  0.00  0.00    +0.000 N 
ATOM     22  C   UNL     1      44.733   1.830   9.040  0.00  0.00    +0.000 C 
ATOM     23  C   UNL     1      46.045   1.498   8.316  0.00  0.00    +0.000 C 
ATOM     24  O   UNL     1      46.210   2.309   7.139  0.00  0.00    +0.000 OA
ATOM     25  C   UNL     1      46.235   3.701   7.494  0.00  0.00    +0.000 C 
ATOM     26  C   UNL     1      44.929   4.139   8.183  0.00  0.00    +0.000 C 
ENDBRANCH  19  21
ENDBRANCH  14  15
ENDBRANCH   5  14
TORSDOF 4
ENDMDL
MODEL 6
REMARK VINA RESULT:    -6.459      5.063      8.315
REMARK INTER + INTRA:          -8.659
REMARK INTER:                  -8.072
REMARK INTRA:                  -0.587
REMARK UNBOUND:                -0.690
REMARK  Name = 
REMARK  4 active torsions:
REMARK  status: ('A' for Active; 'I' for Inactive)
REMARK    1  A    between atoms: C_2  and  C_4
REMARK    2  A    between atoms: N_8  and  C_9
REMARK    3  A    between atoms: C_9  and  C_10
REMARK    4  A    between atoms: C_14  and  N_15
REMARK                            x       y       z     vdW  Elec       q    Type
REMARK                         _______ _______ _______ _____ _____    ______ ____
ROOT
ATOM      1  C   UNL     1      51.928   2.555  17.781  0.00  0.00    +0.000 A 
ATOM      2  C   UNL     1      51.306   3.685  18.298  0.00  0.00    +0.000 A 
ATOM      3  C   UNL     1      49.946   3.887  18.049  0.00  0.00    +0.000 A 
ATOM      4  C   UNL     1      49.237   2.969  17.283  0.00  0.00    +0.000 A 
ATOM      5  N   UNL     1      47.878   3.050  17.064  0.00  0.00    +0.000 N 
ATOM      6  N   UNL     1      49.840   1.886  16.750  0.00  0.00    +0.000 NA
ATOM      7  C   UNL     1      51.165   1.704  16.999  0.00  0.00    +0.000 A 
ATOM      8  H   UNL     1      47.607   2.305  16.428  0.00  0.00    +0.000 HD
ENDROOT
BRANCH   1  10
ATOM      9  N   UNL     1      53.617   1.010  18.585  0.00  0.00    +0.000 N 
ATOM     10  C   UNL     1      53.347   2.233  18.034  0.00  0.00    +0.000 C 
ATOM     11  O   UNL     1      54.243   3.008  17.729  0.00  0.00    +0.000 OA
ATOM     12  H   UNL     1      54.595   0.753  18.652  0.00  0.00    +0.000 HD
ATOM     13  H   UNL     1      52.940   0.262  18.609  0.00  0.00    +0.000 HD
ENDBRANCH   1  10
BRANCH   5  14
ATOM     14  C   UNL     1      47.195   4.315  16.859  0.00  0.00    +0.000 C 
BRANCH  14  15
ATOM     15  C   UNL     1      47.217   4.834  15.443  0.00  0.00    +0.000 A 
ATOM     16  C   UNL     1      48.176   5.779  15.095  0.00  0.00    +0.000 A 
ATOM     17  N   UNL     1      48.317   6.299  13.861  0.00  0.00    +0.000 NA
ATOM     18  C   UNL     1      47.446   5.855  12.920  0.00  0.00    +0.000 A 
ATOM     19  C   UNL     1      46.424   4.923  13.125  0.00  0.00    +0.000 A 
ATOM     20  C   UNL     1      46.336   4.427  14.431  0.00  0.00    +0.000 A 
BRANCH  19  21
ATOM     21  N   UNL     1      45.567   4.515  12.127  0.00  0.00    +0.000 N 
ATOM     22  C   UNL     1      45.014   5.422  11.111  0.00  0.00    +0.000 C 
ATOM     23  C   UNL     1      43.480   5.391  11.149  0.00  0.00    +0.000 C 
ATOM     24  O   UNL     1      42.983   4.048  11.010  0.00  0.00    +0.000 OA
ATOM     25  C   UNL     1      43.475   3.222  12.079  0.00  0.00    +0.000 C 
ATOM     26  C   UNL     1      45.013   3.152  12.087  0.00  0.00    +0.000 C 
ENDBRANCH  19  21
ENDBRANCH  14  15
ENDBRANCH   5  14
TORSDOF 4
ENDMDL
MODEL 7
REMARK VINA RESULT:    -6.444      2.306      7.250
REMARK INTER + INTRA:          -8.640
REMARK INTER:                  -8.097
REMARK INTRA:                  -0.543
REMARK UNBOUND:                -0.690
REMARK  Name = 
REMARK  4 active torsions:
REMARK  status: ('A' for Active; 'I' for Inactive)
REMARK    1  A    between atoms: C_2  and  C_4
REMARK    2  A    between atoms: N_8  and  C_9
REMARK    3  A    between atoms: C_9  and  C_10
REMARK    4  A    between atoms: C_14  and  N_15
REMARK                            x       y       z     vdW  Elec       q    Type
REMARK                         _______ _______ _______ _____ _____    ______ ____
ROOT
ATOM      1  C   UNL     1      48.258   5.930  15.331  0.00  0.00    +0.000 A 
ATOM      2  C   UNL     1      47.234   5.094  14.903  0.00  0.00    +0.000 A 
ATOM      3  C   UNL     1      46.662   5.306  13.647  0.00  0.00    +0.000 A 
ATOM      4  C   UNL     1      47.112   6.351  12.847  0.00  0.00    +0.000 A 
ATOM      5  N   UNL     1      46.662   6.574  11.563  0.00  0.00    +0.000 N 
ATOM      6  N   UNL     1      48.083   7.187  13.267  0.00  0.00    +0.000 NA
ATOM      7  C   UNL     1      48.628   6.971  14.494  0.00  0.00    +0.000 A 
ATOM      8  H   UNL     1      47.090   7.426  11.212  0.00  0.00    +0.000 HD
ENDROOT
BRANCH   1  10
ATOM      9  N   UNL     1      50.293   6.037  16.647  0.00  0.00    +0.000 N 
ATOM     10  C   UNL     1      48.955   5.752  16.620  0.00  0.00    +0.000 C 
ATOM     11  O   UNL     1      48.357   5.401  17.628  0.00  0.00    +0.000 OA
ATOM     12  H   UNL     1      50.739   6.019  17.557  0.00  0.00    +0.000 HD
ATOM     13  H   UNL     1      50.752   6.563  15.919  0.00  0.00    +0.000 HD
ENDBRANCH   1  10
BRANCH   5  14
ATOM     14  C   UNL     1      45.275   6.378  11.177  0.00  0.00    +0.000 C 
BRANCH  14  15
ATOM     15  C   UNL     1      44.940   5.003  10.660  0.00  0.00    +0.000 A 
ATOM     16  C   UNL     1      43.967   4.260  11.320  0.00  0.00    +0.000 A 
ATOM     17  N   UNL     1      43.560   3.034  10.941  0.00  0.00    +0.000 NA
ATOM     18  C   UNL     1      44.164   2.514   9.843  0.00  0.00    +0.000 A 
ATOM     19  C   UNL     1      45.163   3.134   9.088  0.00  0.00    +0.000 A 
ATOM     20  C   UNL     1      45.537   4.405   9.540  0.00  0.00    +0.000 A 
BRANCH  19  21
ATOM     21  N   UNL     1      45.741   2.551   7.982  0.00  0.00    +0.000 N 
ATOM     22  C   UNL     1      45.930   1.100   7.835  0.00  0.00    +0.000 C 
ATOM     23  C   UNL     1      47.413   0.776   7.614  0.00  0.00    +0.000 C 
ATOM     24  O   UNL     1      47.947   1.512   6.499  0.00  0.00    +0.000 OA
ATOM     25  C   UNL     1      47.827   2.925   6.733  0.00  0.00    +0.000 C 
ATOM     26  C   UNL     1      46.359   3.352   6.914  0.00  0.00    +0.000 C 
ENDBRANCH  19  21
ENDBRANCH  14  15
ENDBRANCH   5  14
TORSDOF 4
ENDMDL
MODEL 8
REMARK VINA RESULT:    -6.127      4.150      6.314
REMARK INTER + INTRA:          -8.249
REMARK INTER:                  -7.605
REMARK INTRA:                  -0.644
REMARK UNBOUND:                -0.690
REMARK  Name = 
REMARK  4 active torsions:
REMARK  status: ('A' for Active; 'I' for Inactive)
REMARK    1  A    between atoms: C_2  and  C_4
REMARK    2  A    between atoms: N_8  and  C_9
REMARK    3  A    between atoms: C_9  and  C_10
REMARK    4  A    between atoms: C_14  and  N_15
REMARK                            x       y       z     vdW  Elec       q    Type
REMARK                         _______ _______ _______ _____ _____    ______ ____
ROOT
ATOM      1  C   UNL     1      44.693   5.271  11.452  0.00  0.00    +0.000 A 
ATOM      2  C   UNL     1      45.684   4.746  12.274  0.00  0.00    +0.000 A 
ATOM      3  C   UNL     1      46.466   5.615  13.037  0.00  0.00    +0.000 A 
ATOM      4  C   UNL     1      46.257   6.987  12.959  0.00  0.00    +0.000 A 
ATOM      5  N   UNL     1      46.926   7.905  13.741  0.00  0.00    +0.000 N 
ATOM      6  N   UNL     1      45.319   7.508  12.140  0.00  0.00    +0.000 NA
ATOM      7  C   UNL     1      44.567   6.650  11.401  0.00  0.00    +0.000 A 
ATOM      8  H   UNL     1      46.646   8.839  13.456  0.00  0.00    +0.000 HD
ENDROOT
BRANCH   1  10
ATOM      9  N   UNL     1      43.835   4.580   9.291  0.00  0.00    +0.000 N 
ATOM     10  C   UNL     1      43.785   4.428  10.650  0.00  0.00    +0.000 C 
ATOM     11  O   UNL     1      43.048   3.602  11.173  0.00  0.00    +0.000 OA
ATOM     12  H   UNL     1      43.291   3.923   8.744  0.00  0.00    +0.000 HD
ATOM     13  H   UNL     1      44.594   5.053   8.824  0.00  0.00    +0.000 HD
ENDBRANCH   1  10
BRANCH   5  14
ATOM     14  C   UNL     1      48.330   7.760  14.085  0.00  0.00    +0.000 C 
BRANCH  14  15
ATOM     15  C   UNL     1      48.603   7.324  15.502  0.00  0.00    +0.000 A 
ATOM     16  C   UNL     1      48.611   8.286  16.506  0.00  0.00    +0.000 A 
ATOM     17  N   UNL     1      48.815   8.020  17.810  0.00  0.00    +0.000 NA
ATOM     18  C   UNL     1      49.030   6.720  18.131  0.00  0.00    +0.000 A 
ATOM     19  C   UNL     1      49.065   5.650  17.233  0.00  0.00    +0.000 A 
ATOM     20  C   UNL     1      48.847   6.000  15.895  0.00  0.00    +0.000 A 
BRANCH  19  21
ATOM     21  N   UNL     1      49.292   4.348  17.621  0.00  0.00    +0.000 N 
ATOM     22  C   UNL     1      50.553   3.890  18.223  0.00  0.00    +0.000 C 
ATOM     23  C   UNL     1      51.161   2.756  17.387  0.00  0.00    +0.000 C 
ATOM     24  O   UNL     1      50.220   1.682  17.205  0.00  0.00    +0.000 OA
ATOM     25  C   UNL     1      49.046   2.159  16.528  0.00  0.00    +0.000 C 
ATOM     26  C   UNL     1      48.337   3.270  17.324  0.00  0.00    +0.000 C 
ENDBRANCH  19  21
ENDBRANCH  14  15
ENDBRANCH   5  14
TORSDOF 4
ENDMDL
