MODEL 1
REMARK VINA RESULT:    -8.657      0.000      0.000
REMARK INTER + INTRA:         -11.503
REMARK INTER:                 -10.681
REMARK INTRA:                  -0.822
REMARK UNBOUND:                -0.822
REMARK  Name = 
REMARK  4 active torsions:
REMARK  status: ('A' for Active; 'I' for Inactive)
REMARK    1  A    between atoms: C_2  and  C_4
REMARK    2  A    between atoms: C_7  and  N_8
REMARK    3  A    between atoms: N_8  and  C_9
REMARK    4  A    between atoms: C_9  and  C_10
REMARK                            x       y       z     vdW  Elec       q    Type
REMARK                         _______ _______ _______ _____ _____    ______ ____
ROOT
ATOM      1  N   UNL     1      43.789   5.005   9.707  0.00  0.00    +0.000 N 
ATOM      2  H   UNL     1      42.859   5.008   9.297  0.00  0.00    +0.000 HD
ENDROOT
BRANCH   1   6
ATOM      3  C   UNL     1      46.283   2.068   7.937  0.00  0.00    +0.000 A 
ATOM      4  C   UNL     1      46.444   3.425   7.624  0.00  0.00    +0.000 A 
ATOM      5  C   UNL     1      45.619   4.384   8.223  0.00  0.00    +0.000 A 
ATOM      6  C   UNL     1      44.609   4.010   9.121  0.00  0.00    +0.000 A 
ATOM      7  C   UNL     1      44.494   2.657   9.459  0.00  0.00    +0.000 A 
ATOM      8  C   UNL     1      45.310   1.690   8.861  0.00  0.00    +0.000 A 
BRANCH   3  10
ATOM      9  N   UNL     1      46.806  -0.294   7.649  0.00  0.00    +0.000 N 
ATOM     10  C   UNL     1      47.096   0.997   7.306  0.00  0.00    +0.000 C 
ATOM     11  O   UNL     1      47.967   1.247   6.482  0.00  0.00    +0.000 OA
ATOM     12  H   UNL     1      47.286  -1.009   7.117  0.00  0.00    +0.000 HD
ATOM     13  H   UNL     1      45.936  -0.547   8.096  0.00  0.00    +0.000 HD
ENDBRANCH   3  10
ENDBRANCH   1   6
BRANCH   1  14
ATOM     14  C   UNL     1      43.815   5.259  11.169  0.00  0.00    +0.000 C 
ATOM     15  C   UNL     1      42.659   4.782  12.037  0.00  0.00    +0.000 C 
ATOM     16  C   UNL     1      42.783   6.236  11.733  0.00  0.00    +0.000 C 
BRANCH  14  17
ATOM     17  C   UNL     1      45.203   5.389  11.797  0.00  0.00    +0.000 A 
ATOM     18  C   UNL     1      46.091   6.403  11.385  0.00  0.00    +0.000 A 
ATOM     19  C   UNL     1      47.250   6.698  12.110  0.00  0.00    +0.000 A 
ATOM     20  C   UNL     1      47.561   5.959  13.249  0.00  0.00    +0.000 A 
ATOM     21  C   UNL     1      46.742   4.903  13.615  0.00  0.00    +0.000 A 
ATOM     22  F   UNL     1      47.036   4.185  14.707  0.00  0.00    +0.000 F 
ATOM     23  C   UNL     1      45.589   4.607  12.899  0.00  0.00    +0.000 A 
ENDBRANCH  14  17
ENDBRANCH   1  14
TORSDOF 4
ENDMDL
MODEL 2
REMARK VINA RESULT:    -8.573      1.403      2.069
REMARK INTER + INTRA:         -11.399
REMARK INTER:                 -10.647
REMARK INTRA:                  -0.753
REMARK UNBOUND:                -0.822
REMARK  Name = 
REMARK  4 active torsions:
REMARK  status: ('A' for Active; 'I' for Inactive)
REMARK    1  A    between atoms: C_2  and  C_4
REMARK    2  A    between atoms: C_7  and  N_8
REMARK    3  A    between atoms: N_8  and  C_9
REMARK    4  A    between atoms: C_9  and  C_10
REMARK                            x       y       z     vdW  Elec       q    Type
REMARK                         _______ _______ _______ _____ _____    ______ ____
ROOT
ATOM      1  N   UNL     1      43.918   4.959   9.959  0.00  0.00    +0.000 N 
ATOM      2  H   UNL     1      42.987   5.007   9.552  0.00  0.00    +0.000 HD
ENDROOT
BRANCH   1   6
ATOM      3  C   UNL     1      46.408   2.332   7.751  0.00  0.00    +0.000 A 
ATOM      4  C   UNL     1      45.458   1.829   8.650  0.00  0.00    +0.000 A 
ATOM      5  C   UNL     1      44.636   2.708   9.366  0.00  0.00    +0.000 A 
ATOM      6  C   UNL     1      44.762   4.097   9.217  0.00  0.00    +0.000 A 
ATOM      7  C   UNL     1      45.682   4.581   8.281  0.00  0.00    +0.000 A 
ATOM      8  C   UNL     1      46.512   3.709   7.565  0.00  0.00    +0.000 A 
BRANCH   3  10
ATOM      9  N   UNL     1      48.376   2.061   6.342  0.00  0.00    +0.000 N 
ATOM     10  C   UNL     1      47.338   1.456   6.993  0.00  0.00    +0.000 C 
ATOM     11  O   UNL     1      47.211   0.238   6.977  0.00  0.00    +0.000 OA
ATOM     12  H   UNL     1      49.064   1.438   5.936  0.00  0.00    +0.000 HD
ATOM     13  H   UNL     1      48.667   3.004   6.556  0.00  0.00    +0.000 HD
ENDBRANCH   3  10
ENDBRANCH   1   6
BRANCH   1  14
ATOM     14  C   UNL     1      43.939   4.967  11.443  0.00  0.00    +0.000 C 
ATOM     15  C   UNL     1      43.063   3.989  12.213  0.00  0.00    +0.000 C 
ATOM     16  C   UNL     1      42.672   5.427  12.164  0.00  0.00    +0.000 C 
BRANCH  14  17
ATOM     17  C   UNL     1      45.236   5.461  12.086  0.00  0.00    +0.000 A 
ATOM     18  C   UNL     1      45.818   4.766  13.165  0.00  0.00    +0.000 A 
ATOM     19  C   UNL     1      47.118   5.048  13.598  0.00  0.00    +0.000 A 
ATOM     20  C   UNL     1      47.851   6.056  12.979  0.00  0.00    +0.000 A 
ATOM     21  C   UNL     1      47.258   6.806  11.975  0.00  0.00    +0.000 A 
ATOM     22  F   UNL     1      47.955   7.780  11.377  0.00  0.00    +0.000 F 
ATOM     23  C   UNL     1      45.968   6.528  11.540  0.00  0.00    +0.000 A 
ENDBRANCH  14  17
ENDBRANCH   1  14
TORSDOF 4
ENDMDL
MODEL 3
REMARK VINA RESULT:    -6.885      3.585      6.365
REMARK INTER + INTRA:          -9.316
REMARK INTER:                  -9.500
REMARK INTRA:                   0.184
REMARK UNBOUND:                -0.822
REMARK  Name = 
REMARK  4 active torsions:
REMARK  status: ('A' for Active; 'I' for Inactive)
REMARK    1  A    between atoms: C_2  and  C_4
REMARK    2  A    between atoms: C_7  and  N_8
REMARK    3  A    between atoms: N_8  and  C_9
REMARK    4  A    between atoms: C_9  and  C_10
REMARK                            x       y       z     vdW  Elec       q    Type
REMARK                         _______ _______ _______ _____ _____    ______ ____
ROOT
ATOM      1  N   UNL     1      44.351   5.367  10.240  0.00  0.00    +0.000 N 
ATOM      2  H   UNL     1      44.204   5.756   9.312  0.00  0.00    +0.000 HD
ENDROOT
BRANCH   1   6
ATOM      3  C   UNL     1      46.716   7.924  12.657  0.00  0.00    +0.000 A 
ATOM      4  C   UNL     1      45.320   7.925  12.771  0.00  0.00    +0.000 A 
ATOM      5  C   UNL     1      44.552   7.069  11.972  0.00  0.00    +0.000 A 
ATOM      6  C   UNL     1      45.157   6.219  11.035  0.00  0.00    +0.000 A 
ATOM      7  C   UNL     1      46.554   6.196  10.969  0.00  0.00    +0.000 A 
ATOM      8  C   UNL     1      47.330   7.053  11.759  0.00  0.00    +0.000 A 
BRANCH   3  10
ATOM      9  N   UNL     1      47.342   8.932  14.785  0.00  0.00    +0.000 N 
ATOM     10  C   UNL     1      47.586   8.837  13.444  0.00  0.00    +0.000 C 
ATOM     11  O   UNL     1      48.511   9.453  12.929  0.00  0.00    +0.000 OA
ATOM     12  H   UNL     1      48.021   9.461  15.320  0.00  0.00    +0.000 HD
ATOM     13  H   UNL     1      46.787   8.248  15.279  0.00  0.00    +0.000 HD
ENDBRANCH   3  10
ENDBRANCH   1   6
BRANCH   1  14
ATOM     14  C   UNL     1      44.531   3.894  10.266  0.00  0.00    +0.000 C 
ATOM     15  C   UNL     1      43.562   3.032  11.062  0.00  0.00    +0.000 C 
ATOM     16  C   UNL     1      44.935   3.257  11.596  0.00  0.00    +0.000 C 
BRANCH  14  17
ATOM     17  C   UNL     1      45.229   3.288   9.048  0.00  0.00    +0.000 A 
ATOM     18  C   UNL     1      45.810   4.111   8.063  0.00  0.00    +0.000 A 
ATOM     19  C   UNL     1      46.663   3.590   7.085  0.00  0.00    +0.000 A 
ATOM     20  C   UNL     1      46.926   2.224   7.054  0.00  0.00    +0.000 A 
ATOM     21  C   UNL     1      46.292   1.390   7.963  0.00  0.00    +0.000 A 
ATOM     22  F   UNL     1      46.538   0.074   7.937  0.00  0.00    +0.000 F 
ATOM     23  C   UNL     1      45.446   1.905   8.937  0.00  0.00    +0.000 A 
ENDBRANCH  14  17
ENDBRANCH   1  14
TORSDOF 4
ENDMDL
MODEL 4
REMARK VINA RESULT:    -6.674      3.594      6.373
REMARK INTER + INTRA:          -9.056
REMARK INTER:                  -8.687
REMARK INTRA:                  -0.368
REMARK UNBOUND:                -0.822
REMARK  Name = 
REMARK  4 active torsions:
REMARK  status: ('A' for Active; 'I' for Inactive)
REMARK    1  A    between atoms: C_2  and  C_4
REMARK    2  A    between atoms: C_7  and  N_8
REMARK    3  A    between atoms: N_8  and  C_9
REMARK    4  A    between atoms: C_9  and  C_10
REMARK                            x       y       z     vdW  Elec       q    Type
REMARK                         _______ _______ _______ _____ _____    ______ ____
ROOT
ATOM      1  N   UNL     1      45.495   3.512  12.201  0.00  0.00    +0.000 N 
ATOM      2  H   UNL     1      45.245   2.903  12.975  0.00  0.00    +0.000 HD
ENDROOT
BRANCH   1   6
ATOM      3  C   UNL     1      47.468   6.994  13.600  0.00  0.00    +0.000 A 
ATOM      4  C   UNL     1      47.469   5.817  14.361  0.00  0.00    +0.000 A 
ATOM      5  C   UNL     1      46.821   4.672  13.883  0.00  0.00    +0.000 A 
ATOM      6  C   UNL     1      46.144   4.686  12.655  0.00  0.00    +0.000 A 
ATOM      7  C   UNL     1      46.193   5.853  11.886  0.00  0.00    +0.000 A 
ATOM      8  C   UNL     1      46.834   7.005  12.359  0.00  0.00    +0.000 A 
BRANCH   3  10
ATOM      9  N   UNL     1      47.433   8.973  15.019  0.00  0.00    +0.000 N 
ATOM     10  C   UNL     1      48.101   8.254  14.068  0.00  0.00    +0.000 C 
ATOM     11  O   UNL     1      49.193   8.622  13.654  0.00  0.00    +0.000 OA
ATOM     12  H   UNL     1      47.938   9.759  15.411  0.00  0.00    +0.000 HD
ATOM     13  H   UNL     1      46.690   8.572  15.572  0.00  0.00    +0.000 HD
ENDBRANCH   3  10
ENDBRANCH   1   6
BRANCH   1  14
ATOM     14  C   UNL     1      44.487   3.563  11.111  0.00  0.00    +0.000 C 
ATOM     15  C   UNL     1      43.259   4.448  11.263  0.00  0.00    +0.000 C 
ATOM     16  C   UNL     1      43.108   2.972  11.399  0.00  0.00    +0.000 C 
BRANCH  14  17
ATOM     17  C   UNL     1      45.012   3.264   9.707  0.00  0.00    +0.000 A 
ATOM     18  C   UNL     1      45.313   4.308   8.809  0.00  0.00    +0.000 A 
ATOM     19  C   UNL     1      46.025   4.073   7.628  0.00  0.00    +0.000 A 
ATOM     20  C   UNL     1      46.422   2.779   7.305  0.00  0.00    +0.000 A 
ATOM     21  C   UNL     1      46.056   1.731   8.135  0.00  0.00    +0.000 A 
ATOM     22  F   UNL     1      46.431   0.482   7.829  0.00  0.00    +0.000 F 
ATOM     23  C   UNL     1      45.351   1.960   9.310  0.00  0.00    +0.000 A 
ENDBRANCH  14  17
ENDBRANCH   1  14
TORSDOF 4
ENDMDL
MODEL 5
REMARK VINA RESULT:    -6.421      3.812      6.282
REMARK INTER + INTRA:          -8.744
REMARK INTER:                  -8.319
REMARK INTRA:                  -0.425
REMARK UNBOUND:                -0.822
REMARK  Name = 
REMARK  4 active torsions:
REMARK  status: ('A' for Active; 'I' for Inactive)
REMARK    1  A    between atoms: C_2  and  C_4
REMARK    2  A    between atoms: C_7  and  N_8
REMARK    3  A    between atoms: N_8  and  C_9
REMARK    4  A    between atoms: C_9  and  C_10
REMARK                            x       y       z     vdW  Elec       q    Type
REMARK                         _______ _______ _______ _____ _____    ______ ____
ROOT
ATOM      1  N   UNL     1      45.230   3.822  12.654  0.00  0.00    +0.000 N 
ATOM      2  H   UNL     1      44.700   3.317  13.359  0.00  0.00    +0.000 HD
ENDROOT
BRANCH   1   6
ATOM      3  C   UNL     1      48.207   6.303  14.372  0.00  0.00    +0.000 A 
ATOM      4  C   UNL     1      47.777   6.512  13.055  0.00  0.00    +0.000 A 
ATOM      5  C   UNL     1      46.786   5.690  12.504  0.00  0.00    +0.000 A 
ATOM      6  C   UNL     1      46.227   4.637  13.242  0.00  0.00    +0.000 A 
ATOM      7  C   UNL     1      46.634   4.473  14.570  0.00  0.00    +0.000 A 
ATOM      8  C   UNL     1      47.628   5.286  15.128  0.00  0.00    +0.000 A 
BRANCH   3  10
ATOM      9  N   UNL     1      50.373   7.410  14.234  0.00  0.00    +0.000 N 
ATOM     10  C   UNL     1      49.283   7.111  15.002  0.00  0.00    +0.000 C 
ATOM     11  O   UNL     1      49.189   7.531  16.149  0.00  0.00    +0.000 OA
ATOM     12  H   UNL     1      51.033   8.062  14.641  0.00  0.00    +0.000 HD
ATOM     13  H   UNL     1      50.360   7.324  13.228  0.00  0.00    +0.000 HD
ENDBRANCH   3  10
ENDBRANCH   1   6
BRANCH   1  14
ATOM     14  C   UNL     1      44.420   4.304  11.507  0.00  0.00    +0.000 C 
ATOM     15  C   UNL     1      43.689   5.635  11.609  0.00  0.00    +0.000 C 
ATOM     16  C   UNL     1      42.904   4.370  11.693  0.00  0.00    +0.000 C 
BRANCH  14  17
ATOM     17  C   UNL     1      44.857   3.806  10.129  0.00  0.00    +0.000 A 
ATOM     18  C   UNL     1      45.357   4.700   9.162  0.00  0.00    +0.000 A 
ATOM     19  C   UNL     1      45.992   4.242   8.003  0.00  0.00    +0.000 A 
ATOM     20  C   UNL     1      46.111   2.875   7.773  0.00  0.00    +0.000 A 
ATOM     21  C   UNL     1      45.546   1.985   8.674  0.00  0.00    +0.000 A 
ATOM     22  F   UNL     1      45.652   0.667   8.457  0.00  0.00    +0.000 F 
ATOM     23  C   UNL     1      44.916   2.435   9.826  0.00  0.00    +0.000 A 
ENDBRANCH  14  17
ENDBRANCH   1  14
TORSDOF 4
ENDMDL
MODEL 6
REMARK VINA RESULT:    -6.110      3.746      6.423
REMARK INTER + INTRA:          -8.360
REMARK INTER:                  -8.223
REMARK INTRA:                  -0.137
REMARK UNBOUND:                -0.822
REMARK  Name = 
REMARK  4 active torsions:
REMARK  status: ('A' for Active; 'I' for Inactive)
REMARK    1  A    between atoms: C_2  and  C_4
REMARK    2  A    between atoms: C_7  and  N_8
REMARK    3  A    between atoms: N_8  and  C_9
REMARK    4  A    between atoms: C_9  and  C_10
REMARK                            x       y       z     vdW  Elec       q    Type
REMARK                         _______ _______ _______ _____ _____    ______ ____
ROOT
ATOM      1  N   UNL     1      45.637   5.065  12.775  0.00  0.00    +0.000 N 
ATOM      2  H   UNL     1      45.637   4.783  13.752  0.00  0.00    +0.000 HD
ENDROOT
BRANCH   1   6
ATOM      3  C   UNL     1      47.123   9.003  12.274  0.00  0.00    +0.000 A 
ATOM      4  C   UNL     1      47.939   7.894  12.015  0.00  0.00    +0.000 A 
ATOM      5  C   UNL     1      47.432   6.599  12.176  0.00  0.00    +0.000 A 
ATOM      6  C   UNL     1      46.118   6.387  12.618  0.00  0.00    +0.000 A 
ATOM      7  C   UNL     1      45.303   7.505  12.826  0.00  0.00    +0.000 A 
ATOM      8  C   UNL     1      45.803   8.804  12.673  0.00  0.00    +0.000 A 
BRANCH   3  10
ATOM      9  N   UNL     1      46.711  11.400  12.407  0.00  0.00    +0.000 N 
ATOM     10  C   UNL     1      47.612  10.402  12.163  0.00  0.00    +0.000 C 
ATOM     11  O   UNL     1      48.781  10.660  11.902  0.00  0.00    +0.000 OA
ATOM     12  H   UNL     1      47.093  12.338  12.446  0.00  0.00    +0.000 HD
ATOM     13  H   UNL     1      45.838  11.230  12.884  0.00  0.00    +0.000 HD
ENDBRANCH   3  10
ENDBRANCH   1   6
BRANCH   1  14
ATOM     14  C   UNL     1      44.473   4.573  11.995  0.00  0.00    +0.000 C 
ATOM     15  C   UNL     1      43.079   5.090  12.317  0.00  0.00    +0.000 C 
ATOM     16  C   UNL     1      43.449   3.706  12.729  0.00  0.00    +0.000 C 
BRANCH  14  17
ATOM     17  C   UNL     1      44.777   4.106  10.571  0.00  0.00    +0.000 A 
ATOM     18  C   UNL     1      45.288   5.001   9.611  0.00  0.00    +0.000 A 
ATOM     19  C   UNL     1      45.807   4.549   8.393  0.00  0.00    +0.000 A 
ATOM     20  C   UNL     1      45.794   3.189   8.098  0.00  0.00    +0.000 A 
ATOM     21  C   UNL     1      45.214   2.306   8.997  0.00  0.00    +0.000 A 
ATOM     22  F   UNL     1      45.194   0.996   8.719  0.00  0.00    +0.000 F 
ATOM     23  C   UNL     1      44.699   2.752  10.208  0.00  0.00    +0.000 A 
ENDBRANCH  14  17
ENDBRANCH   1  14
TORSDOF 4
ENDMDL
MODEL 7
REMARK VINA RESULT:    -5.771      3.201      4.617
REMARK INTER + INTRA:          -7.941
REMARK INTER:                  -7.440
REMARK INTRA:                  -0.502
REMARK UNBOUND:                -0.822
REMARK  Name = 
REMARK  4 active torsions:
REMARK  status: ('A' for Active; 'I' for Inactive)
REMARK    1  A    between atoms: C_2  and  C_4
REMARK    2  A    between atoms: C_7  and  N_8
REMARK    3  A    between atoms: N_8  and  C_9
REMARK    4  A    between atoms: C_9  and  C_10
REMARK                            x       y       z     vdW  Elec       q    Type
REMARK                         _______ _______ _______ _____ _____    ______ ____
ROOT
ATOM      1  N   UNL     1      45.881   6.487  13.251  0.00  0.00    +0.000 N 
ATOM      2  H   UNL     1      45.772   6.045  14.161  0.00  0.00    +0.000 HD
ENDROOT
BRANCH   1   6
ATOM      3  C   UNL     1      45.020   3.824  10.067  0.00  0.00    +0.000 A 
ATOM      4  C   UNL     1      45.455   5.130   9.807  0.00  0.00    +0.000 A 
ATOM      5  C   UNL     1      45.745   5.996  10.869  0.00  0.00    +0.000 A 
ATOM      6  C   UNL     1      45.584   5.586  12.200  0.00  0.00    +0.000 A 
ATOM      7  C   UNL     1      45.195   4.264  12.442  0.00  0.00    +0.000 A 
ATOM      8  C   UNL     1      44.898   3.393  11.387  0.00  0.00    +0.000 A 
BRANCH   3  10
ATOM      9  N   UNL     1      44.198   3.397   7.814  0.00  0.00    +0.000 N 
ATOM     10  C   UNL     1      44.657   2.869   8.988  0.00  0.00    +0.000 C 
ATOM     11  O   UNL     1      44.797   1.660   9.120  0.00  0.00    +0.000 OA
ATOM     12  H   UNL     1      44.075   2.739   7.054  0.00  0.00    +0.000 HD
ATOM     13  H   UNL     1      44.331   4.369   7.575  0.00  0.00    +0.000 HD
ENDBRANCH   3  10
ENDBRANCH   1   6
BRANCH   1  14
ATOM     14  C   UNL     1      47.028   7.425  13.159  0.00  0.00    +0.000 C 
ATOM     15  C   UNL     1      48.430   6.879  12.927  0.00  0.00    +0.000 C 
ATOM     16  C   UNL     1      48.065   7.383  14.281  0.00  0.00    +0.000 C 
BRANCH  14  17
ATOM     17  C   UNL     1      46.696   8.835  12.670  0.00  0.00    +0.000 A 
ATOM     18  C   UNL     1      47.698   9.672  12.141  0.00  0.00    +0.000 A 
ATOM     19  C   UNL     1      47.380  10.853  11.463  0.00  0.00    +0.000 A 
ATOM     20  C   UNL     1      46.049  11.237  11.328  0.00  0.00    +0.000 A 
ATOM     21  C   UNL     1      45.059  10.468  11.919  0.00  0.00    +0.000 A 
ATOM     22  F   UNL     1      43.776  10.833  11.797  0.00  0.00    +0.000 F 
ATOM     23  C   UNL     1      45.370   9.294  12.593  0.00  0.00    +0.000 A 
ENDBRANCH  14  17
ENDBRANCH   1  14
TORSDOF 4
ENDMDL
