MODEL 1
REMARK VINA RESULT:    -7.403      0.000      0.000
REMARK INTER + INTRA:         -11.703
REMARK INTER:                 -10.432
REMARK INTRA:                  -1.271
REMARK UNBOUND:                -1.271
REMARK  Name = 
REMARK  8 active torsions:
REMARK  status: ('A' for Active; 'I' for Inactive)
REMARK    1  A    between atoms: C_1  and  C_2
REMARK    2  A    between atoms: C_2  and  C_3
REMARK    3  A    between atoms: C_3  and  N_4
REMARK    4  A    between atoms: C_3  and  C_17
REMARK    5  A    between atoms: C_5  and  C_7
REMARK    6  A    between atoms: C_20  and  C_21
REMARK    7  A    between atoms: C_21  and  N_22
REMARK    8  A    between atoms: C_23  and  C_25
REMARK                            x       y       z     vdW  Elec       q    Type
REMARK                         _______ _______ _______ _____ _____    ______ ____
ROOT
ATOM      1  C   UNL     1      47.879   7.589  13.900  0.00  0.00    +0.000 C 
ENDROOT
BRANCH   1   2
ATOM      2  C   UNL     1      46.978   6.692  13.047  0.00  0.00    +0.000 A 
ATOM      3  C   UNL     1      46.424   7.165  11.846  0.00  0.00    +0.000 A 
ATOM      4  C   UNL     1      45.605   6.344  11.054  0.00  0.00    +0.000 A 
ATOM      5  C   UNL     1      45.313   5.030  11.441  0.00  0.00    +0.000 A 
ATOM      6  C   UNL     1      45.878   4.549  12.629  0.00  0.00    +0.000 A 
ATOM      7  C   UNL     1      46.696   5.367  13.421  0.00  0.00    +0.000 A 
BRANCH   5   8
ATOM      8  C   UNL     1      44.386   4.160  10.630  0.00  0.00    +0.000 C 
BRANCH   8   9
ATOM      9  N   UNL     1      45.060   3.147   9.859  0.00  0.00    +0.000 N 
ATOM     10  C   UNL     1      45.561   3.437   8.606  0.00  0.00    +0.000 C 
ATOM     11  O   UNL     1      45.445   4.535   8.075  0.00  0.00    +0.000 OA
ATOM     12  H   UNL     1      45.226   2.215  10.226  0.00  0.00    +0.000 HD
BRANCH  10  13
ATOM     13  C   UNL     1      46.247   2.312   7.965  0.00  0.00    +0.000 A 
ATOM     14  C   UNL     1      47.204   2.399   6.967  0.00  0.00    +0.000 A 
ATOM     15  N   UNL     1      47.556   1.109   6.680  0.00  0.00    +0.000 N 
ATOM     16  C   UNL     1      46.821   0.294   7.493  0.00  0.00    +0.000 A 
ATOM     17  N   UNL     1      46.023   0.978   8.280  0.00  0.00    +0.000 NA
ATOM     18  H   UNL     1      48.235   0.813   5.994  0.00  0.00    +0.000 HD
ENDBRANCH  10  13
ENDBRANCH   8   9
ENDBRANCH   5   8
ENDBRANCH   1   2
BRANCH   1  19
ATOM     19  N   UNL     1      47.932   7.051  15.255  0.00  0.00    +0.000 N 
ATOM     20  C   UNL     1      49.083   6.590  15.849  0.00  0.00    +0.000 C 
ATOM     21  O   UNL     1      50.188   6.669  15.321  0.00  0.00    +0.000 OA
ATOM     22  H   UNL     1      47.045   6.726  15.628  0.00  0.00    +0.000 HD
BRANCH  20  23
ATOM     23  C   UNL     1      48.936   6.018  17.190  0.00  0.00    +0.000 A 
ATOM     24  C   UNL     1      49.208   4.677  17.422  0.00  0.00    +0.000 A 
ATOM     25  S   UNL     1      48.902   4.189  19.029  0.00  0.00    +0.000 S 
ATOM     26  C   UNL     1      48.361   5.745  19.456  0.00  0.00    +0.000 A 
ATOM     27  N   UNL     1      47.870   6.008  20.697  0.00  0.00    +0.000 NA
ATOM     28  C   UNL     1      47.460   7.223  20.862  0.00  0.00    +0.000 A 
ATOM     29  N   UNL     1      47.523   8.205  19.910  0.00  0.00    +0.000 N 
ATOM     30  C   UNL     1      48.071   8.002  18.667  0.00  0.00    +0.000 A 
ATOM     31  O   UNL     1      48.219   8.927  17.876  0.00  0.00    +0.000 OA
ATOM     32  C   UNL     1      48.475   6.637  18.407  0.00  0.00    +0.000 A 
ATOM     33  H   UNL     1      47.231   9.152  20.111  0.00  0.00    +0.000 HD
ENDBRANCH  20  23
ENDBRANCH   1  19
BRANCH   1  35
ATOM     34  C   UNL     1      48.352  10.020  13.189  0.00  0.00    +0.000 C 
ATOM     35  C   UNL     1      47.419   9.063  13.914  0.00  0.00    +0.000 C 
ENDBRANCH   1  35
TORSDOF 7
ENDMDL
MODEL 2
REMARK VINA RESULT:    -7.357      1.541      2.233
REMARK INTER + INTRA:         -11.639
REMARK INTER:                 -10.553
REMARK INTRA:                  -1.086
REMARK UNBOUND:                -1.271
REMARK  Name = 
REMARK  8 active torsions:
REMARK  status: ('A' for Active; 'I' for Inactive)
REMARK    1  A    between atoms: C_1  and  C_2
REMARK    2  A    between atoms: C_2  and  C_3
REMARK    3  A    between atoms: C_3  and  N_4
REMARK    4  A    between atoms: C_3  and  C_17
REMARK    5  A    between atoms: C_5  and  C_7
REMARK    6  A    between atoms: C_20  and  C_21
REMARK    7  A    between atoms: C_21  and  N_22
REMARK    8  A    between atoms: C_23  and  C_25
REMARK                            x       y       z     vdW  Elec       q    Type
REMARK                         _______ _______ _______ _____ _____    ______ ____
ROOT
ATOM      1  C   UNL     1      47.288   8.176  13.132  0.00  0.00    +0.000 C 
ENDROOT
BRANCH   1   2
ATOM      2  C   UNL     1      46.426   7.056  12.541  0.00  0.00    +0.000 A 
ATOM      3  C   UNL     1      46.766   5.708  12.739  0.00  0.00    +0.000 A 
ATOM      4  C   UNL     1      45.974   4.676  12.209  0.00  0.00    +0.000 A 
ATOM      5  C   UNL     1      44.824   4.962  11.464  0.00  0.00    +0.000 A 
ATOM      6  C   UNL     1      44.470   6.305  11.281  0.00  0.00    +0.000 A 
ATOM      7  C   UNL     1      45.260   7.336  11.808  0.00  0.00    +0.000 A 
BRANCH   5   8
ATOM      8  C   UNL     1      44.000   3.864  10.839  0.00  0.00    +0.000 C 
BRANCH   8   9
ATOM      9  N   UNL     1      44.765   2.943  10.039  0.00  0.00    +0.000 N 
ATOM     10  C   UNL     1      45.238   3.317   8.798  0.00  0.00    +0.000 C 
ATOM     11  O   UNL     1      45.023   4.416   8.302  0.00  0.00    +0.000 OA
ATOM     12  H   UNL     1      45.014   2.019  10.376  0.00  0.00    +0.000 HD
BRANCH  10  13
ATOM     13  C   UNL     1      46.025   2.281   8.124  0.00  0.00    +0.000 A 
ATOM     14  C   UNL     1      46.962   2.485   7.125  0.00  0.00    +0.000 A 
ATOM     15  N   UNL     1      47.435   1.243   6.801  0.00  0.00    +0.000 N 
ATOM     16  C   UNL     1      46.787   0.340   7.596  0.00  0.00    +0.000 A 
ATOM     17  N   UNL     1      45.932   0.924   8.405  0.00  0.00    +0.000 NA
ATOM     18  H   UNL     1      48.135   1.032   6.105  0.00  0.00    +0.000 HD
ENDBRANCH  10  13
ENDBRANCH   8   9
ENDBRANCH   5   8
ENDBRANCH   1   2
BRANCH   1  19
ATOM     19  N   UNL     1      47.522   7.893  14.544  0.00  0.00    +0.000 N 
ATOM     20  C   UNL     1      48.710   7.409  15.038  0.00  0.00    +0.000 C 
ATOM     21  O   UNL     1      49.710   7.251  14.345  0.00  0.00    +0.000 OA
ATOM     22  H   UNL     1      46.686   7.755  15.104  0.00  0.00    +0.000 HD
BRANCH  20  23
ATOM     23  C   UNL     1      48.743   7.116  16.474  0.00  0.00    +0.000 A 
ATOM     24  C   UNL     1      49.038   8.113  17.393  0.00  0.00    +0.000 A 
ATOM     25  S   UNL     1      49.102   7.555  19.005  0.00  0.00    +0.000 S 
ATOM     26  C   UNL     1      48.776   5.956  18.521  0.00  0.00    +0.000 A 
ATOM     27  N   UNL     1      48.765   4.933  19.418  0.00  0.00    +0.000 NA
ATOM     28  C   UNL     1      48.542   3.771  18.898  0.00  0.00    +0.000 A 
ATOM     29  N   UNL     1      48.302   3.542  17.570  0.00  0.00    +0.000 N 
ATOM     30  C   UNL     1      48.239   4.551  16.640  0.00  0.00    +0.000 A 
ATOM     31  O   UNL     1      47.909   4.330  15.481  0.00  0.00    +0.000 OA
ATOM     32  C   UNL     1      48.556   5.863  17.160  0.00  0.00    +0.000 A 
ATOM     33  H   UNL     1      48.087   2.615  17.226  0.00  0.00    +0.000 HD
ENDBRANCH  20  23
ENDBRANCH   1  19
BRANCH   1  35
ATOM     34  C   UNL     1      47.345  10.439  11.902  0.00  0.00    +0.000 C 
ATOM     35  C   UNL     1      46.662   9.576  12.950  0.00  0.00    +0.000 C 
ENDBRANCH   1  35
TORSDOF 7
ENDMDL
MODEL 3
REMARK VINA RESULT:    -7.169      3.625      8.387
REMARK INTER + INTRA:         -11.373
REMARK INTER:                 -10.032
REMARK INTRA:                  -1.341
REMARK UNBOUND:                -1.271
REMARK  Name = 
REMARK  8 active torsions:
REMARK  status: ('A' for Active; 'I' for Inactive)
REMARK    1  A    between atoms: C_1  and  C_2
REMARK    2  A    between atoms: C_2  and  C_3
REMARK    3  A    between atoms: C_3  and  N_4
REMARK    4  A    between atoms: C_3  and  C_17
REMARK    5  A    between atoms: C_5  and  C_7
REMARK    6  A    between atoms: C_20  and  C_21
REMARK    7  A    between atoms: C_21  and  N_22
REMARK    8  A    between atoms: C_23  and  C_25
REMARK                            x       y       z     vdW  Elec       q    Type
REMARK                         _______ _______ _______ _____ _____    ______ ____
ROOT
ATOM      1  C   UNL     1      47.930   8.046  12.528  0.00  0.00    +0.000 C 
ENDROOT
BRANCH   1   2
ATOM      2  C   UNL     1      48.328   7.531  13.914  0.00  0.00    +0.000 A 
ATOM      3  C   UNL     1      49.035   8.351  14.808  0.00  0.00    +0.000 A 
ATOM      4  C   UNL     1      49.395   7.890  16.086  0.00  0.00    +0.000 A 
ATOM      5  C   UNL     1      49.060   6.595  16.503  0.00  0.00    +0.000 A 
ATOM      6  C   UNL     1      48.339   5.781  15.621  0.00  0.00    +0.000 A 
ATOM      7  C   UNL     1      47.980   6.240  14.346  0.00  0.00    +0.000 A 
BRANCH   5   8
ATOM      8  C   UNL     1      49.493   6.067  17.848  0.00  0.00    +0.000 C 
BRANCH   8   9
ATOM      9  N   UNL     1      49.926   4.694  17.824  0.00  0.00    +0.000 N 
ATOM     10  C   UNL     1      51.249   4.379  17.588  0.00  0.00    +0.000 C 
ATOM     11  O   UNL     1      52.109   5.222  17.365  0.00  0.00    +0.000 OA
ATOM     12  H   UNL     1      49.291   3.928  18.022  0.00  0.00    +0.000 HD
BRANCH  10  13
ATOM     13  C   UNL     1      51.535   2.943  17.629  0.00  0.00    +0.000 A 
ATOM     14  C   UNL     1      50.636   1.921  17.375  0.00  0.00    +0.000 A 
ATOM     15  N   UNL     1      51.341   0.759  17.532  0.00  0.00    +0.000 N 
ATOM     16  C   UNL     1      52.620   1.101  17.868  0.00  0.00    +0.000 A 
ATOM     17  N   UNL     1      52.778   2.403  17.936  0.00  0.00    +0.000 NA
ATOM     18  H   UNL     1      50.983  -0.178  17.419  0.00  0.00    +0.000 HD
ENDBRANCH  10  13
ENDBRANCH   8   9
ENDBRANCH   5   8
ENDBRANCH   1   2
BRANCH   1  19
ATOM     19  N   UNL     1      47.324   6.951  11.777  0.00  0.00    +0.000 N 
ATOM     20  C   UNL     1      45.974   6.844  11.539  0.00  0.00    +0.000 C 
ATOM     21  O   UNL     1      45.165   7.706  11.866  0.00  0.00    +0.000 OA
ATOM     22  H   UNL     1      47.884   6.106  11.713  0.00  0.00    +0.000 HD
BRANCH  20  23
ATOM     23  C   UNL     1      45.536   5.641  10.826  0.00  0.00    +0.000 A 
ATOM     24  C   UNL     1      45.698   5.533   9.452  0.00  0.00    +0.000 A 
ATOM     25  S   UNL     1      45.055   4.091   8.802  0.00  0.00    +0.000 S 
ATOM     26  C   UNL     1      44.506   3.583  10.331  0.00  0.00    +0.000 A 
ATOM     27  N   UNL     1      43.786   2.438  10.481  0.00  0.00    +0.000 NA
ATOM     28  C   UNL     1      43.404   2.204  11.693  0.00  0.00    +0.000 A 
ATOM     29  N   UNL     1      43.699   2.992  12.772  0.00  0.00    +0.000 N 
ATOM     30  C   UNL     1      44.476   4.121  12.679  0.00  0.00    +0.000 A 
ATOM     31  O   UNL     1      44.820   4.743  13.677  0.00  0.00    +0.000 OA
ATOM     32  C   UNL     1      44.866   4.468  11.329  0.00  0.00    +0.000 A 
ATOM     33  H   UNL     1      43.413   2.734  13.707  0.00  0.00    +0.000 HD
ENDBRANCH  20  23
ENDBRANCH   1  19
BRANCH   1  35
ATOM     34  C   UNL     1      50.209   7.659  11.391  0.00  0.00    +0.000 C 
ATOM     35  C   UNL     1      49.116   8.654  11.749  0.00  0.00    +0.000 C 
ENDBRANCH   1  35
TORSDOF 7
ENDMDL
MODEL 4
REMARK VINA RESULT:    -7.093      2.756      4.692
REMARK INTER + INTRA:         -11.266
REMARK INTER:                  -9.868
REMARK INTRA:                  -1.398
REMARK UNBOUND:                -1.271
REMARK  Name = 
REMARK  8 active torsions:
REMARK  status: ('A' for Active; 'I' for Inactive)
REMARK    1  A    between atoms: C_1  and  C_2
REMARK    2  A    between atoms: C_2  and  C_3
REMARK    3  A    between atoms: C_3  and  N_4
REMARK    4  A    between atoms: C_3  and  C_17
REMARK    5  A    between atoms: C_5  and  C_7
REMARK    6  A    between atoms: C_20  and  C_21
REMARK    7  A    between atoms: C_21  and  N_22
REMARK    8  A    between atoms: C_23  and  C_25
REMARK                            x       y       z     vdW  Elec       q    Type
REMARK                         _______ _______ _______ _____ _____    ______ ____
ROOT
ATOM      1  C   UNL     1      47.148   5.143  15.043  0.00  0.00    +0.000 C 
ENDROOT
BRANCH   1   2
ATOM      2  C   UNL     1      46.295   4.843  13.808  0.00  0.00    +0.000 A 
ATOM      3  C   UNL     1      46.216   3.541  13.288  0.00  0.00    +0.000 A 
ATOM      4  C   UNL     1      45.426   3.257  12.162  0.00  0.00    +0.000 A 
ATOM      5  C   UNL     1      44.697   4.266  11.521  0.00  0.00    +0.000 A 
ATOM      6  C   UNL     1      44.758   5.563  12.048  0.00  0.00    +0.000 A 
ATOM      7  C   UNL     1      45.546   5.848  13.172  0.00  0.00    +0.000 A 
BRANCH   5   8
ATOM      8  C   UNL     1      43.895   3.986  10.276  0.00  0.00    +0.000 C 
BRANCH   8   9
ATOM      9  N   UNL     1      44.641   3.324   9.237  0.00  0.00    +0.000 N 
ATOM     10  C   UNL     1      45.567   4.020   8.486  0.00  0.00    +0.000 C 
ATOM     11  O   UNL     1      45.789   5.215   8.634  0.00  0.00    +0.000 OA
ATOM     12  H   UNL     1      44.544   2.330   9.056  0.00  0.00    +0.000 HD
BRANCH  10  13
ATOM     13  C   UNL     1      46.266   3.200   7.493  0.00  0.00    +0.000 A 
ATOM     14  C   UNL     1      46.630   1.872   7.638  0.00  0.00    +0.000 A 
ATOM     15  N   UNL     1      47.253   1.529   6.470  0.00  0.00    +0.000 N 
ATOM     16  C   UNL     1      47.250   2.633   5.666  0.00  0.00    +0.000 A 
ATOM     17  N   UNL     1      46.665   3.658   6.243  0.00  0.00    +0.000 NA
ATOM     18  H   UNL     1      47.643   0.626   6.243  0.00  0.00    +0.000 HD
ENDBRANCH  10  13
ENDBRANCH   8   9
ENDBRANCH   5   8
ENDBRANCH   1   2
BRANCH   1  19
ATOM     19  N   UNL     1      48.364   5.831  14.619  0.00  0.00    +0.000 N 
ATOM     20  C   UNL     1      48.948   6.853  15.328  0.00  0.00    +0.000 C 
ATOM     21  O   UNL     1      48.546   7.224  16.426  0.00  0.00    +0.000 OA
ATOM     22  H   UNL     1      48.583   5.755  13.630  0.00  0.00    +0.000 HD
BRANCH  20  23
ATOM     23  C   UNL     1      50.125   7.475  14.715  0.00  0.00    +0.000 A 
ATOM     24  C   UNL     1      51.346   7.482  15.375  0.00  0.00    +0.000 A 
ATOM     25  S   UNL     1      52.571   8.320  14.531  0.00  0.00    +0.000 S 
ATOM     26  C   UNL     1      51.498   8.733  13.275  0.00  0.00    +0.000 A 
ATOM     27  N   UNL     1      51.888   9.529  12.243  0.00  0.00    +0.000 NA
ATOM     28  C   UNL     1      50.954   9.788  11.388  0.00  0.00    +0.000 A 
ATOM     29  N   UNL     1      49.677   9.303  11.454  0.00  0.00    +0.000 N 
ATOM     30  C   UNL     1      49.257   8.445  12.442  0.00  0.00    +0.000 A 
ATOM     31  O   UNL     1      48.143   7.935  12.413  0.00  0.00    +0.000 OA
ATOM     32  C   UNL     1      50.245   8.183  13.466  0.00  0.00    +0.000 A 
ATOM     33  H   UNL     1      49.000   9.502  10.730  0.00  0.00    +0.000 HD
ENDBRANCH  20  23
ENDBRANCH   1  19
BRANCH   1  35
ATOM     34  C   UNL     1      47.184   3.981  17.342  0.00  0.00    +0.000 C 
ATOM     35  C   UNL     1      47.492   3.876  15.858  0.00  0.00    +0.000 C 
ENDBRANCH   1  35
TORSDOF 7
ENDMDL
MODEL 5
REMARK VINA RESULT:    -6.944      3.598      9.038
REMARK INTER + INTRA:         -11.056
REMARK INTER:                  -9.856
REMARK INTRA:                  -1.200
REMARK UNBOUND:                -1.271
REMARK  Name = 
REMARK  8 active torsions:
REMARK  status: ('A' for Active; 'I' for Inactive)
REMARK    1  A    between atoms: C_1  and  C_2
REMARK    2  A    between atoms: C_2  and  C_3
REMARK    3  A    between atoms: C_3  and  N_4
REMARK    4  A    between atoms: C_3  and  C_17
REMARK    5  A    between atoms: C_5  and  C_7
REMARK    6  A    between atoms: C_20  and  C_21
REMARK    7  A    between atoms: C_21  and  N_22
REMARK    8  A    between atoms: C_23  and  C_25
REMARK                            x       y       z     vdW  Elec       q    Type
REMARK                         _______ _______ _______ _____ _____    ______ ____
ROOT
ATOM      1  C   UNL     1      47.714   6.916  13.392  0.00  0.00    +0.000 C 
ENDROOT
BRANCH   1   2
ATOM      2  C   UNL     1      48.285   6.376  14.706  0.00  0.00    +0.000 A 
ATOM      3  C   UNL     1      47.712   5.256  15.330  0.00  0.00    +0.000 A 
ATOM      4  C   UNL     1      48.236   4.748  16.530  0.00  0.00    +0.000 A 
ATOM      5  C   UNL     1      49.345   5.348  17.141  0.00  0.00    +0.000 A 
ATOM      6  C   UNL     1      49.930   6.453  16.512  0.00  0.00    +0.000 A 
ATOM      7  C   UNL     1      49.407   6.962  15.315  0.00  0.00    +0.000 A 
BRANCH   5   8
ATOM      8  C   UNL     1      49.879   4.850  18.461  0.00  0.00    +0.000 C 
BRANCH   8   9
ATOM      9  N   UNL     1      50.563   3.585  18.374  0.00  0.00    +0.000 N 
ATOM     10  C   UNL     1      51.911   3.536  18.081  0.00  0.00    +0.000 C 
ATOM     11  O   UNL     1      52.586   4.533  17.858  0.00  0.00    +0.000 OA
ATOM     12  H   UNL     1      50.093   2.707  18.567  0.00  0.00    +0.000 HD
BRANCH  10  13
ATOM     13  C   UNL     1      52.466   2.180  18.062  0.00  0.00    +0.000 A 
ATOM     14  C   UNL     1      51.775   1.016  17.773  0.00  0.00    +0.000 A 
ATOM     15  N   UNL     1      52.690   0.005  17.877  0.00  0.00    +0.000 N 
ATOM     16  C   UNL     1      53.886   0.571  18.219  0.00  0.00    +0.000 A 
ATOM     17  N   UNL     1      53.794   1.876  18.339  0.00  0.00    +0.000 NA
ATOM     18  H   UNL     1      52.516  -0.978  17.728  0.00  0.00    +0.000 HD
ENDBRANCH  10  13
ENDBRANCH   8   9
ENDBRANCH   5   8
ENDBRANCH   1   2
BRANCH   1  19
ATOM     19  N   UNL     1      46.885   5.883  12.779  0.00  0.00    +0.000 N 
ATOM     20  C   UNL     1      45.607   6.101  12.322  0.00  0.00    +0.000 C 
ATOM     21  O   UNL     1      45.078   7.208  12.312  0.00  0.00    +0.000 OA
ATOM     22  H   UNL     1      47.155   4.927  12.993  0.00  0.00    +0.000 HD
BRANCH  20  23
ATOM     23  C   UNL     1      44.898   4.929  11.800  0.00  0.00    +0.000 A 
ATOM     24  C   UNL     1      44.096   4.159  12.631  0.00  0.00    +0.000 A 
ATOM     25  S   UNL     1      43.420   2.798  11.852  0.00  0.00    +0.000 S 
ATOM     26  C   UNL     1      44.208   3.175  10.391  0.00  0.00    +0.000 A 
ATOM     27  N   UNL     1      44.119   2.357   9.308  0.00  0.00    +0.000 NA
ATOM     28  C   UNL     1      44.802   2.752   8.284  0.00  0.00    +0.000 A 
ATOM     29  N   UNL     1      45.542   3.903   8.236  0.00  0.00    +0.000 N 
ATOM     30  C   UNL     1      45.609   4.790   9.282  0.00  0.00    +0.000 A 
ATOM     31  O   UNL     1      46.184   5.866   9.171  0.00  0.00    +0.000 OA
ATOM     32  C   UNL     1      44.920   4.355  10.479  0.00  0.00    +0.000 A 
ATOM     33  H   UNL     1      46.020   4.186   7.390  0.00  0.00    +0.000 HD
ENDBRANCH  20  23
ENDBRANCH   1  19
BRANCH   1  35
ATOM     34  C   UNL     1      48.527   8.738  11.761  0.00  0.00    +0.000 C 
ATOM     35  C   UNL     1      48.808   7.393  12.412  0.00  0.00    +0.000 C 
ENDBRANCH   1  35
TORSDOF 7
ENDMDL
MODEL 6
REMARK VINA RESULT:    -6.899      5.249      9.455
REMARK INTER + INTRA:         -10.993
REMARK INTER:                 -10.223
REMARK INTRA:                  -0.770
REMARK UNBOUND:                -1.271
REMARK  Name = 
REMARK  8 active torsions:
REMARK  status: ('A' for Active; 'I' for Inactive)
REMARK    1  A    between atoms: C_1  and  C_2
REMARK    2  A    between atoms: C_2  and  C_3
REMARK    3  A    between atoms: C_3  and  N_4
REMARK    4  A    between atoms: C_3  and  C_17
REMARK    5  A    between atoms: C_5  and  C_7
REMARK    6  A    between atoms: C_20  and  C_21
REMARK    7  A    between atoms: C_21  and  N_22
REMARK    8  A    between atoms: C_23  and  C_25
REMARK                            x       y       z     vdW  Elec       q    Type
REMARK                         _______ _______ _______ _____ _____    ______ ____
ROOT
ATOM      1  C   UNL     1      48.351   4.894  17.898  0.00  0.00    +0.000 C 
ENDROOT
BRANCH   1   2
ATOM      2  C   UNL     1      49.552   3.951  17.777  0.00  0.00    +0.000 A 
ATOM      3  C   UNL     1      50.824   4.350  18.217  0.00  0.00    +0.000 A 
ATOM      4  C   UNL     1      51.928   3.487  18.119  0.00  0.00    +0.000 A 
ATOM      5  C   UNL     1      51.792   2.204  17.575  0.00  0.00    +0.000 A 
ATOM      6  C   UNL     1      50.521   1.796  17.152  0.00  0.00    +0.000 A 
ATOM      7  C   UNL     1      49.418   2.656  17.249  0.00  0.00    +0.000 A 
BRANCH   5   8
ATOM      8  C   UNL     1      52.981   1.291  17.408  0.00  0.00    +0.000 C 
BRANCH   8   9
ATOM      9  N   UNL     1      52.927   0.106  18.225  0.00  0.00    +0.000 N 
ATOM     10  C   UNL     1      53.990  -0.773  18.257  0.00  0.00    +0.000 C 
ATOM     11  O   UNL     1      55.008  -0.619  17.593  0.00  0.00    +0.000 OA
ATOM     12  H   UNL     1      52.136  -0.095  18.829  0.00  0.00    +0.000 HD
BRANCH  10  13
ATOM     13  C   UNL     1      53.795  -1.911  19.160  0.00  0.00    +0.000 A 
ATOM     14  C   UNL     1      54.756  -2.837  19.529  0.00  0.00    +0.000 A 
ATOM     15  N   UNL     1      54.126  -3.708  20.375  0.00  0.00    +0.000 N 
ATOM     16  C   UNL     1      52.829  -3.295  20.493  0.00  0.00    +0.000 A 
ATOM     17  N   UNL     1      52.590  -2.219  19.779  0.00  0.00    +0.000 NA
ATOM     18  H   UNL     1      54.542  -4.507  20.829  0.00  0.00    +0.000 HD
ENDBRANCH  10  13
ENDBRANCH   8   9
ENDBRANCH   5   8
ENDBRANCH   1   2
BRANCH   1  19
ATOM     19  N   UNL     1      47.774   5.092  16.572  0.00  0.00    +0.000 N 
ATOM     20  C   UNL     1      48.394   5.797  15.567  0.00  0.00    +0.000 C 
ATOM     21  O   UNL     1      49.529   6.252  15.669  0.00  0.00    +0.000 OA
ATOM     22  H   UNL     1      46.767   4.975  16.515  0.00  0.00    +0.000 HD
BRANCH  20  23
ATOM     23  C   UNL     1      47.635   5.955  14.324  0.00  0.00    +0.000 A 
ATOM     24  C   UNL     1      47.477   7.206  13.745  0.00  0.00    +0.000 A 
ATOM     25  S   UNL     1      46.498   7.190  12.346  0.00  0.00    +0.000 S 
ATOM     26  C   UNL     1      46.224   5.516  12.491  0.00  0.00    +0.000 A 
ATOM     27  N   UNL     1      45.391   4.858  11.641  0.00  0.00    +0.000 NA
ATOM     28  C   UNL     1      45.251   3.600  11.899  0.00  0.00    +0.000 A 
ATOM     29  N   UNL     1      45.889   2.934  12.911  0.00  0.00    +0.000 N 
ATOM     30  C   UNL     1      46.788   3.542  13.752  0.00  0.00    +0.000 A 
ATOM     31  O   UNL     1      47.430   2.899  14.573  0.00  0.00    +0.000 OA
ATOM     32  C   UNL     1      46.923   4.969  13.551  0.00  0.00    +0.000 A 
ATOM     33  H   UNL     1      45.777   1.937  13.037  0.00  0.00    +0.000 HD
ENDBRANCH  20  23
ENDBRANCH   1  19
BRANCH   1  35
ATOM     34  C   UNL     1      47.540   6.972  19.187  0.00  0.00    +0.000 C 
ATOM     35  C   UNL     1      48.713   6.248  18.546  0.00  0.00    +0.000 C 
ENDBRANCH   1  35
TORSDOF 7
ENDMDL
MODEL 7
REMARK VINA RESULT:    -6.375      5.271      9.263
REMARK INTER + INTRA:         -10.255
REMARK INTER:                  -9.312
REMARK INTRA:                  -0.943
REMARK UNBOUND:                -1.271
REMARK  Name = 
REMARK  8 active torsions:
REMARK  status: ('A' for Active; 'I' for Inactive)
REMARK    1  A    between atoms: C_1  and  C_2
REMARK    2  A    between atoms: C_2  and  C_3
REMARK    3  A    between atoms: C_3  and  N_4
REMARK    4  A    between atoms: C_3  and  C_17
REMARK    5  A    between atoms: C_5  and  C_7
REMARK    6  A    between atoms: C_20  and  C_21
REMARK    7  A    between atoms: C_21  and  N_22
REMARK    8  A    between atoms: C_23  and  C_25
REMARK                            x       y       z     vdW  Elec       q    Type
REMARK                         _______ _______ _______ _____ _____    ______ ____
ROOT
ATOM      1  C   UNL     1      47.739   4.199  17.512  0.00  0.00    +0.000 C 
ENDROOT
BRANCH   1   2
ATOM      2  C   UNL     1      49.210   3.774  17.538  0.00  0.00    +0.000 A 
ATOM      3  C   UNL     1      50.220   4.702  17.840  0.00  0.00    +0.000 A 
ATOM      4  C   UNL     1      51.570   4.317  17.875  0.00  0.00    +0.000 A 
ATOM      5  C   UNL     1      51.949   2.996  17.606  0.00  0.00    +0.000 A 
ATOM      6  C   UNL     1      50.943   2.064  17.323  0.00  0.00    +0.000 A 
ATOM      7  C   UNL     1      49.595   2.447  17.287  0.00  0.00    +0.000 A 
BRANCH   5   8
ATOM      8  C   UNL     1      53.399   2.584  17.581  0.00  0.00    +0.000 C 
BRANCH   8   9
ATOM      9  N   UNL     1      53.601   1.162  17.477  0.00  0.00    +0.000 N 
ATOM     10  C   UNL     1      54.239   0.468  18.485  0.00  0.00    +0.000 C 
ATOM     11  O   UNL     1      54.682   1.005  19.492  0.00  0.00    +0.000 OA
ATOM     12  H   UNL     1      53.247   0.626  16.691  0.00  0.00    +0.000 HD
BRANCH  10  13
ATOM     13  C   UNL     1      54.337  -0.974  18.245  0.00  0.00    +0.000 A 
ATOM     14  C   UNL     1      53.754  -1.972  19.007  0.00  0.00    +0.000 A 
ATOM     15  N   UNL     1      54.115  -3.150  18.413  0.00  0.00    +0.000 N 
ATOM     16  C   UNL     1      54.891  -2.841  17.331  0.00  0.00    +0.000 A 
ATOM     17  N   UNL     1      55.047  -1.544  17.195  0.00  0.00    +0.000 NA
ATOM     18  H   UNL     1      53.857  -4.077  18.717  0.00  0.00    +0.000 HD
ENDBRANCH  10  13
ENDBRANCH   8   9
ENDBRANCH   5   8
ENDBRANCH   1   2
BRANCH   1  19
ATOM     19  N   UNL     1      47.500   4.992  16.310  0.00  0.00    +0.000 N 
ATOM     20  C   UNL     1      47.342   4.449  15.057  0.00  0.00    +0.000 C 
ATOM     21  O   UNL     1      47.306   3.241  14.849  0.00  0.00    +0.000 OA
ATOM     22  H   UNL     1      47.774   5.968  16.372  0.00  0.00    +0.000 HD
BRANCH  20  23
ATOM     23  C   UNL     1      47.181   5.401  13.955  0.00  0.00    +0.000 A 
ATOM     24  C   UNL     1      48.185   6.310  13.651  0.00  0.00    +0.000 A 
ATOM     25  S   UNL     1      47.773   7.381  12.387  0.00  0.00    +0.000 S 
ATOM     26  C   UNL     1      46.226   6.689  12.231  0.00  0.00    +0.000 A 
ATOM     27  N   UNL     1      45.309   7.192  11.362  0.00  0.00    +0.000 NA
ATOM     28  C   UNL     1      44.166   6.588  11.383  0.00  0.00    +0.000 A 
ATOM     29  N   UNL     1      43.866   5.511  12.173  0.00  0.00    +0.000 N 
ATOM     30  C   UNL     1      44.780   4.930  13.017  0.00  0.00    +0.000 A 
ATOM     31  O   UNL     1      44.521   3.898  13.625  0.00  0.00    +0.000 OA
ATOM     32  C   UNL     1      46.053   5.616  13.084  0.00  0.00    +0.000 A 
ATOM     33  H   UNL     1      42.969   5.049  12.113  0.00  0.00    +0.000 HD
ENDBRANCH  20  23
ENDBRANCH   1  19
BRANCH   1  35
ATOM     34  C   UNL     1      47.324   6.491  18.613  0.00  0.00    +0.000 C 
ATOM     35  C   UNL     1      47.317   4.980  18.776  0.00  0.00    +0.000 C 
ENDBRANCH   1  35
TORSDOF 7
ENDMDL
MODEL 8
REMARK VINA RESULT:    -6.297      3.111      4.432
REMARK INTER + INTRA:         -10.145
REMARK INTER:                  -9.626
REMARK INTRA:                  -0.519
REMARK UNBOUND:                -1.271
REMARK  Name = 
REMARK  8 active torsions:
REMARK  status: ('A' for Active; 'I' for Inactive)
REMARK    1  A    between atoms: C_1  and  C_2
REMARK    2  A    between atoms: C_2  and  C_3
REMARK    3  A    between atoms: C_3  and  N_4
REMARK    4  A    between atoms: C_3  and  C_17
REMARK    5  A    between atoms: C_5  and  C_7
REMARK    6  A    between atoms: C_20  and  C_21
REMARK    7  A    between atoms: C_21  and  N_22
REMARK    8  A    between atoms: C_23  and  C_25
REMARK                            x       y       z     vdW  Elec       q    Type
REMARK                         _______ _______ _______ _____ _____    ______ ____
ROOT
ATOM      1  C   UNL     1      46.750   5.577  14.734  0.00  0.00    +0.000 C 
ENDROOT
BRANCH   1   2
ATOM      2  C   UNL     1      46.078   5.198  13.411  0.00  0.00    +0.000 A 
ATOM      3  C   UNL     1      45.927   3.851  13.043  0.00  0.00    +0.000 A 
ATOM      4  C   UNL     1      45.303   3.495  11.836  0.00  0.00    +0.000 A 
ATOM      5  C   UNL     1      44.817   4.475  10.962  0.00  0.00    +0.000 A 
ATOM      6  C   UNL     1      44.949   5.819  11.333  0.00  0.00    +0.000 A 
ATOM      7  C   UNL     1      45.572   6.175  12.538  0.00  0.00    +0.000 A 
BRANCH   5   8
ATOM      8  C   UNL     1      44.200   4.108   9.635  0.00  0.00    +0.000 C 
BRANCH   8   9
ATOM      9  N   UNL     1      45.162   3.847   8.596  0.00  0.00    +0.000 N 
ATOM     10  C   UNL     1      45.579   2.558   8.333  0.00  0.00    +0.000 C 
ATOM     11  O   UNL     1      45.188   1.585   8.965  0.00  0.00    +0.000 OA
ATOM     12  H   UNL     1      45.525   4.587   8.002  0.00  0.00    +0.000 HD
BRANCH  10  13
ATOM     13  C   UNL     1      46.534   2.455   7.226  0.00  0.00    +0.000 A 
ATOM     14  C   UNL     1      47.595   1.570   7.139  0.00  0.00    +0.000 A 
ATOM     15  N   UNL     1      48.203   1.836   5.944  0.00  0.00    +0.000 N 
ATOM     16  C   UNL     1      47.510   2.853   5.351  0.00  0.00    +0.000 A 
ATOM     17  N   UNL     1      46.500   3.253   6.089  0.00  0.00    +0.000 NA
ATOM     18  H   UNL     1      49.015   1.368   5.568  0.00  0.00    +0.000 HD
ENDBRANCH  10  13
ENDBRANCH   8   9
ENDBRANCH   5   8
ENDBRANCH   1   2
BRANCH   1  19
ATOM     19  N   UNL     1      47.588   6.751  14.516  0.00  0.00    +0.000 N 
ATOM     20  C   UNL     1      48.631   6.789  13.621  0.00  0.00    +0.000 C 
ATOM     21  O   UNL     1      48.898   5.862  12.863  0.00  0.00    +0.000 OA
ATOM     22  H   UNL     1      47.588   7.431  15.271  0.00  0.00    +0.000 HD
BRANCH  20  23
ATOM     23  C   UNL     1      49.410   8.030  13.586  0.00  0.00    +0.000 A 
ATOM     24  C   UNL     1      49.048   9.068  12.739  0.00  0.00    +0.000 A 
ATOM     25  S   UNL     1      50.124  10.393  12.790  0.00  0.00    +0.000 S 
ATOM     26  C   UNL     1      51.127   9.605  13.917  0.00  0.00    +0.000 A 
ATOM     27  N   UNL     1      52.293  10.164  14.340  0.00  0.00    +0.000 NA
ATOM     28  C   UNL     1      52.967   9.431  15.164  0.00  0.00    +0.000 A 
ATOM     29  N   UNL     1      52.569   8.206  15.626  0.00  0.00    +0.000 N 
ATOM     30  C   UNL     1      51.370   7.632  15.277  0.00  0.00    +0.000 A 
ATOM     31  O   UNL     1      50.988   6.590  15.795  0.00  0.00    +0.000 OA
ATOM     32  C   UNL     1      50.613   8.380  14.297  0.00  0.00    +0.000 A 
ATOM     33  H   UNL     1      53.116   7.697  16.308  0.00  0.00    +0.000 HD
ENDBRANCH  20  23
ENDBRANCH   1  19
BRANCH   1  35
ATOM     34  C   UNL     1      47.114   3.982  16.724  0.00  0.00    +0.000 C 
ATOM     35  C   UNL     1      47.573   4.422  15.343  0.00  0.00    +0.000 C 
ENDBRANCH   1  35
TORSDOF 7
ENDMDL
MODEL 9
REMARK VINA RESULT:    -6.192      5.165      9.042
REMARK INTER + INTRA:          -9.997
REMARK INTER:                  -8.740
REMARK INTRA:                  -1.256
REMARK UNBOUND:                -1.271
REMARK  Name = 
REMARK  8 active torsions:
REMARK  status: ('A' for Active; 'I' for Inactive)
REMARK    1  A    between atoms: C_1  and  C_2
REMARK    2  A    between atoms: C_2  and  C_3
REMARK    3  A    between atoms: C_3  and  N_4
REMARK    4  A    between atoms: C_3  and  C_17
REMARK    5  A    between atoms: C_5  and  C_7
REMARK    6  A    between atoms: C_20  and  C_21
REMARK    7  A    between atoms: C_21  and  N_22
REMARK    8  A    between atoms: C_23  and  C_25
REMARK                            x       y       z     vdW  Elec       q    Type
REMARK                         _______ _______ _______ _____ _____    ______ ____
ROOT
ATOM      1  C   UNL     1      47.793   4.339  17.559  0.00  0.00    +0.000 C 
ENDROOT
BRANCH   1   2
ATOM      2  C   UNL     1      49.262   3.913  17.627  0.00  0.00    +0.000 A 
ATOM      3  C   UNL     1      50.257   4.828  18.010  0.00  0.00    +0.000 A 
ATOM      4  C   UNL     1      51.606   4.442  18.085  0.00  0.00    +0.000 A 
ATOM      5  C   UNL     1      51.998   3.133  17.777  0.00  0.00    +0.000 A 
ATOM      6  C   UNL     1      51.006   2.213  17.413  0.00  0.00    +0.000 A 
ATOM      7  C   UNL     1      49.660   2.597  17.337  0.00  0.00    +0.000 A 
BRANCH   5   8
ATOM      8  C   UNL     1      53.449   2.723  17.795  0.00  0.00    +0.000 C 
BRANCH   8   9
ATOM      9  N   UNL     1      53.660   1.314  17.586  0.00  0.00    +0.000 N 
ATOM     10  C   UNL     1      54.249   0.540  18.565  0.00  0.00    +0.000 C 
ATOM     11  O   UNL     1      54.639   0.993  19.634  0.00  0.00    +0.000 OA
ATOM     12  H   UNL     1      53.347   0.843  16.742  0.00  0.00    +0.000 HD
BRANCH  10  13
ATOM     13  C   UNL     1      54.364  -0.879  18.214  0.00  0.00    +0.000 A 
ATOM     14  C   UNL     1      53.850  -1.944  18.934  0.00  0.00    +0.000 A 
ATOM     15  N   UNL     1      54.200  -3.066  18.234  0.00  0.00    +0.000 N 
ATOM     16  C   UNL     1      54.900  -2.660  17.134  0.00  0.00    +0.000 A 
ATOM     17  N   UNL     1      55.020  -1.353  17.085  0.00  0.00    +0.000 NA
ATOM     18  H   UNL     1      53.981  -4.019  18.484  0.00  0.00    +0.000 HD
ENDBRANCH  10  13
ENDBRANCH   8   9
ENDBRANCH   5   8
ENDBRANCH   1   2
BRANCH   1  19
ATOM     19  N   UNL     1      47.581   5.100  16.332  0.00  0.00    +0.000 N 
ATOM     20  C   UNL     1      47.375   4.522  15.101  0.00  0.00    +0.000 C 
ATOM     21  O   UNL     1      47.267   3.311  14.939  0.00  0.00    +0.000 OA
ATOM     22  H   UNL     1      47.911   6.060  16.354  0.00  0.00    +0.000 HD
BRANCH  20  23
ATOM     23  C   UNL     1      47.251   5.441  13.967  0.00  0.00    +0.000 A 
ATOM     24  C   UNL     1      46.168   5.357  13.103  0.00  0.00    +0.000 A 
ATOM     25  S   UNL     1      46.247   6.462  11.804  0.00  0.00    +0.000 S 
ATOM     26  C   UNL     1      47.748   7.062  12.335  0.00  0.00    +0.000 A 
ATOM     27  N   UNL     1      48.430   7.998  11.620  0.00  0.00    +0.000 NA
ATOM     28  C   UNL     1      49.573   8.327  12.127  0.00  0.00    +0.000 A 
ATOM     29  N   UNL     1      50.083   7.828  13.294  0.00  0.00    +0.000 N 
ATOM     30  C   UNL     1      49.402   6.931  14.081  0.00  0.00    +0.000 A 
ATOM     31  O   UNL     1      49.831   6.590  15.177  0.00  0.00    +0.000 OA
ATOM     32  C   UNL     1      48.149   6.475  13.519  0.00  0.00    +0.000 A 
ATOM     33  H   UNL     1      50.964   8.158  13.667  0.00  0.00    +0.000 HD
ENDBRANCH  20  23
ENDBRANCH   1  19
BRANCH   1  35
ATOM     34  C   UNL     1      47.463   6.660  18.627  0.00  0.00    +0.000 C 
ATOM     35  C   UNL     1      47.345   5.153  18.792  0.00  0.00    +0.000 C 
ENDBRANCH   1  35
TORSDOF 7
ENDMDL
