MODEL 1
REMARK VINA RESULT:    -9.231      0.000      0.000
REMARK INTER + INTRA:         -13.639
REMARK INTER:                 -12.738
REMARK INTRA:                  -0.901
REMARK UNBOUND:                -0.901
REMARK  Name = 
REMARK  7 active torsions:
REMARK  status: ('A' for Active; 'I' for Inactive)
REMARK    1  A    between atoms: N_1  and  C_2
REMARK    2  A    between atoms: C_2  and  C_3
REMARK    3  A    between atoms: N_7  and  C_8
REMARK    4  A    between atoms: C_8  and  C_9
REMARK    5  A    between atoms: C_12  and  C_13
REMARK    6  A    between atoms: C_13  and  N_14
REMARK    7  A    between atoms: C_15  and  C_17
REMARK                            x       y       z     vdW  Elec       q    Type
REMARK                         _______ _______ _______ _____ _____    ______ ____
ROOT
ATOM      1  C   UNL     1      44.743   5.184  11.757  0.00  0.00    +0.000 A 
ATOM      2  C   UNL     1      45.390   6.365  11.367  0.00  0.00    +0.000 A 
ATOM      3  C   UNL     1      46.536   6.808  12.037  0.00  0.00    +0.000 A 
ATOM      4  C   UNL     1      47.071   6.066  13.097  0.00  0.00    +0.000 A 
ATOM      5  C   UNL     1      46.416   4.891  13.494  0.00  0.00    +0.000 A 
ATOM      6  C   UNL     1      45.271   4.448  12.824  0.00  0.00    +0.000 A 
ENDROOT
BRANCH   1   7
ATOM      7  C   UNL     1      43.515   4.706  11.015  0.00  0.00    +0.000 C 
BRANCH   7  12
ATOM      8  C   UNL     1      46.382   2.165   7.670  0.00  0.00    +0.000 A 
ATOM      9  C   UNL     1      45.615   1.686   8.728  0.00  0.00    +0.000 A 
ATOM     10  C   UNL     1      44.740   2.541   9.400  0.00  0.00    +0.000 A 
ATOM     11  C   UNL     1      44.653   3.873   9.017  0.00  0.00    +0.000 A 
ATOM     12  N   UNL     1      43.751   4.763   9.586  0.00  0.00    +0.000 N 
ATOM     13  N   UNL     1      45.396   4.362   8.006  0.00  0.00    +0.000 NA
ATOM     14  C   UNL     1      46.232   3.510   7.357  0.00  0.00    +0.000 A 
ATOM     15  H   UNL     1      43.951   5.689   9.219  0.00  0.00    +0.000 HD
BRANCH   8  16
ATOM     16  C   UNL     1      47.330   1.279   6.916  0.00  0.00    +0.000 C 
BRANCH  16  17
ATOM     17  N   UNL     1      48.518   2.007   6.480  0.00  0.00    +0.000 NA
ATOM     18  H   UNL     1      49.286   1.809   7.119  0.00  0.00    +0.000 HD
ATOM     19  H   UNL     1      48.339   3.009   6.550  0.00  0.00    +0.000 HD
ENDBRANCH  16  17
ENDBRANCH   8  16
ENDBRANCH   7  12
ENDBRANCH   1   7
BRANCH   4  20
ATOM     20  C   UNL     1      48.311   6.524  13.823  0.00  0.00    +0.000 C 
BRANCH  20  21
ATOM     21  N   UNL     1      48.053   6.725  15.226  0.00  0.00    +0.000 N 
ATOM     22  C   UNL     1      49.034   6.549  16.168  0.00  0.00    +0.000 C 
ATOM     23  O   UNL     1      50.184   6.242  15.865  0.00  0.00    +0.000 OA
ATOM     24  H   UNL     1      47.081   6.720  15.518  0.00  0.00    +0.000 HD
BRANCH  22  25
ATOM     25  C   UNL     1      48.653   6.812  17.561  0.00  0.00    +0.000 A 
ATOM     26  C   UNL     1      48.296   8.097  17.949  0.00  0.00    +0.000 A 
ATOM     27  S   UNL     1      47.835   8.214  19.588  0.00  0.00    +0.000 S 
ATOM     28  C   UNL     1      48.144   6.560  19.849  0.00  0.00    +0.000 A 
ATOM     29  N   UNL     1      47.977   6.002  21.077  0.00  0.00    +0.000 NA
ATOM     30  C   UNL     1      48.274   4.748  21.139  0.00  0.00    +0.000 A 
ATOM     31  N   UNL     1      48.717   3.997  20.080  0.00  0.00    +0.000 N 
ATOM     32  C   UNL     1      48.870   4.510  18.815  0.00  0.00    +0.000 A 
ATOM     33  O   UNL     1      49.219   3.799  17.879  0.00  0.00    +0.000 OA
ATOM     34  C   UNL     1      48.569   5.924  18.696  0.00  0.00    +0.000 A 
ATOM     35  H   UNL     1      48.920   3.015  20.191  0.00  0.00    +0.000 HD
ENDBRANCH  22  25
ENDBRANCH  20  21
ENDBRANCH   4  20
TORSDOF 7
ENDMDL
MODEL 2
REMARK VINA RESULT:    -9.058      1.355      2.271
REMARK INTER + INTRA:         -13.400
REMARK INTER:                 -12.312
REMARK INTRA:                  -1.088
REMARK UNBOUND:                -0.901
REMARK  Name = 
REMARK  7 active torsions:
REMARK  status: ('A' for Active; 'I' for Inactive)
REMARK    1  A    between atoms: N_1  and  C_2
REMARK    2  A    between atoms: C_2  and  C_3
REMARK    3  A    between atoms: N_7  and  C_8
REMARK    4  A    between atoms: C_8  and  C_9
REMARK    5  A    between atoms: C_12  and  C_13
REMARK    6  A    between atoms: C_13  and  N_14
REMARK    7  A    between atoms: C_15  and  C_17
REMARK                            x       y       z     vdW  Elec       q    Type
REMARK                         _______ _______ _______ _____ _____    ______ ____
ROOT
ATOM      1  C   UNL     1      44.780   5.211  11.741  0.00  0.00    +0.000 A 
ATOM      2  C   UNL     1      45.251   4.506  12.857  0.00  0.00    +0.000 A 
ATOM      3  C   UNL     1      46.365   4.961  13.573  0.00  0.00    +0.000 A 
ATOM      4  C   UNL     1      47.017   6.142  13.197  0.00  0.00    +0.000 A 
ATOM      5  C   UNL     1      46.552   6.839  12.073  0.00  0.00    +0.000 A 
ATOM      6  C   UNL     1      45.439   6.386  11.359  0.00  0.00    +0.000 A 
ENDROOT
BRANCH   1   7
ATOM      7  C   UNL     1      43.565   4.720  10.986  0.00  0.00    +0.000 C 
BRANCH   7  12
ATOM      8  C   UNL     1      46.431   2.124   7.683  0.00  0.00    +0.000 A 
ATOM      9  C   UNL     1      45.644   1.660   8.733  0.00  0.00    +0.000 A 
ATOM     10  C   UNL     1      44.774   2.531   9.392  0.00  0.00    +0.000 A 
ATOM     11  C   UNL     1      44.713   3.863   9.004  0.00  0.00    +0.000 A 
ATOM     12  N   UNL     1      43.820   4.770   9.560  0.00  0.00    +0.000 N 
ATOM     13  N   UNL     1      45.477   4.338   8.001  0.00  0.00    +0.000 NA
ATOM     14  C   UNL     1      46.307   3.471   7.365  0.00  0.00    +0.000 A 
ATOM     15  H   UNL     1      44.039   5.691   9.193  0.00  0.00    +0.000 HD
BRANCH   8  16
ATOM     16  C   UNL     1      47.373   1.221   6.944  0.00  0.00    +0.000 C 
BRANCH  16  17
ATOM     17  N   UNL     1      48.551   1.942   6.467  0.00  0.00    +0.000 NA
ATOM     18  H   UNL     1      49.385   1.537   6.888  0.00  0.00    +0.000 HD
ATOM     19  H   UNL     1      48.504   2.907   6.794  0.00  0.00    +0.000 HD
ENDBRANCH  16  17
ENDBRANCH   8  16
ENDBRANCH   7  12
ENDBRANCH   1   7
BRANCH   4  20
ATOM     20  C   UNL     1      48.213   6.650  13.963  0.00  0.00    +0.000 C 
BRANCH  20  21
ATOM     21  N   UNL     1      47.977   6.621  15.384  0.00  0.00    +0.000 N 
ATOM     22  C   UNL     1      48.989   6.369  16.274  0.00  0.00    +0.000 C 
ATOM     23  O   UNL     1      50.148   6.186  15.912  0.00  0.00    +0.000 OA
ATOM     24  H   UNL     1      47.014   6.509  15.685  0.00  0.00    +0.000 HD
BRANCH  22  25
ATOM     25  C   UNL     1      48.625   6.395  17.696  0.00  0.00    +0.000 A 
ATOM     26  C   UNL     1      48.726   5.237  18.456  0.00  0.00    +0.000 A 
ATOM     27  S   UNL     1      48.311   5.457  20.097  0.00  0.00    +0.000 S 
ATOM     28  C   UNL     1      47.932   7.096  19.838  0.00  0.00    +0.000 A 
ATOM     29  N   UNL     1      47.474   7.877  20.851  0.00  0.00    +0.000 NA
ATOM     30  C   UNL     1      47.200   9.091  20.508  0.00  0.00    +0.000 A 
ATOM     31  N   UNL     1      47.350   9.597  19.243  0.00  0.00    +0.000 N 
ATOM     32  C   UNL     1      47.840   8.855  18.196  0.00  0.00    +0.000 A 
ATOM     33  O   UNL     1      48.010   9.354  17.089  0.00  0.00    +0.000 OA
ATOM     34  C   UNL     1      48.144   7.476  18.524  0.00  0.00    +0.000 A 
ATOM     35  H   UNL     1      47.130  10.562  19.042  0.00  0.00    +0.000 HD
ENDBRANCH  22  25
ENDBRANCH  20  21
ENDBRANCH   4  20
TORSDOF 7
ENDMDL
MODEL 3
REMARK VINA RESULT:    -8.709      2.204      2.295
REMARK INTER + INTRA:         -12.919
REMARK INTER:                 -11.741
REMARK INTRA:                  -1.178
REMARK UNBOUND:                -0.901
REMARK  Name = 
REMARK  7 active torsions:
REMARK  status: ('A' for Active; 'I' for Inactive)
REMARK    1  A    between atoms: N_1  and  C_2
REMARK    2  A    between atoms: C_2  and  C_3
REMARK    3  A    between atoms: N_7  and  C_8
REMARK    4  A    between atoms: C_8  and  C_9
REMARK    5  A    between atoms: C_12  and  C_13
REMARK    6  A    between atoms: C_13  and  N_14
REMARK    7  A    between atoms: C_15  and  C_17
REMARK                            x       y       z     vdW  Elec       q    Type
REMARK                         _______ _______ _______ _____ _____    ______ ____
ROOT
ATOM      1  C   UNL     1      44.619   5.837  11.666  0.00  0.00    +0.000 A 
ATOM      2  C   UNL     1      44.638   7.236  11.572  0.00  0.00    +0.000 A 
ATOM      3  C   UNL     1      45.631   7.983  12.217  0.00  0.00    +0.000 A 
ATOM      4  C   UNL     1      46.637   7.343  12.951  0.00  0.00    +0.000 A 
ATOM      5  C   UNL     1      46.611   5.945  13.053  0.00  0.00    +0.000 A 
ATOM      6  C   UNL     1      45.619   5.198  12.409  0.00  0.00    +0.000 A 
ENDROOT
BRANCH   1   7
ATOM      7  C   UNL     1      43.552   5.039  10.951  0.00  0.00    +0.000 C 
BRANCH   7  12
ATOM      8  C   UNL     1      46.278   2.069   7.850  0.00  0.00    +0.000 A 
ATOM      9  C   UNL     1      45.436   1.720   8.902  0.00  0.00    +0.000 A 
ATOM     10  C   UNL     1      44.622   2.687   9.496  0.00  0.00    +0.000 A 
ATOM     11  C   UNL     1      44.672   3.998   9.042  0.00  0.00    +0.000 A 
ATOM     12  N   UNL     1      43.839   4.996   9.531  0.00  0.00    +0.000 N 
ATOM     13  N   UNL     1      45.489   4.362   8.036  0.00  0.00    +0.000 NA
ATOM     14  C   UNL     1      46.264   3.404   7.464  0.00  0.00    +0.000 A 
ATOM     15  H   UNL     1      44.136   5.879   9.125  0.00  0.00    +0.000 HD
BRANCH   8  16
ATOM     16  C   UNL     1      47.163   1.062   7.179  0.00  0.00    +0.000 C 
BRANCH  16  17
ATOM     17  N   UNL     1      46.919  -0.289   7.677  0.00  0.00    +0.000 NA
ATOM     18  H   UNL     1      47.523  -0.466   8.477  0.00  0.00    +0.000 HD
ATOM     19  H   UNL     1      47.191  -0.962   6.960  0.00  0.00    +0.000 HD
ENDBRANCH  16  17
ENDBRANCH   8  16
ENDBRANCH   7  12
ENDBRANCH   1   7
BRANCH   4  20
ATOM     20  C   UNL     1      47.720   8.133  13.643  0.00  0.00    +0.000 C 
BRANCH  20  21
ATOM     21  N   UNL     1      48.597   7.273  14.395  0.00  0.00    +0.000 N 
ATOM     22  C   UNL     1      48.882   7.515  15.714  0.00  0.00    +0.000 C 
ATOM     23  O   UNL     1      48.384   8.455  16.329  0.00  0.00    +0.000 OA
ATOM     24  H   UNL     1      49.210   6.665  13.860  0.00  0.00    +0.000 HD
BRANCH  22  25
ATOM     25  C   UNL     1      49.768   6.549  16.376  0.00  0.00    +0.000 A 
ATOM     26  C   UNL     1      51.073   6.909  16.688  0.00  0.00    +0.000 A 
ATOM     27  S   UNL     1      51.945   5.686  17.497  0.00  0.00    +0.000 S 
ATOM     28  C   UNL     1      50.626   4.614  17.412  0.00  0.00    +0.000 A 
ATOM     29  N   UNL     1      50.718   3.351  17.907  0.00  0.00    +0.000 NA
ATOM     30  C   UNL     1      49.654   2.638  17.752  0.00  0.00    +0.000 A 
ATOM     31  N   UNL     1      48.501   3.076  17.153  0.00  0.00    +0.000 N 
ATOM     32  C   UNL     1      48.351   4.353  16.668  0.00  0.00    +0.000 A 
ATOM     33  O   UNL     1      47.289   4.728  16.184  0.00  0.00    +0.000 OA
ATOM     34  C   UNL     1      49.528   5.190  16.799  0.00  0.00    +0.000 A 
ATOM     35  H   UNL     1      47.697   2.471  17.073  0.00  0.00    +0.000 HD
ENDBRANCH  22  25
ENDBRANCH  20  21
ENDBRANCH   4  20
TORSDOF 7
ENDMDL
MODEL 4
REMARK VINA RESULT:    -8.205      1.961      2.710
REMARK INTER + INTRA:         -12.223
REMARK INTER:                 -11.512
REMARK INTRA:                  -0.711
REMARK UNBOUND:                -0.901
REMARK  Name = 
REMARK  7 active torsions:
REMARK  status: ('A' for Active; 'I' for Inactive)
REMARK    1  A    between atoms: N_1  and  C_2
REMARK    2  A    between atoms: C_2  and  C_3
REMARK    3  A    between atoms: N_7  and  C_8
REMARK    4  A    between atoms: C_8  and  C_9
REMARK    5  A    between atoms: C_12  and  C_13
REMARK    6  A    between atoms: C_13  and  N_14
REMARK    7  A    between atoms: C_15  and  C_17
REMARK                            x       y       z     vdW  Elec       q    Type
REMARK                         _______ _______ _______ _____ _____    ______ ____
ROOT
ATOM      1  C   UNL     1      44.249   4.822  11.448  0.00  0.00    +0.000 A 
ATOM      2  C   UNL     1      45.377   4.916  12.276  0.00  0.00    +0.000 A 
ATOM      3  C   UNL     1      45.879   6.164  12.662  0.00  0.00    +0.000 A 
ATOM      4  C   UNL     1      45.250   7.343  12.245  0.00  0.00    +0.000 A 
ATOM      5  C   UNL     1      44.130   7.248  11.408  0.00  0.00    +0.000 A 
ATOM      6  C   UNL     1      43.627   6.002  11.022  0.00  0.00    +0.000 A 
ENDROOT
BRANCH   1   7
ATOM      7  C   UNL     1      43.704   3.468  11.051  0.00  0.00    +0.000 C 
BRANCH   7  12
ATOM      8  C   UNL     1      46.606   2.698   6.946  0.00  0.00    +0.000 A 
ATOM      9  C   UNL     1      46.185   3.891   7.525  0.00  0.00    +0.000 A 
ATOM     10  C   UNL     1      45.558   3.879   8.773  0.00  0.00    +0.000 A 
ATOM     11  C   UNL     1      45.344   2.670   9.422  0.00  0.00    +0.000 A 
ATOM     12  N   UNL     1      44.797   2.585  10.695  0.00  0.00    +0.000 N 
ATOM     13  N   UNL     1      45.729   1.501   8.873  0.00  0.00    +0.000 NA
ATOM     14  C   UNL     1      46.348   1.537   7.664  0.00  0.00    +0.000 A 
ATOM     15  H   UNL     1      44.643   1.603  10.906  0.00  0.00    +0.000 HD
BRANCH   8  16
ATOM     16  C   UNL     1      47.289   2.665   5.611  0.00  0.00    +0.000 C 
BRANCH  16  17
ATOM     17  N   UNL     1      48.490   1.834   5.638  0.00  0.00    +0.000 NA
ATOM     18  H   UNL     1      49.310   2.425   5.517  0.00  0.00    +0.000 HD
ATOM     19  H   UNL     1      48.473   1.200   4.839  0.00  0.00    +0.000 HD
ENDBRANCH  16  17
ENDBRANCH   8  16
ENDBRANCH   7  12
ENDBRANCH   1   7
BRANCH   4  20
ATOM     20  C   UNL     1      45.773   8.695  12.660  0.00  0.00    +0.000 C 
BRANCH  20  21
ATOM     21  N   UNL     1      46.447   8.629  13.932  0.00  0.00    +0.000 N 
ATOM     22  C   UNL     1      47.812   8.714  14.026  0.00  0.00    +0.000 C 
ATOM     23  O   UNL     1      48.526   8.881  13.040  0.00  0.00    +0.000 OA
ATOM     24  H   UNL     1      45.921   8.239  14.708  0.00  0.00    +0.000 HD
BRANCH  22  25
ATOM     25  C   UNL     1      48.375   8.661  15.381  0.00  0.00    +0.000 A 
ATOM     26  C   UNL     1      48.629   9.839  16.071  0.00  0.00    +0.000 A 
ATOM     27  S   UNL     1      49.235   9.593  17.646  0.00  0.00    +0.000 S 
ATOM     28  C   UNL     1      49.228   7.903  17.444  0.00  0.00    +0.000 A 
ATOM     29  N   UNL     1      49.666   7.078  18.431  0.00  0.00    +0.000 NA
ATOM     30  C   UNL     1      49.631   5.823  18.133  0.00  0.00    +0.000 A 
ATOM     31  N   UNL     1      49.190   5.316  16.937  0.00  0.00    +0.000 N 
ATOM     32  C   UNL     1      48.708   6.109  15.923  0.00  0.00    +0.000 A 
ATOM     33  O   UNL     1      48.274   5.620  14.886  0.00  0.00    +0.000 OA
ATOM     34  C   UNL     1      48.745   7.532  16.201  0.00  0.00    +0.000 A 
ATOM     35  H   UNL     1      49.176   4.321  16.770  0.00  0.00    +0.000 HD
ENDBRANCH  22  25
ENDBRANCH  20  21
ENDBRANCH   4  20
TORSDOF 7
ENDMDL
MODEL 5
REMARK VINA RESULT:    -7.802      2.400      2.990
REMARK INTER + INTRA:         -11.667
REMARK INTER:                 -10.767
REMARK INTRA:                  -0.900
REMARK UNBOUND:                -0.901
REMARK  Name = 
REMARK  7 active torsions:
REMARK  status: ('A' for Active; 'I' for Inactive)
REMARK    1  A    between atoms: N_1  and  C_2
REMARK    2  A    between atoms: C_2  and  C_3
REMARK    3  A    between atoms: N_7  and  C_8
REMARK    4  A    between atoms: C_8  and  C_9
REMARK    5  A    between atoms: C_12  and  C_13
REMARK    6  A    between atoms: C_13  and  N_14
REMARK    7  A    between atoms: C_15  and  C_17
REMARK                            x       y       z     vdW  Elec       q    Type
REMARK                         _______ _______ _______ _____ _____    ______ ____
ROOT
ATOM      1  C   UNL     1      45.765   5.347  12.645  0.00  0.00    +0.000 A 
ATOM      2  C   UNL     1      46.537   4.682  13.608  0.00  0.00    +0.000 A 
ATOM      3  C   UNL     1      47.482   5.376  14.372  0.00  0.00    +0.000 A 
ATOM      4  C   UNL     1      47.660   6.754  14.201  0.00  0.00    +0.000 A 
ATOM      5  C   UNL     1      46.896   7.416  13.230  0.00  0.00    +0.000 A 
ATOM      6  C   UNL     1      45.951   6.723  12.467  0.00  0.00    +0.000 A 
ENDROOT
BRANCH   1   7
ATOM      7  C   UNL     1      44.734   4.590  11.838  0.00  0.00    +0.000 C 
BRANCH   7  12
ATOM      8  C   UNL     1      46.386   2.896   7.336  0.00  0.00    +0.000 A 
ATOM      9  C   UNL     1      45.731   2.214   8.356  0.00  0.00    +0.000 A 
ATOM     10  C   UNL     1      45.182   2.919   9.429  0.00  0.00    +0.000 A 
ATOM     11  C   UNL     1      45.310   4.301   9.479  0.00  0.00    +0.000 A 
ATOM     12  N   UNL     1      44.727   5.076  10.472  0.00  0.00    +0.000 N 
ATOM     13  N   UNL     1      45.953   4.982   8.510  0.00  0.00    +0.000 NA
ATOM     14  C   UNL     1      46.468   4.277   7.469  0.00  0.00    +0.000 A 
ATOM     15  H   UNL     1      45.049   6.032  10.354  0.00  0.00    +0.000 HD
BRANCH   8  16
ATOM     16  C   UNL     1      46.983   2.179   6.162  0.00  0.00    +0.000 C 
BRANCH  16  17
ATOM     17  N   UNL     1      48.187   1.442   6.534  0.00  0.00    +0.000 NA
ATOM     18  H   UNL     1      48.153   1.224   7.528  0.00  0.00    +0.000 HD
ATOM     19  H   UNL     1      49.000   2.044   6.401  0.00  0.00    +0.000 HD
ENDBRANCH  16  17
ENDBRANCH   8  16
ENDBRANCH   7  12
ENDBRANCH   1   7
BRANCH   4  20
ATOM     20  C   UNL     1      48.668   7.518  15.023  0.00  0.00    +0.000 C 
BRANCH  20  21
ATOM     21  N   UNL     1      49.686   6.645  15.548  0.00  0.00    +0.000 N 
ATOM     22  C   UNL     1      49.728   6.310  16.878  0.00  0.00    +0.000 C 
ATOM     23  O   UNL     1      48.888   6.711  17.679  0.00  0.00    +0.000 OA
ATOM     24  H   UNL     1      50.518   6.519  14.980  0.00  0.00    +0.000 HD
BRANCH  22  25
ATOM     25  C   UNL     1      50.798   5.391  17.283  0.00  0.00    +0.000 A 
ATOM     26  C   UNL     1      52.016   5.897  17.719  0.00  0.00    +0.000 A 
ATOM     27  S   UNL     1      53.126   4.692  18.197  0.00  0.00    +0.000 S 
ATOM     28  C   UNL     1      52.036   3.450  17.789  0.00  0.00    +0.000 A 
ATOM     29  N   UNL     1      52.381   2.142  17.930  0.00  0.00    +0.000 NA
ATOM     30  C   UNL     1      51.470   1.307  17.558  0.00  0.00    +0.000 A 
ATOM     31  N   UNL     1      50.241   1.660  17.064  0.00  0.00    +0.000 N 
ATOM     32  C   UNL     1      49.837   2.967  16.934  0.00  0.00    +0.000 A 
ATOM     33  O   UNL     1      48.712   3.248  16.536  0.00  0.00    +0.000 OA
ATOM     34  C   UNL     1      50.833   3.948  17.320  0.00  0.00    +0.000 A 
ATOM     35  H   UNL     1      49.567   0.957  16.801  0.00  0.00    +0.000 HD
ENDBRANCH  22  25
ENDBRANCH  20  21
ENDBRANCH   4  20
TORSDOF 7
ENDMDL
MODEL 6
REMARK VINA RESULT:    -7.539      4.798      6.323
REMARK INTER + INTRA:         -11.304
REMARK INTER:                 -10.165
REMARK INTRA:                  -1.139
REMARK UNBOUND:                -0.901
REMARK  Name = 
REMARK  7 active torsions:
REMARK  status: ('A' for Active; 'I' for Inactive)
REMARK    1  A    between atoms: N_1  and  C_2
REMARK    2  A    between atoms: C_2  and  C_3
REMARK    3  A    between atoms: N_7  and  C_8
REMARK    4  A    between atoms: C_8  and  C_9
REMARK    5  A    between atoms: C_12  and  C_13
REMARK    6  A    between atoms: C_13  and  N_14
REMARK    7  A    between atoms: C_15  and  C_17
REMARK                            x       y       z     vdW  Elec       q    Type
REMARK                         _______ _______ _______ _____ _____    ______ ____
ROOT
ATOM      1  C   UNL     1      45.294   6.414  11.639  0.00  0.00    +0.000 A 
ATOM      2  C   UNL     1      46.569   6.088  12.123  0.00  0.00    +0.000 A 
ATOM      3  C   UNL     1      47.404   7.074  12.662  0.00  0.00    +0.000 A 
ATOM      4  C   UNL     1      46.971   8.403  12.745  0.00  0.00    +0.000 A 
ATOM      5  C   UNL     1      45.702   8.730  12.249  0.00  0.00    +0.000 A 
ATOM      6  C   UNL     1      44.867   7.745  11.711  0.00  0.00    +0.000 A 
ENDROOT
BRANCH   1   7
ATOM      7  C   UNL     1      44.394   5.338  11.075  0.00  0.00    +0.000 C 
BRANCH   7  12
ATOM      8  C   UNL     1      46.389   2.067   7.731  0.00  0.00    +0.000 A 
ATOM      9  C   UNL     1      45.605   1.822   8.854  0.00  0.00    +0.000 A 
ATOM     10  C   UNL     1      44.991   2.883   9.522  0.00  0.00    +0.000 A 
ATOM     11  C   UNL     1      45.181   4.182   9.069  0.00  0.00    +0.000 A 
ATOM     12  N   UNL     1      44.543   5.278   9.634  0.00  0.00    +0.000 N 
ATOM     13  N   UNL     1      45.948   4.444   7.993  0.00  0.00    +0.000 NA
ATOM     14  C   UNL     1      46.527   3.396   7.350  0.00  0.00    +0.000 A 
ATOM     15  H   UNL     1      44.923   6.117   9.205  0.00  0.00    +0.000 HD
BRANCH   8  16
ATOM     16  C   UNL     1      47.062   0.956   6.979  0.00  0.00    +0.000 C 
BRANCH  16  17
ATOM     17  N   UNL     1      47.065  -0.289   7.742  0.00  0.00    +0.000 NA
ATOM     18  H   UNL     1      46.703  -0.110   8.676  0.00  0.00    +0.000 HD
ATOM     19  H   UNL     1      48.029  -0.602   7.863  0.00  0.00    +0.000 HD
ENDBRANCH  16  17
ENDBRANCH   8  16
ENDBRANCH   7  12
ENDBRANCH   1   7
BRANCH   4  20
ATOM     20  C   UNL     1      47.855   9.476  13.331  0.00  0.00    +0.000 C 
BRANCH  20  21
ATOM     21  N   UNL     1      49.143   9.505  12.685  0.00  0.00    +0.000 N 
ATOM     22  C   UNL     1      49.333  10.155  11.493  0.00  0.00    +0.000 C 
ATOM     23  O   UNL     1      48.429  10.768  10.931  0.00  0.00    +0.000 OA
ATOM     24  H   UNL     1      49.819   8.808  12.982  0.00  0.00    +0.000 HD
BRANCH  22  25
ATOM     25  C   UNL     1      50.697  10.135  10.952  0.00  0.00    +0.000 A 
ATOM     26  C   UNL     1      51.317  11.325  10.594  0.00  0.00    +0.000 A 
ATOM     27  S   UNL     1      52.915  11.123  10.031  0.00  0.00    +0.000 S 
ATOM     28  C   UNL     1      52.817   9.432  10.197  0.00  0.00    +0.000 A 
ATOM     29  N   UNL     1      53.861   8.634   9.850  0.00  0.00    +0.000 NA
ATOM     30  C   UNL     1      53.641   7.371  10.001  0.00  0.00    +0.000 A 
ATOM     31  N   UNL     1      52.472   6.834  10.475  0.00  0.00    +0.000 N 
ATOM     32  C   UNL     1      51.403   7.602  10.869  0.00  0.00    +0.000 A 
ATOM     33  O   UNL     1      50.391   7.092  11.337  0.00  0.00    +0.000 OA
ATOM     34  C   UNL     1      51.592   9.030  10.699  0.00  0.00    +0.000 A 
ATOM     35  H   UNL     1      52.367   5.835  10.582  0.00  0.00    +0.000 HD
ENDBRANCH  22  25
ENDBRANCH  20  21
ENDBRANCH   4  20
TORSDOF 7
ENDMDL
MODEL 7
REMARK VINA RESULT:    -6.510      5.344      8.462
REMARK INTER + INTRA:          -9.884
REMARK INTER:                  -8.900
REMARK INTRA:                  -0.984
REMARK UNBOUND:                -0.901
REMARK  Name = 
REMARK  7 active torsions:
REMARK  status: ('A' for Active; 'I' for Inactive)
REMARK    1  A    between atoms: N_1  and  C_2
REMARK    2  A    between atoms: C_2  and  C_3
REMARK    3  A    between atoms: N_7  and  C_8
REMARK    4  A    between atoms: C_8  and  C_9
REMARK    5  A    between atoms: C_12  and  C_13
REMARK    6  A    between atoms: C_13  and  N_14
REMARK    7  A    between atoms: C_15  and  C_17
REMARK                            x       y       z     vdW  Elec       q    Type
REMARK                         _______ _______ _______ _____ _____    ______ ____
ROOT
ATOM      1  C   UNL     1      50.618   8.667  11.401  0.00  0.00    +0.000 A 
ATOM      2  C   UNL     1      50.110   7.409  11.754  0.00  0.00    +0.000 A 
ATOM      3  C   UNL     1      48.806   7.275  12.245  0.00  0.00    +0.000 A 
ATOM      4  C   UNL     1      47.977   8.397  12.374  0.00  0.00    +0.000 A 
ATOM      5  C   UNL     1      48.491   9.656  12.032  0.00  0.00    +0.000 A 
ATOM      6  C   UNL     1      49.793   9.789  11.540  0.00  0.00    +0.000 A 
ENDROOT
BRANCH   1   7
ATOM      7  C   UNL     1      52.023   8.796  10.855  0.00  0.00    +0.000 C 
BRANCH   7  12
ATOM      8  C   UNL     1      54.805   5.184   8.603  0.00  0.00    +0.000 A 
ATOM      9  C   UNL     1      54.225   5.200   9.867  0.00  0.00    +0.000 A 
ATOM     10  C   UNL     1      53.327   6.212  10.212  0.00  0.00    +0.000 A 
ATOM     11  C   UNL     1      53.031   7.209   9.292  0.00  0.00    +0.000 A 
ATOM     12  N   UNL     1      52.093   8.203   9.534  0.00  0.00    +0.000 N 
ATOM     13  N   UNL     1      53.592   7.223   8.067  0.00  0.00    +0.000 NA
ATOM     14  C   UNL     1      54.453   6.222   7.748  0.00  0.00    +0.000 A 
ATOM     15  H   UNL     1      52.133   8.867   8.766  0.00  0.00    +0.000 HD
BRANCH   8  16
ATOM     16  C   UNL     1      55.769   4.112   8.188  0.00  0.00    +0.000 C 
BRANCH  16  17
ATOM     17  N   UNL     1      55.087   2.989   7.550  0.00  0.00    +0.000 NA
ATOM     18  H   UNL     1      54.392   2.612   8.190  0.00  0.00    +0.000 HD
ATOM     19  H   UNL     1      55.761   2.241   7.385  0.00  0.00    +0.000 HD
ENDBRANCH  16  17
ENDBRANCH   8  16
ENDBRANCH   7  12
ENDBRANCH   1   7
BRANCH   4  20
ATOM     20  C   UNL     1      46.567   8.269  12.892  0.00  0.00    +0.000 C 
BRANCH  20  21
ATOM     21  N   UNL     1      46.033   6.955  12.640  0.00  0.00    +0.000 N 
ATOM     22  C   UNL     1      45.033   6.751  11.723  0.00  0.00    +0.000 C 
ATOM     23  O   UNL     1      44.565   7.667  11.052  0.00  0.00    +0.000 OA
ATOM     24  H   UNL     1      46.209   6.247  13.345  0.00  0.00    +0.000 HD
BRANCH  22  25
ATOM     25  C   UNL     1      44.594   5.363  11.538  0.00  0.00    +0.000 A 
ATOM     26  C   UNL     1      43.880   4.724  12.543  0.00  0.00    +0.000 A 
ATOM     27  S   UNL     1      43.408   3.134  12.143  0.00  0.00    +0.000 S 
ATOM     28  C   UNL     1      44.186   3.225  10.632  0.00  0.00    +0.000 A 
ATOM     29  N   UNL     1      44.191   2.164   9.782  0.00  0.00    +0.000 NA
ATOM     30  C   UNL     1      44.841   2.362   8.685  0.00  0.00    +0.000 A 
ATOM     31  N   UNL     1      45.482   3.529   8.356  0.00  0.00    +0.000 N 
ATOM     32  C   UNL     1      45.477   4.637   9.169  0.00  0.00    +0.000 A 
ATOM     33  O   UNL     1      46.016   5.682   8.822  0.00  0.00    +0.000 OA
ATOM     34  C   UNL     1      44.776   4.460  10.426  0.00  0.00    +0.000 A 
ATOM     35  H   UNL     1      45.963   3.625   7.474  0.00  0.00    +0.000 HD
ENDBRANCH  22  25
ENDBRANCH  20  21
ENDBRANCH   4  20
TORSDOF 7
ENDMDL
MODEL 8
REMARK VINA RESULT:    -6.252      2.920      3.973
REMARK INTER + INTRA:          -9.528
REMARK INTER:                  -8.603
REMARK INTRA:                  -0.925
REMARK UNBOUND:                -0.901
REMARK  Name = 
REMARK  7 active torsions:
REMARK  status: ('A' for Active; 'I' for Inactive)
REMARK    1  A    between atoms: N_1  and  C_2
REMARK    2  A    between atoms: C_2  and  C_3
REMARK    3  A    between atoms: N_7  and  C_8
REMARK    4  A    between atoms: C_8  and  C_9
REMARK    5  A    between atoms: C_12  and  C_13
REMARK    6  A    between atoms: C_13  and  N_14
REMARK    7  A    between atoms: C_15  and  C_17
REMARK                            x       y       z     vdW  Elec       q    Type
REMARK                         _______ _______ _______ _____ _____    ______ ____
ROOT
ATOM      1  C   UNL     1      46.896   8.964  12.277  0.00  0.00    +0.000 A 
ATOM      2  C   UNL     1      46.847   8.876  13.676  0.00  0.00    +0.000 A 
ATOM      3  C   UNL     1      48.009   8.644  14.420  0.00  0.00    +0.000 A 
ATOM      4  C   UNL     1      49.248   8.516  13.780  0.00  0.00    +0.000 A 
ATOM      5  C   UNL     1      49.295   8.593  12.381  0.00  0.00    +0.000 A 
ATOM      6  C   UNL     1      48.134   8.826  11.637  0.00  0.00    +0.000 A 
ENDROOT
BRANCH   1   7
ATOM      7  C   UNL     1      45.637   9.233  11.485  0.00  0.00    +0.000 C 
BRANCH   7  12
ATOM      8  C   UNL     1      44.146   4.405  10.908  0.00  0.00    +0.000 A 
ATOM      9  C   UNL     1      45.424   4.925  11.087  0.00  0.00    +0.000 A 
ATOM     10  C   UNL     1      45.590   6.268  11.431  0.00  0.00    +0.000 A 
ATOM     11  C   UNL     1      44.474   7.083  11.573  0.00  0.00    +0.000 A 
ATOM     12  N   UNL     1      44.556   8.406  11.985  0.00  0.00    +0.000 N 
ATOM     13  N   UNL     1      43.228   6.606  11.389  0.00  0.00    +0.000 NA
ATOM     14  C   UNL     1      43.088   5.293  11.068  0.00  0.00    +0.000 A 
ATOM     15  H   UNL     1      43.630   8.816  11.910  0.00  0.00    +0.000 HD
BRANCH   8  16
ATOM     16  C   UNL     1      43.921   2.966  10.546  0.00  0.00    +0.000 C 
BRANCH  16  17
ATOM     17  N   UNL     1      43.064   2.292  11.517  0.00  0.00    +0.000 NA
ATOM     18  H   UNL     1      42.450   2.977  11.955  0.00  0.00    +0.000 HD
ATOM     19  H   UNL     1      43.644   1.910  12.264  0.00  0.00    +0.000 HD
ENDBRANCH  16  17
ENDBRANCH   8  16
ENDBRANCH   7  12
ENDBRANCH   1   7
BRANCH   4  20
ATOM     20  C   UNL     1      50.512   8.275  14.568  0.00  0.00    +0.000 C 
BRANCH  20  21
ATOM     21  N   UNL     1      50.329   7.234  15.547  0.00  0.00    +0.000 N 
ATOM     22  C   UNL     1      50.110   7.523  16.869  0.00  0.00    +0.000 C 
ATOM     23  O   UNL     1      50.029   8.678  17.281  0.00  0.00    +0.000 OA
ATOM     24  H   UNL     1      50.644   6.304  15.290  0.00  0.00    +0.000 HD
BRANCH  22  25
ATOM     25  C   UNL     1      49.911   6.375  17.762  0.00  0.00    +0.000 A 
ATOM     26  C   UNL     1      50.568   6.328  18.984  0.00  0.00    +0.000 A 
ATOM     27  S   UNL     1      50.186   4.949  19.914  0.00  0.00    +0.000 S 
ATOM     28  C   UNL     1      49.167   4.341  18.693  0.00  0.00    +0.000 A 
ATOM     29  N   UNL     1      48.532   3.149  18.842  0.00  0.00    +0.000 NA
ATOM     30  C   UNL     1      47.814   2.797  17.829  0.00  0.00    +0.000 A 
ATOM     31  N   UNL     1      47.667   3.533  16.681  0.00  0.00    +0.000 N 
ATOM     32  C   UNL     1      48.264   4.758  16.500  0.00  0.00    +0.000 A 
ATOM     33  O   UNL     1      48.071   5.414  15.483  0.00  0.00    +0.000 OA
ATOM     34  C   UNL     1      49.100   5.191  17.603  0.00  0.00    +0.000 A 
ATOM     35  H   UNL     1      47.080   3.207  15.928  0.00  0.00    +0.000 HD
ENDBRANCH  22  25
ENDBRANCH  20  21
ENDBRANCH   4  20
TORSDOF 7
ENDMDL
MODEL 9
REMARK VINA RESULT:    -6.247      3.076      3.910
REMARK INTER + INTRA:          -9.522
REMARK INTER:                  -8.653
REMARK INTRA:                  -0.868
REMARK UNBOUND:                -0.901
REMARK  Name = 
REMARK  7 active torsions:
REMARK  status: ('A' for Active; 'I' for Inactive)
REMARK    1  A    between atoms: N_1  and  C_2
REMARK    2  A    between atoms: C_2  and  C_3
REMARK    3  A    between atoms: N_7  and  C_8
REMARK    4  A    between atoms: C_8  and  C_9
REMARK    5  A    between atoms: C_12  and  C_13
REMARK    6  A    between atoms: C_13  and  N_14
REMARK    7  A    between atoms: C_15  and  C_17
REMARK                            x       y       z     vdW  Elec       q    Type
REMARK                         _______ _______ _______ _____ _____    ______ ____
ROOT
ATOM      1  C   UNL     1      46.177   7.278  12.405  0.00  0.00    +0.000 A 
ATOM      2  C   UNL     1      47.311   6.564  11.995  0.00  0.00    +0.000 A 
ATOM      3  C   UNL     1      48.590   6.953  12.410  0.00  0.00    +0.000 A 
ATOM      4  C   UNL     1      48.757   8.053  13.260  0.00  0.00    +0.000 A 
ATOM      5  C   UNL     1      47.623   8.773  13.659  0.00  0.00    +0.000 A 
ATOM      6  C   UNL     1      46.345   8.385  13.246  0.00  0.00    +0.000 A 
ENDROOT
BRANCH   1   7
ATOM      7  C   UNL     1      44.798   6.839  11.964  0.00  0.00    +0.000 C 
BRANCH   7  12
ATOM      8  C   UNL     1      45.310   2.715   9.032  0.00  0.00    +0.000 A 
ATOM      9  C   UNL     1      44.583   2.886  10.206  0.00  0.00    +0.000 A 
ATOM     10  C   UNL     1      44.413   4.163  10.744  0.00  0.00    +0.000 A 
ATOM     11  C   UNL     1      44.990   5.256  10.110  0.00  0.00    +0.000 A 
ATOM     12  N   UNL     1      44.802   6.563  10.541  0.00  0.00    +0.000 N 
ATOM     13  N   UNL     1      45.711   5.113   8.981  0.00  0.00    +0.000 NA
ATOM     14  C   UNL     1      45.852   3.863   8.468  0.00  0.00    +0.000 A 
ATOM     15  H   UNL     1      45.404   7.165   9.987  0.00  0.00    +0.000 HD
BRANCH   8  16
ATOM     16  C   UNL     1      45.510   1.362   8.416  0.00  0.00    +0.000 C 
BRANCH  16  17
ATOM     17  N   UNL     1      46.813   1.251   7.767  0.00  0.00    +0.000 NA
ATOM     18  H   UNL     1      46.680   1.165   6.761  0.00  0.00    +0.000 HD
ATOM     19  H   UNL     1      47.264   0.388   8.071  0.00  0.00    +0.000 HD
ENDBRANCH  16  17
ENDBRANCH   8  16
ENDBRANCH   7  12
ENDBRANCH   1   7
BRANCH   4  20
ATOM     20  C   UNL     1      50.128   8.479  13.723  0.00  0.00    +0.000 C 
BRANCH  20  21
ATOM     21  N   UNL     1      50.734   7.475  14.561  0.00  0.00    +0.000 N 
ATOM     22  C   UNL     1      50.502   7.433  15.912  0.00  0.00    +0.000 C 
ATOM     23  O   UNL     1      49.747   8.225  16.471  0.00  0.00    +0.000 OA
ATOM     24  H   UNL     1      51.541   6.991  14.182  0.00  0.00    +0.000 HD
BRANCH  22  25
ATOM     25  C   UNL     1      51.156   6.345  16.650  0.00  0.00    +0.000 A 
ATOM     26  C   UNL     1      50.403   5.518  17.473  0.00  0.00    +0.000 A 
ATOM     27  S   UNL     1      51.312   4.279  18.215  0.00  0.00    +0.000 S 
ATOM     28  C   UNL     1      52.754   4.836  17.502  0.00  0.00    +0.000 A 
ATOM     29  N   UNL     1      53.941   4.224  17.754  0.00  0.00    +0.000 NA
ATOM     30  C   UNL     1      54.956   4.767  17.171  0.00  0.00    +0.000 A 
ATOM     31  N   UNL     1      54.891   5.864  16.351  0.00  0.00    +0.000 N 
ATOM     32  C   UNL     1      53.711   6.496  16.042  0.00  0.00    +0.000 A 
ATOM     33  O   UNL     1      53.681   7.443  15.265  0.00  0.00    +0.000 OA
ATOM     34  C   UNL     1      52.539   5.936  16.690  0.00  0.00    +0.000 A 
ATOM     35  H   UNL     1      55.723   6.234  15.914  0.00  0.00    +0.000 HD
ENDBRANCH  22  25
ENDBRANCH  20  21
ENDBRANCH   4  20
TORSDOF 7
ENDMDL
