MODEL 1
REMARK VINA RESULT:    -7.291      0.000      0.000
REMARK INTER + INTRA:         -12.248
REMARK INTER:                 -10.701
REMARK INTRA:                  -1.546
REMARK UNBOUND:                -1.546
REMARK  Name = 
REMARK  9 active torsions:
REMARK  status: ('A' for Active; 'I' for Inactive)
REMARK    1  A    between atoms: C_1  and  C_2
REMARK    2  A    between atoms: C_2  and  N_3
REMARK    3  A    between atoms: N_3  and  C_4
REMARK    4  A    between atoms: C_4  and  C_5
REMARK    5  A    between atoms: C_8  and  C_9
REMARK    6  A    between atoms: C_9  and  N_10
REMARK    7  A    between atoms: N_10  and  C_11
REMARK    8  A    between atoms: C_11  and  C_12
REMARK    9  A    between atoms: C_19  and  C_21
REMARK                            x       y       z     vdW  Elec       q    Type
REMARK                         _______ _______ _______ _____ _____    ______ ____
ROOT
ATOM      1  C   UNL     1      47.345   6.951  13.698  0.00  0.00    +0.000 C 
ENDROOT
BRANCH   1   2
ATOM      2  C   UNL     1      46.700   5.946  12.784  0.00  0.00    +0.000 A 
ATOM      3  C   UNL     1      46.431   4.654  13.267  0.00  0.00    +0.000 A 
ATOM      4  C   UNL     1      45.558   3.811  12.583  0.00  0.00    +0.000 A 
ATOM      5  C   UNL     1      44.943   4.237  11.400  0.00  0.00    +0.000 A 
ATOM      6  C   UNL     1      45.296   5.487  10.865  0.00  0.00    +0.000 A 
ATOM      7  C   UNL     1      46.171   6.335  11.552  0.00  0.00    +0.000 A 
BRANCH   5   8
ATOM      8  C   UNL     1      43.890   3.376  10.741  0.00  0.00    +0.000 C 
BRANCH   8   9
ATOM      9  N   UNL     1      44.154   3.236   9.309  0.00  0.00    +0.000 NA
ATOM     10  H   UNL     1      44.666   4.050   8.976  0.00  0.00    +0.000 HD
BRANCH   9  11
ATOM     11  C   UNL     1      44.941   2.038   9.036  0.00  0.00    +0.000 C 
BRANCH  11  12
ATOM     12  C   UNL     1      46.031   2.401   8.080  0.00  0.00    +0.000 A 
ATOM     13  C   UNL     1      46.972   1.509   7.486  0.00  0.00    +0.000 A 
ATOM     14  C   UNL     1      47.817   2.249   6.691  0.00  0.00    +0.000 A 
ATOM     15  N   UNL     1      47.425   3.558   6.765  0.00  0.00    +0.000 N 
ATOM     16  C   UNL     1      46.347   3.664   7.607  0.00  0.00    +0.000 A 
ATOM     17  H   UNL     1      47.864   4.328   6.279  0.00  0.00    +0.000 HD
ENDBRANCH  11  12
ENDBRANCH   9  11
ENDBRANCH   8   9
ENDBRANCH   5   8
ENDBRANCH   1   2
BRANCH   1  18
ATOM     18  N   UNL     1      48.786   7.163  13.717  0.00  0.00    +0.000 N 
ATOM     19  C   UNL     1      49.538   7.050  14.906  0.00  0.00    +0.000 C 
ATOM     20  O   UNL     1      50.755   7.228  14.907  0.00  0.00    +0.000 OA
BRANCH  19  21
ATOM     21  C   UNL     1      48.868   6.668  16.167  0.00  0.00    +0.000 A 
ATOM     22  C   UNL     1      48.740   5.372  16.646  0.00  0.00    +0.000 A 
ATOM     23  S   UNL     1      47.973   5.265  18.168  0.00  0.00    +0.000 S 
ATOM     24  C   UNL     1      47.953   6.956  18.323  0.00  0.00    +0.000 A 
ATOM     25  N   UNL     1      47.547   7.545  19.480  0.00  0.00    +0.000 NA
ATOM     26  C   UNL     1      47.653   8.833  19.479  0.00  0.00    +0.000 A 
ATOM     27  N   UNL     1      48.077   9.583  18.411  0.00  0.00    +0.000 N 
ATOM     28  C   UNL     1      48.361   9.036  17.175  0.00  0.00    +0.000 A 
ATOM     29  O   UNL     1      48.495   9.745  16.189  0.00  0.00    +0.000 OA
ATOM     30  C   UNL     1      48.396   7.586  17.176  0.00  0.00    +0.000 A 
ATOM     31  H   UNL     1      48.062  10.591  18.450  0.00  0.00    +0.000 HD
ENDBRANCH  19  21
BRANCH  18  33
ATOM     32  C   UNL     1      49.091   8.670  11.764  0.00  0.00    +0.000 C 
ATOM     33  C   UNL     1      49.520   7.391  12.469  0.00  0.00    +0.000 C 
ENDBRANCH  18  33
ENDBRANCH   1  18
TORSDOF 8
ENDMDL
MODEL 2
REMARK VINA RESULT:    -7.240      3.949      8.541
REMARK INTER + INTRA:         -12.172
REMARK INTER:                 -10.775
REMARK INTRA:                  -1.397
REMARK UNBOUND:                -1.546
REMARK  Name = 
REMARK  9 active torsions:
REMARK  status: ('A' for Active; 'I' for Inactive)
REMARK    1  A    between atoms: C_1  and  C_2
REMARK    2  A    between atoms: C_2  and  N_3
REMARK    3  A    between atoms: N_3  and  C_4
REMARK    4  A    between atoms: C_4  and  C_5
REMARK    5  A    between atoms: C_8  and  C_9
REMARK    6  A    between atoms: C_9  and  N_10
REMARK    7  A    between atoms: N_10  and  C_11
REMARK    8  A    between atoms: C_11  and  C_12
REMARK    9  A    between atoms: C_19  and  C_21
REMARK                            x       y       z     vdW  Elec       q    Type
REMARK                         _______ _______ _______ _____ _____    ______ ____
ROOT
ATOM      1  C   UNL     1      47.106   6.170  12.499  0.00  0.00    +0.000 C 
ENDROOT
BRANCH   1   2
ATOM      2  C   UNL     1      47.332   5.821  13.945  0.00  0.00    +0.000 A 
ATOM      3  C   UNL     1      46.776   4.638  14.460  0.00  0.00    +0.000 A 
ATOM      4  C   UNL     1      47.219   4.116  15.672  0.00  0.00    +0.000 A 
ATOM      5  C   UNL     1      48.221   4.770  16.400  0.00  0.00    +0.000 A 
ATOM      6  C   UNL     1      48.700   6.006  15.936  0.00  0.00    +0.000 A 
ATOM      7  C   UNL     1      48.256   6.530  14.717  0.00  0.00    +0.000 A 
BRANCH   5   8
ATOM      8  C   UNL     1      48.799   4.127  17.639  0.00  0.00    +0.000 C 
BRANCH   8   9
ATOM      9  N   UNL     1      49.776   3.097  17.284  0.00  0.00    +0.000 NA
ATOM     10  H   UNL     1      49.687   2.871  16.295  0.00  0.00    +0.000 HD
BRANCH   9  11
ATOM     11  C   UNL     1      51.137   3.553  17.544  0.00  0.00    +0.000 C 
BRANCH  11  12
ATOM     12  C   UNL     1      51.996   2.353  17.781  0.00  0.00    +0.000 A 
ATOM     13  C   UNL     1      53.386   2.354  18.099  0.00  0.00    +0.000 A 
ATOM     14  C   UNL     1      53.798   1.045  18.211  0.00  0.00    +0.000 A 
ATOM     15  N   UNL     1      52.713   0.243  17.985  0.00  0.00    +0.000 N 
ATOM     16  C   UNL     1      51.616   1.023  17.720  0.00  0.00    +0.000 A 
ATOM     17  H   UNL     1      52.720  -0.768  18.006  0.00  0.00    +0.000 HD
ENDBRANCH  11  12
ENDBRANCH   9  11
ENDBRANCH   8   9
ENDBRANCH   5   8
ENDBRANCH   1   2
BRANCH   1  18
ATOM     18  N   UNL     1      46.098   7.137  12.088  0.00  0.00    +0.000 N 
ATOM     19  C   UNL     1      44.843   6.734  11.584  0.00  0.00    +0.000 C 
ATOM     20  O   UNL     1      43.999   7.561  11.244  0.00  0.00    +0.000 OA
BRANCH  19  21
ATOM     21  C   UNL     1      44.511   5.295  11.503  0.00  0.00    +0.000 A 
ATOM     22  C   UNL     1      43.766   4.591  12.438  0.00  0.00    +0.000 A 
ATOM     23  S   UNL     1      43.497   2.956  12.023  0.00  0.00    +0.000 S 
ATOM     24  C   UNL     1      44.207   3.182  10.498  0.00  0.00    +0.000 A 
ATOM     25  N   UNL     1      44.181   2.194   9.564  0.00  0.00    +0.000 NA
ATOM     26  C   UNL     1      44.695   2.532   8.427  0.00  0.00    +0.000 A 
ATOM     27  N   UNL     1      45.276   3.746   8.160  0.00  0.00    +0.000 N 
ATOM     28  C   UNL     1      45.449   4.722   9.122  0.00  0.00    +0.000 A 
ATOM     29  O   UNL     1      46.181   5.681   8.921  0.00  0.00    +0.000 OA
ATOM     30  C   UNL     1      44.759   4.442  10.366  0.00  0.00    +0.000 A 
ATOM     31  H   UNL     1      45.728   3.919   7.275  0.00  0.00    +0.000 HD
ENDBRANCH  19  21
BRANCH  18  33
ATOM     32  C   UNL     1      47.741   8.998  11.966  0.00  0.00    +0.000 C 
ATOM     33  C   UNL     1      46.317   8.572  12.293  0.00  0.00    +0.000 C 
ENDBRANCH  18  33
ENDBRANCH   1  18
TORSDOF 8
ENDMDL
MODEL 3
REMARK VINA RESULT:    -6.970      1.381      2.034
REMARK INTER + INTRA:         -11.776
REMARK INTER:                 -10.475
REMARK INTRA:                  -1.301
REMARK UNBOUND:                -1.546
REMARK  Name = 
REMARK  9 active torsions:
REMARK  status: ('A' for Active; 'I' for Inactive)
REMARK    1  A    between atoms: C_1  and  C_2
REMARK    2  A    between atoms: C_2  and  N_3
REMARK    3  A    between atoms: N_3  and  C_4
REMARK    4  A    between atoms: C_4  and  C_5
REMARK    5  A    between atoms: C_8  and  C_9
REMARK    6  A    between atoms: C_9  and  N_10
REMARK    7  A    between atoms: N_10  and  C_11
REMARK    8  A    between atoms: C_11  and  C_12
REMARK    9  A    between atoms: C_19  and  C_21
REMARK                            x       y       z     vdW  Elec       q    Type
REMARK                         _______ _______ _______ _____ _____    ______ ____
ROOT
ATOM      1  C   UNL     1      47.648   7.330  13.858  0.00  0.00    +0.000 C 
ENDROOT
BRANCH   1   2
ATOM      2  C   UNL     1      47.013   6.263  13.008  0.00  0.00    +0.000 A 
ATOM      3  C   UNL     1      46.780   4.994  13.563  0.00  0.00    +0.000 A 
ATOM      4  C   UNL     1      45.917   4.096  12.939  0.00  0.00    +0.000 A 
ATOM      5  C   UNL     1      45.276   4.445  11.744  0.00  0.00    +0.000 A 
ATOM      6  C   UNL     1      45.592   5.672  11.137  0.00  0.00    +0.000 A 
ATOM      7  C   UNL     1      46.457   6.575  11.765  0.00  0.00    +0.000 A 
BRANCH   5   8
ATOM      8  C   UNL     1      44.233   3.527  11.148  0.00  0.00    +0.000 C 
BRANCH   8   9
ATOM      9  N   UNL     1      44.854   2.537  10.268  0.00  0.00    +0.000 NA
ATOM     10  H   UNL     1      44.463   1.617  10.463  0.00  0.00    +0.000 HD
BRANCH   9  11
ATOM     11  C   UNL     1      44.620   2.862   8.865  0.00  0.00    +0.000 C 
BRANCH  11  12
ATOM     12  C   UNL     1      45.845   2.498   8.090  0.00  0.00    +0.000 A 
ATOM     13  C   UNL     1      46.628   3.373   7.280  0.00  0.00    +0.000 A 
ATOM     14  C   UNL     1      47.649   2.637   6.723  0.00  0.00    +0.000 A 
ATOM     15  N   UNL     1      47.530   1.349   7.168  0.00  0.00    +0.000 N 
ATOM     16  C   UNL     1      46.438   1.250   7.993  0.00  0.00    +0.000 A 
ATOM     17  H   UNL     1      48.147   0.586   6.923  0.00  0.00    +0.000 HD
ENDBRANCH  11  12
ENDBRANCH   9  11
ENDBRANCH   8   9
ENDBRANCH   5   8
ENDBRANCH   1   2
BRANCH   1  18
ATOM     18  N   UNL     1      49.055   7.682  13.730  0.00  0.00    +0.000 N 
ATOM     19  C   UNL     1      49.786   8.227  14.808  0.00  0.00    +0.000 C 
ATOM     20  O   UNL     1      50.975   8.515  14.687  0.00  0.00    +0.000 OA
BRANCH  19  21
ATOM     21  C   UNL     1      49.131   8.416  16.120  0.00  0.00    +0.000 A 
ATOM     22  C   UNL     1      48.554   9.596  16.565  0.00  0.00    +0.000 A 
ATOM     23  S   UNL     1      47.817   9.474  18.101  0.00  0.00    +0.000 S 
ATOM     24  C   UNL     1      48.081   7.798  18.141  0.00  0.00    +0.000 A 
ATOM     25  N   UNL     1      47.561   7.034  19.139  0.00  0.00    +0.000 NA
ATOM     26  C   UNL     1      47.781   5.768  19.001  0.00  0.00    +0.000 A 
ATOM     27  N   UNL     1      48.515   5.206  17.986  0.00  0.00    +0.000 N 
ATOM     28  C   UNL     1      49.177   5.958  17.034  0.00  0.00    +0.000 A 
ATOM     29  O   UNL     1      50.013   5.450  16.301  0.00  0.00    +0.000 OA
ATOM     30  C   UNL     1      48.838   7.367  17.067  0.00  0.00    +0.000 A 
ATOM     31  H   UNL     1      48.714   4.218  17.979  0.00  0.00    +0.000 HD
ENDBRANCH  19  21
BRANCH  18  33
ATOM     32  C   UNL     1      49.672   8.469  11.455  0.00  0.00    +0.000 C 
ATOM     33  C   UNL     1      49.790   7.370  12.501  0.00  0.00    +0.000 C 
ENDBRANCH  18  33
ENDBRANCH   1  18
TORSDOF 8
ENDMDL
MODEL 4
REMARK VINA RESULT:    -6.868      2.851      8.942
REMARK INTER + INTRA:         -11.627
REMARK INTER:                  -9.912
REMARK INTRA:                  -1.715
REMARK UNBOUND:                -1.546
REMARK  Name = 
REMARK  9 active torsions:
REMARK  status: ('A' for Active; 'I' for Inactive)
REMARK    1  A    between atoms: C_1  and  C_2
REMARK    2  A    between atoms: C_2  and  N_3
REMARK    3  A    between atoms: N_3  and  C_4
REMARK    4  A    between atoms: C_4  and  C_5
REMARK    5  A    between atoms: C_8  and  C_9
REMARK    6  A    between atoms: C_9  and  N_10
REMARK    7  A    between atoms: N_10  and  C_11
REMARK    8  A    between atoms: C_11  and  C_12
REMARK    9  A    between atoms: C_19  and  C_21
REMARK                            x       y       z     vdW  Elec       q    Type
REMARK                         _______ _______ _______ _____ _____    ______ ____
ROOT
ATOM      1  C   UNL     1      47.333   6.129  12.663  0.00  0.00    +0.000 C 
ENDROOT
BRANCH   1   2
ATOM      2  C   UNL     1      47.465   5.760  14.116  0.00  0.00    +0.000 A 
ATOM      3  C   UNL     1      46.860   4.580  14.580  0.00  0.00    +0.000 A 
ATOM      4  C   UNL     1      47.220   4.037  15.811  0.00  0.00    +0.000 A 
ATOM      5  C   UNL     1      48.184   4.666  16.607  0.00  0.00    +0.000 A 
ATOM      6  C   UNL     1      48.709   5.900  16.189  0.00  0.00    +0.000 A 
ATOM      7  C   UNL     1      48.350   6.445  14.951  0.00  0.00    +0.000 A 
BRANCH   5   8
ATOM      8  C   UNL     1      48.675   3.999  17.871  0.00  0.00    +0.000 C 
BRANCH   8   9
ATOM      9  N   UNL     1      48.006   4.557  19.047  0.00  0.00    +0.000 NA
ATOM     10  H   UNL     1      47.590   3.803  19.591  0.00  0.00    +0.000 HD
BRANCH   9  11
ATOM     11  C   UNL     1      48.947   5.286  19.890  0.00  0.00    +0.000 C 
BRANCH  11  12
ATOM     12  C   UNL     1      48.519   6.716  19.943  0.00  0.00    +0.000 A 
ATOM     13  C   UNL     1      47.431   7.304  19.232  0.00  0.00    +0.000 A 
ATOM     14  C   UNL     1      47.395   8.645  19.540  0.00  0.00    +0.000 A 
ATOM     15  N   UNL     1      48.411   8.900  20.420  0.00  0.00    +0.000 N 
ATOM     16  C   UNL     1      49.102   7.742  20.669  0.00  0.00    +0.000 A 
ATOM     17  H   UNL     1      48.623   9.804  20.822  0.00  0.00    +0.000 HD
ENDBRANCH  11  12
ENDBRANCH   9  11
ENDBRANCH   8   9
ENDBRANCH   5   8
ENDBRANCH   1   2
BRANCH   1  18
ATOM     18  N   UNL     1      46.413   7.163  12.210  0.00  0.00    +0.000 N 
ATOM     19  C   UNL     1      45.141   6.848  11.687  0.00  0.00    +0.000 C 
ATOM     20  O   UNL     1      44.372   7.732  11.312  0.00  0.00    +0.000 OA
BRANCH  19  21
ATOM     21  C   UNL     1      44.699   5.439  11.626  0.00  0.00    +0.000 A 
ATOM     22  C   UNL     1      43.934   4.796  12.589  0.00  0.00    +0.000 A 
ATOM     23  S   UNL     1      43.529   3.185  12.194  0.00  0.00    +0.000 S 
ATOM     24  C   UNL     1      44.203   3.350  10.645  0.00  0.00    +0.000 A 
ATOM     25  N   UNL     1      44.072   2.364   9.718  0.00  0.00    +0.000 NA
ATOM     26  C   UNL     1      44.572   2.657   8.563  0.00  0.00    +0.000 A 
ATOM     27  N   UNL     1      45.233   3.823   8.269  0.00  0.00    +0.000 N 
ATOM     28  C   UNL     1      45.512   4.787   9.219  0.00  0.00    +0.000 A 
ATOM     29  O   UNL     1      46.307   5.687   8.988  0.00  0.00    +0.000 OA
ATOM     30  C   UNL     1      44.844   4.564  10.486  0.00  0.00    +0.000 A 
ATOM     31  H   UNL     1      45.667   3.957   7.369  0.00  0.00    +0.000 HD
ENDBRANCH  19  21
BRANCH  18  33
ATOM     32  C   UNL     1      48.160   8.914  11.957  0.00  0.00    +0.000 C 
ATOM     33  C   UNL     1      46.740   8.580  12.393  0.00  0.00    +0.000 C 
ENDBRANCH  18  33
ENDBRANCH   1  18
TORSDOF 8
ENDMDL
MODEL 5
REMARK VINA RESULT:    -6.755      2.364      3.401
REMARK INTER + INTRA:         -11.460
REMARK INTER:                 -10.284
REMARK INTRA:                  -1.177
REMARK UNBOUND:                -1.546
REMARK  Name = 
REMARK  9 active torsions:
REMARK  status: ('A' for Active; 'I' for Inactive)
REMARK    1  A    between atoms: C_1  and  C_2
REMARK    2  A    between atoms: C_2  and  N_3
REMARK    3  A    between atoms: N_3  and  C_4
REMARK    4  A    between atoms: C_4  and  C_5
REMARK    5  A    between atoms: C_8  and  C_9
REMARK    6  A    between atoms: C_9  and  N_10
REMARK    7  A    between atoms: N_10  and  C_11
REMARK    8  A    between atoms: C_11  and  C_12
REMARK    9  A    between atoms: C_19  and  C_21
REMARK                            x       y       z     vdW  Elec       q    Type
REMARK                         _______ _______ _______ _____ _____    ______ ____
ROOT
ATOM      1  C   UNL     1      48.748   6.236  14.388  0.00  0.00    +0.000 C 
ENDROOT
BRANCH   1   2
ATOM      2  C   UNL     1      47.499   6.119  13.559  0.00  0.00    +0.000 A 
ATOM      3  C   UNL     1      47.399   6.847  12.362  0.00  0.00    +0.000 A 
ATOM      4  C   UNL     1      46.426   6.527  11.418  0.00  0.00    +0.000 A 
ATOM      5  C   UNL     1      45.528   5.480  11.653  0.00  0.00    +0.000 A 
ATOM      6  C   UNL     1      45.562   4.823  12.895  0.00  0.00    +0.000 A 
ATOM      7  C   UNL     1      46.541   5.143  13.843  0.00  0.00    +0.000 A 
BRANCH   5   8
ATOM      8  C   UNL     1      44.571   5.043  10.568  0.00  0.00    +0.000 C 
BRANCH   8   9
ATOM      9  N   UNL     1      45.254   4.954   9.277  0.00  0.00    +0.000 NA
ATOM     10  H   UNL     1      46.256   4.851   9.429  0.00  0.00    +0.000 HD
BRANCH   9  11
ATOM     11  C   UNL     1      44.774   3.811   8.508  0.00  0.00    +0.000 C 
BRANCH  11  12
ATOM     12  C   UNL     1      45.946   3.170   7.839  0.00  0.00    +0.000 A 
ATOM     13  C   UNL     1      46.320   1.795   7.914  0.00  0.00    +0.000 A 
ATOM     14  C   UNL     1      47.470   1.626   7.177  0.00  0.00    +0.000 A 
ATOM     15  N   UNL     1      47.810   2.839   6.645  0.00  0.00    +0.000 N 
ATOM     16  C   UNL     1      46.898   3.784   7.042  0.00  0.00    +0.000 A 
ATOM     17  H   UNL     1      48.613   3.014   6.054  0.00  0.00    +0.000 HD
ENDBRANCH  11  12
ENDBRANCH   9  11
ENDBRANCH   8   9
ENDBRANCH   5   8
ENDBRANCH   1   2
BRANCH   1  18
ATOM     18  N   UNL     1      48.842   7.151  15.517  0.00  0.00    +0.000 N 
ATOM     19  C   UNL     1      48.736   6.699  16.850  0.00  0.00    +0.000 C 
ATOM     20  O   UNL     1      48.822   7.482  17.795  0.00  0.00    +0.000 OA
BRANCH  19  21
ATOM     21  C   UNL     1      48.564   5.257  17.127  0.00  0.00    +0.000 A 
ATOM     22  C   UNL     1      47.360   4.569  17.078  0.00  0.00    +0.000 A 
ATOM     23  S   UNL     1      47.503   2.895  17.382  0.00  0.00    +0.000 S 
ATOM     24  C   UNL     1      49.197   3.000  17.406  0.00  0.00    +0.000 A 
ATOM     25  N   UNL     1      49.964   1.881  17.486  0.00  0.00    +0.000 NA
ATOM     26  C   UNL     1      51.235   2.108  17.421  0.00  0.00    +0.000 A 
ATOM     27  N   UNL     1      51.804   3.354  17.336  0.00  0.00    +0.000 N 
ATOM     28  C   UNL     1      51.067   4.521  17.396  0.00  0.00    +0.000 A 
ATOM     29  O   UNL     1      51.613   5.602  17.565  0.00  0.00    +0.000 OA
ATOM     30  C   UNL     1      49.635   4.309  17.321  0.00  0.00    +0.000 A 
ATOM     31  H   UNL     1      52.806   3.467  17.367  0.00  0.00    +0.000 HD
ENDBRANCH  19  21
BRANCH  18  33
ATOM     32  C   UNL     1      47.936   9.409  15.010  0.00  0.00    +0.000 C 
ATOM     33  C   UNL     1      49.167   8.564  15.304  0.00  0.00    +0.000 C 
ENDBRANCH  18  33
ENDBRANCH   1  18
TORSDOF 8
ENDMDL
MODEL 6
REMARK VINA RESULT:    -6.750      1.816      2.593
REMARK INTER + INTRA:         -11.453
REMARK INTER:                 -10.327
REMARK INTRA:                  -1.126
REMARK UNBOUND:                -1.546
REMARK  Name = 
REMARK  9 active torsions:
REMARK  status: ('A' for Active; 'I' for Inactive)
REMARK    1  A    between atoms: C_1  and  C_2
REMARK    2  A    between atoms: C_2  and  N_3
REMARK    3  A    between atoms: N_3  and  C_4
REMARK    4  A    between atoms: C_4  and  C_5
REMARK    5  A    between atoms: C_8  and  C_9
REMARK    6  A    between atoms: C_9  and  N_10
REMARK    7  A    between atoms: N_10  and  C_11
REMARK    8  A    between atoms: C_11  and  C_12
REMARK    9  A    between atoms: C_19  and  C_21
REMARK                            x       y       z     vdW  Elec       q    Type
REMARK                         _______ _______ _______ _____ _____    ______ ____
ROOT
ATOM      1  C   UNL     1      48.276   6.569  13.212  0.00  0.00    +0.000 C 
ENDROOT
BRANCH   1   2
ATOM      2  C   UNL     1      47.024   5.846  12.796  0.00  0.00    +0.000 A 
ATOM      3  C   UNL     1      46.395   6.201  11.591  0.00  0.00    +0.000 A 
ATOM      4  C   UNL     1      45.446   5.362  11.013  0.00  0.00    +0.000 A 
ATOM      5  C   UNL     1      45.098   4.155  11.631  0.00  0.00    +0.000 A 
ATOM      6  C   UNL     1      45.650   3.853  12.887  0.00  0.00    +0.000 A 
ATOM      7  C   UNL     1      46.605   4.695  13.467  0.00  0.00    +0.000 A 
BRANCH   5   8
ATOM      8  C   UNL     1      44.178   3.183  10.931  0.00  0.00    +0.000 C 
BRANCH   8   9
ATOM      9  N   UNL     1      44.378   3.228   9.482  0.00  0.00    +0.000 NA
ATOM     10  H   UNL     1      44.978   4.016   9.246  0.00  0.00    +0.000 HD
BRANCH   9  11
ATOM     11  C   UNL     1      44.999   2.000   8.999  0.00  0.00    +0.000 C 
BRANCH  11  12
ATOM     12  C   UNL     1      46.073   2.368   8.028  0.00  0.00    +0.000 A 
ATOM     13  C   UNL     1      47.020   1.483   7.434  0.00  0.00    +0.000 A 
ATOM     14  C   UNL     1      47.847   2.226   6.622  0.00  0.00    +0.000 A 
ATOM     15  N   UNL     1      47.438   3.529   6.687  0.00  0.00    +0.000 N 
ATOM     16  C   UNL     1      46.367   3.630   7.538  0.00  0.00    +0.000 A 
ATOM     17  H   UNL     1      47.861   4.301   6.188  0.00  0.00    +0.000 HD
ENDBRANCH  11  12
ENDBRANCH   9  11
ENDBRANCH   8   9
ENDBRANCH   5   8
ENDBRANCH   1   2
BRANCH   1  18
ATOM     18  N   UNL     1      48.240   7.904  13.791  0.00  0.00    +0.000 N 
ATOM     19  C   UNL     1      48.627   8.146  15.126  0.00  0.00    +0.000 C 
ATOM     20  O   UNL     1      48.596   9.281  15.601  0.00  0.00    +0.000 OA
BRANCH  19  21
ATOM     21  C   UNL     1      49.124   7.032  15.961  0.00  0.00    +0.000 A 
ATOM     22  C   UNL     1      48.351   5.985  16.442  0.00  0.00    +0.000 A 
ATOM     23  S   UNL     1      49.233   4.817  17.322  0.00  0.00    +0.000 S 
ATOM     24  C   UNL     1      50.703   5.573  16.934  0.00  0.00    +0.000 A 
ATOM     25  N   UNL     1      51.890   5.000  17.266  0.00  0.00    +0.000 NA
ATOM     26  C   UNL     1      52.925   5.651  16.844  0.00  0.00    +0.000 A 
ATOM     27  N   UNL     1      52.877   6.845  16.170  0.00  0.00    +0.000 N 
ATOM     28  C   UNL     1      51.699   7.529  15.939  0.00  0.00    +0.000 A 
ATOM     29  O   UNL     1      51.711   8.692  15.561  0.00  0.00    +0.000 OA
ATOM     30  C   UNL     1      50.510   6.767  16.265  0.00  0.00    +0.000 A 
ATOM     31  H   UNL     1      53.723   7.340  15.937  0.00  0.00    +0.000 HD
ENDBRANCH  19  21
BRANCH  18  33
ATOM     32  C   UNL     1      48.764   9.154  11.707  0.00  0.00    +0.000 C 
ATOM     33  C   UNL     1      47.905   9.065  12.961  0.00  0.00    +0.000 C 
ENDBRANCH  18  33
ENDBRANCH   1  18
TORSDOF 8
ENDMDL
MODEL 7
REMARK VINA RESULT:    -6.269      3.131      8.416
REMARK INTER + INTRA:         -10.747
REMARK INTER:                  -9.134
REMARK INTRA:                  -1.613
REMARK UNBOUND:                -1.546
REMARK  Name = 
REMARK  9 active torsions:
REMARK  status: ('A' for Active; 'I' for Inactive)
REMARK    1  A    between atoms: C_1  and  C_2
REMARK    2  A    between atoms: C_2  and  N_3
REMARK    3  A    between atoms: N_3  and  C_4
REMARK    4  A    between atoms: C_4  and  C_5
REMARK    5  A    between atoms: C_8  and  C_9
REMARK    6  A    between atoms: C_9  and  N_10
REMARK    7  A    between atoms: N_10  and  C_11
REMARK    8  A    between atoms: C_11  and  C_12
REMARK    9  A    between atoms: C_19  and  C_21
REMARK                            x       y       z     vdW  Elec       q    Type
REMARK                         _______ _______ _______ _____ _____    ______ ____
ROOT
ATOM      1  C   UNL     1      47.393   6.206  12.294  0.00  0.00    +0.000 C 
ENDROOT
BRANCH   1   2
ATOM      2  C   UNL     1      47.643   5.586  13.642  0.00  0.00    +0.000 A 
ATOM      3  C   UNL     1      48.257   6.353  14.646  0.00  0.00    +0.000 A 
ATOM      4  C   UNL     1      48.212   5.944  15.977  0.00  0.00    +0.000 A 
ATOM      5  C   UNL     1      47.562   4.757  16.330  0.00  0.00    +0.000 A 
ATOM      6  C   UNL     1      47.042   3.939  15.313  0.00  0.00    +0.000 A 
ATOM      7  C   UNL     1      47.084   4.351  13.977  0.00  0.00    +0.000 A 
BRANCH   5   8
ATOM      8  C   UNL     1      47.391   4.391  17.787  0.00  0.00    +0.000 C 
BRANCH   8   9
ATOM      9  N   UNL     1      48.096   5.341  18.648  0.00  0.00    +0.000 NA
ATOM     10  H   UNL     1      47.437   5.765  19.298  0.00  0.00    +0.000 HD
BRANCH   9  11
ATOM     11  C   UNL     1      49.150   4.678  19.408  0.00  0.00    +0.000 C 
BRANCH  11  12
ATOM     12  C   UNL     1      50.443   4.873  18.686  0.00  0.00    +0.000 A 
ATOM     13  C   UNL     1      51.196   6.081  18.603  0.00  0.00    +0.000 A 
ATOM     14  C   UNL     1      52.306   5.840  17.825  0.00  0.00    +0.000 A 
ATOM     15  N   UNL     1      52.268   4.529  17.437  0.00  0.00    +0.000 N 
ATOM     16  C   UNL     1      51.143   3.933  17.948  0.00  0.00    +0.000 A 
ATOM     17  H   UNL     1      52.961   4.070  16.858  0.00  0.00    +0.000 HD
ENDBRANCH  11  12
ENDBRANCH   9  11
ENDBRANCH   8   9
ENDBRANCH   5   8
ENDBRANCH   1   2
BRANCH   1  18
ATOM     18  N   UNL     1      46.362   7.213  12.087  0.00  0.00    +0.000 N 
ATOM     19  C   UNL     1      45.030   6.861  11.780  0.00  0.00    +0.000 C 
ATOM     20  O   UNL     1      44.168   7.722  11.612  0.00  0.00    +0.000 OA
BRANCH  19  21
ATOM     21  C   UNL     1      44.646   5.435  11.702  0.00  0.00    +0.000 A 
ATOM     22  C   UNL     1      43.918   4.747  12.663  0.00  0.00    +0.000 A 
ATOM     23  S   UNL     1      43.576   3.126  12.247  0.00  0.00    +0.000 S 
ATOM     24  C   UNL     1      44.226   3.343  10.694  0.00  0.00    +0.000 A 
ATOM     25  N   UNL     1      44.125   2.366   9.754  0.00  0.00    +0.000 NA
ATOM     26  C   UNL     1      44.600   2.698   8.598  0.00  0.00    +0.000 A 
ATOM     27  N   UNL     1      45.210   3.894   8.316  0.00  0.00    +0.000 N 
ATOM     28  C   UNL     1      45.459   4.854   9.277  0.00  0.00    +0.000 A 
ATOM     29  O   UNL     1      46.214   5.789   9.052  0.00  0.00    +0.000 OA
ATOM     30  C   UNL     1      44.815   4.585  10.548  0.00  0.00    +0.000 A 
ATOM     31  H   UNL     1      45.628   4.059   7.413  0.00  0.00    +0.000 HD
ENDBRANCH  19  21
BRANCH  18  33
ATOM     32  C   UNL     1      48.097   8.989  11.974  0.00  0.00    +0.000 C 
ATOM     33  C   UNL     1      46.655   8.632  12.307  0.00  0.00    +0.000 C 
ENDBRANCH  18  33
ENDBRANCH   1  18
TORSDOF 8
ENDMDL
MODEL 8
REMARK VINA RESULT:    -5.746      2.763      5.079
REMARK INTER + INTRA:          -9.979
REMARK INTER:                  -8.490
REMARK INTRA:                  -1.489
REMARK UNBOUND:                -1.546
REMARK  Name = 
REMARK  9 active torsions:
REMARK  status: ('A' for Active; 'I' for Inactive)
REMARK    1  A    between atoms: C_1  and  C_2
REMARK    2  A    between atoms: C_2  and  N_3
REMARK    3  A    between atoms: N_3  and  C_4
REMARK    4  A    between atoms: C_4  and  C_5
REMARK    5  A    between atoms: C_8  and  C_9
REMARK    6  A    between atoms: C_9  and  N_10
REMARK    7  A    between atoms: N_10  and  C_11
REMARK    8  A    between atoms: C_11  and  C_12
REMARK    9  A    between atoms: C_19  and  C_21
REMARK                            x       y       z     vdW  Elec       q    Type
REMARK                         _______ _______ _______ _____ _____    ______ ____
ROOT
ATOM      1  C   UNL     1      49.561   7.338  16.883  0.00  0.00    +0.000 C 
ENDROOT
BRANCH   1   2
ATOM      2  C   UNL     1      48.930   7.484  15.525  0.00  0.00    +0.000 A 
ATOM      3  C   UNL     1      48.740   6.341  14.731  0.00  0.00    +0.000 A 
ATOM      4  C   UNL     1      47.883   6.376  13.634  0.00  0.00    +0.000 A 
ATOM      5  C   UNL     1      47.206   7.555  13.302  0.00  0.00    +0.000 A 
ATOM      6  C   UNL     1      47.479   8.723  14.033  0.00  0.00    +0.000 A 
ATOM      7  C   UNL     1      48.338   8.688  15.137  0.00  0.00    +0.000 A 
BRANCH   5   8
ATOM      8  C   UNL     1      46.170   7.550  12.202  0.00  0.00    +0.000 C 
BRANCH   8   9
ATOM      9  N   UNL     1      46.222   6.300  11.443  0.00  0.00    +0.000 NA
ATOM     10  H   UNL     1      46.412   5.525  12.077  0.00  0.00    +0.000 HD
BRANCH   9  11
ATOM     11  C   UNL     1      44.960   6.050  10.755  0.00  0.00    +0.000 C 
BRANCH  11  12
ATOM     12  C   UNL     1      44.450   4.712  11.183  0.00  0.00    +0.000 A 
ATOM     13  C   UNL     1      44.149   4.305  12.516  0.00  0.00    +0.000 A 
ATOM     14  C   UNL     1      43.732   2.993  12.478  0.00  0.00    +0.000 A 
ATOM     15  N   UNL     1      43.756   2.584  11.172  0.00  0.00    +0.000 N 
ATOM     16  C   UNL     1      44.193   3.614  10.379  0.00  0.00    +0.000 A 
ATOM     17  H   UNL     1      43.496   1.663  10.844  0.00  0.00    +0.000 HD
ENDBRANCH  11  12
ENDBRANCH   9  11
ENDBRANCH   8   9
ENDBRANCH   5   8
ENDBRANCH   1   2
BRANCH   1  18
ATOM     18  N   UNL     1      48.783   7.434  18.110  0.00  0.00    +0.000 N 
ATOM     19  C   UNL     1      48.142   6.311  18.674  0.00  0.00    +0.000 C 
ATOM     20  O   UNL     1      47.491   6.406  19.713  0.00  0.00    +0.000 OA
BRANCH  19  21
ATOM     21  C   UNL     1      48.286   4.985  18.037  0.00  0.00    +0.000 A 
ATOM     22  C   UNL     1      47.371   4.409  17.167  0.00  0.00    +0.000 A 
ATOM     23  S   UNL     1      47.858   2.895  16.546  0.00  0.00    +0.000 S 
ATOM     24  C   UNL     1      49.387   3.043  17.270  0.00  0.00    +0.000 A 
ATOM     25  N   UNL     1      50.368   2.135  17.020  0.00  0.00    +0.000 NA
ATOM     26  C   UNL     1      51.498   2.414  17.581  0.00  0.00    +0.000 A 
ATOM     27  N   UNL     1      51.718   3.486  18.409  0.00  0.00    +0.000 N 
ATOM     28  C   UNL     1      50.713   4.349  18.801  0.00  0.00    +0.000 A 
ATOM     29  O   UNL     1      50.884   5.136  19.721  0.00  0.00    +0.000 OA
ATOM     30  C   UNL     1      49.470   4.159  18.081  0.00  0.00    +0.000 A 
ATOM     31  H   UNL     1      52.603   3.604  18.877  0.00  0.00    +0.000 HD
ENDBRANCH  19  21
BRANCH  18  33
ATOM     32  C   UNL     1      47.563   9.571  18.463  0.00  0.00    +0.000 C 
ATOM     33  C   UNL     1      48.738   8.691  18.864  0.00  0.00    +0.000 C 
ENDBRANCH  18  33
ENDBRANCH   1  18
TORSDOF 8
ENDMDL
MODEL 9
REMARK VINA RESULT:    -5.635      2.644      4.427
REMARK INTER + INTRA:          -9.817
REMARK INTER:                  -8.392
REMARK INTRA:                  -1.425
REMARK UNBOUND:                -1.546
REMARK  Name = 
REMARK  9 active torsions:
REMARK  status: ('A' for Active; 'I' for Inactive)
REMARK    1  A    between atoms: C_1  and  C_2
REMARK    2  A    between atoms: C_2  and  N_3
REMARK    3  A    between atoms: N_3  and  C_4
REMARK    4  A    between atoms: C_4  and  C_5
REMARK    5  A    between atoms: C_8  and  C_9
REMARK    6  A    between atoms: C_9  and  N_10
REMARK    7  A    between atoms: N_10  and  C_11
REMARK    8  A    between atoms: C_11  and  C_12
REMARK    9  A    between atoms: C_19  and  C_21
REMARK                            x       y       z     vdW  Elec       q    Type
REMARK                         _______ _______ _______ _____ _____    ______ ____
ROOT
ATOM      1  C   UNL     1      48.996   6.618  14.430  0.00  0.00    +0.000 C 
ENDROOT
BRANCH   1   2
ATOM      2  C   UNL     1      47.692   6.308  13.748  0.00  0.00    +0.000 A 
ATOM      3  C   UNL     1      47.292   7.083  12.647  0.00  0.00    +0.000 A 
ATOM      4  C   UNL     1      46.281   6.640  11.798  0.00  0.00    +0.000 A 
ATOM      5  C   UNL     1      45.643   5.418  12.036  0.00  0.00    +0.000 A 
ATOM      6  C   UNL     1      45.970   4.696  13.196  0.00  0.00    +0.000 A 
ATOM      7  C   UNL     1      46.987   5.139  14.048  0.00  0.00    +0.000 A 
BRANCH   5   8
ATOM      8  C   UNL     1      44.649   4.874  11.035  0.00  0.00    +0.000 C 
BRANCH   8   9
ATOM      9  N   UNL     1      45.175   4.975   9.673  0.00  0.00    +0.000 NA
ATOM     10  H   UNL     1      46.172   4.770   9.677  0.00  0.00    +0.000 HD
BRANCH   9  11
ATOM     11  C   UNL     1      44.503   4.038   8.780  0.00  0.00    +0.000 C 
BRANCH  11  12
ATOM     12  C   UNL     1      45.530   3.114   8.211  0.00  0.00    +0.000 A 
ATOM     13  C   UNL     1      45.726   1.745   8.558  0.00  0.00    +0.000 A 
ATOM     14  C   UNL     1      46.788   1.266   7.824  0.00  0.00    +0.000 A 
ATOM     15  N   UNL     1      47.244   2.285   7.033  0.00  0.00    +0.000 N 
ATOM     16  C   UNL     1      46.493   3.411   7.261  0.00  0.00    +0.000 A 
ATOM     17  H   UNL     1      48.017   2.221   6.384  0.00  0.00    +0.000 HD
ENDBRANCH  11  12
ENDBRANCH   9  11
ENDBRANCH   8   9
ENDBRANCH   5   8
ENDBRANCH   1   2
BRANCH   1  18
ATOM     18  N   UNL     1      49.054   7.359  15.682  0.00  0.00    +0.000 N 
ATOM     19  C   UNL     1      49.360   8.737  15.717  0.00  0.00    +0.000 C 
ATOM     20  O   UNL     1      49.402   9.351  16.782  0.00  0.00    +0.000 OA
BRANCH  19  21
ATOM     21  C   UNL     1      49.592   9.471  14.455  0.00  0.00    +0.000 A 
ATOM     22  C   UNL     1      48.667  10.288  13.822  0.00  0.00    +0.000 A 
ATOM     23  S   UNL     1      49.261  11.051  12.414  0.00  0.00    +0.000 S 
ATOM     24  C   UNL     1      50.827  10.463  12.705  0.00  0.00    +0.000 A 
ATOM     25  N   UNL     1      51.876  10.862  11.938  0.00  0.00    +0.000 NA
ATOM     26  C   UNL     1      53.017  10.390  12.320  0.00  0.00    +0.000 A 
ATOM     27  N   UNL     1      53.193   9.518  13.364  0.00  0.00    +0.000 N 
ATOM     28  C   UNL     1      52.140   8.978  14.077  0.00  0.00    +0.000 A 
ATOM     29  O   UNL     1      52.310   8.028  14.827  0.00  0.00    +0.000 OA
ATOM     30  C   UNL     1      50.861   9.591  13.777  0.00  0.00    +0.000 A 
ATOM     31  H   UNL     1      54.101   9.127  13.562  0.00  0.00    +0.000 HD
ENDBRANCH  19  21
BRANCH  18  33
ATOM     32  C   UNL     1      49.710   5.694  17.407  0.00  0.00    +0.000 C 
ATOM     33  C   UNL     1      48.681   6.715  16.945  0.00  0.00    +0.000 C 
ENDBRANCH  18  33
ENDBRANCH   1  18
TORSDOF 8
ENDMDL
