MODEL 1
REMARK VINA RESULT:    -8.212      0.000      0.000
REMARK INTER + INTRA:         -13.367
REMARK INTER:                 -12.052
REMARK INTRA:                  -1.315
REMARK UNBOUND:                -1.315
REMARK  Name = 
REMARK  10 active torsions:
REMARK  status: ('A' for Active; 'I' for Inactive)
REMARK    1  A    between atoms: C_1  and  O_2
REMARK    2  A    between atoms: O_2  and  C_3
REMARK    3  A    between atoms: C_10  and  C_11
REMARK    4  A    between atoms: N_13  and  C_14
REMARK    5  A    between atoms: C_14  and  C_15
REMARK    6  A    between atoms: C_18  and  C_19
REMARK    7  A    between atoms: C_19  and  N_20
REMARK    8  A    between atoms: N_20  and  C_21
REMARK    9  A    between atoms: C_21  and  C_22
REMARK   10  A    between atoms: C_25  and  C_26
REMARK                            x       y       z     vdW  Elec       q    Type
REMARK                         _______ _______ _______ _____ _____    ______ ____
ROOT
ATOM      1  C   UNL     1      47.019   6.120  12.873  0.00  0.00    +0.000 A 
ATOM      2  C   UNL     1      46.525   6.636  11.668  0.00  0.00    +0.000 A 
ATOM      3  C   UNL     1      45.299   6.197  11.155  0.00  0.00    +0.000 A 
ATOM      4  C   UNL     1      44.538   5.236  11.837  0.00  0.00    +0.000 A 
ATOM      5  C   UNL     1      45.021   4.741  13.056  0.00  0.00    +0.000 A 
ATOM      6  C   UNL     1      46.246   5.182  13.569  0.00  0.00    +0.000 A 
ENDROOT
BRANCH   1   7
ATOM      7  C   UNL     1      48.332   6.607  13.435  0.00  0.00    +0.000 C 
BRANCH   7  10
ATOM      8  C   UNL     1      49.324   7.105  15.635  0.00  0.00    +0.000 C 
ATOM      9  O   UNL     1      50.371   7.491  15.121  0.00  0.00    +0.000 OA
ATOM     10  N   UNL     1      48.283   6.656  14.875  0.00  0.00    +0.000 N 
ATOM     11  H   UNL     1      47.445   6.306  15.319  0.00  0.00    +0.000 HD
BRANCH   8  19
ATOM     12  C   UNL     1      48.886   4.610  17.968  0.00  0.00    +0.000 A 
ATOM     13  N   UNL     1      48.711   3.852  19.068  0.00  0.00    +0.000 NA
ATOM     14  C   UNL     1      48.598   4.471  20.246  0.00  0.00    +0.000 A 
ATOM     15  N   UNL     1      48.634   5.783  20.469  0.00  0.00    +0.000 NA
ATOM     16  C   UNL     1      48.817   6.501  19.348  0.00  0.00    +0.000 A 
ATOM     17  S   UNL     1      48.888   8.194  19.442  0.00  0.00    +0.000 S 
ATOM     18  C   UNL     1      49.114   8.330  17.763  0.00  0.00    +0.000 A 
ATOM     19  C   UNL     1      49.142   7.107  17.099  0.00  0.00    +0.000 A 
ATOM     20  C   UNL     1      48.960   6.013  18.053  0.00  0.00    +0.000 A 
BRANCH  12  22
ATOM     21  C   UNL     1      47.865   3.278  16.335  0.00  0.00    +0.000 C 
ATOM     22  O   UNL     1      49.037   3.970  16.757  0.00  0.00    +0.000 OA
ENDBRANCH  12  22
ENDBRANCH   8  19
ENDBRANCH   7  10
ENDBRANCH   1   7
BRANCH   4  23
ATOM     23  C   UNL     1      43.223   4.747  11.266  0.00  0.00    +0.000 C 
BRANCH  23  24
ATOM     24  N   UNL     1      43.427   4.119   9.962  0.00  0.00    +0.000 NA
ATOM     25  H   UNL     1      43.951   4.762   9.368  0.00  0.00    +0.000 HD
BRANCH  24  26
ATOM     26  C   UNL     1      44.195   2.873  10.069  0.00  0.00    +0.000 C 
BRANCH  26  27
ATOM     27  C   UNL     1      45.169   2.716   8.913  0.00  0.00    +0.000 A 
ATOM     28  C   UNL     1      45.481   3.812   8.111  0.00  0.00    +0.000 A 
ATOM     29  C   UNL     1      46.407   3.660   7.082  0.00  0.00    +0.000 A 
ATOM     30  C   UNL     1      46.999   2.418   6.867  0.00  0.00    +0.000 A 
ATOM     31  C   UNL     1      48.006   2.204   5.783  0.00  0.00    +0.000 C 
ATOM     32  C   UNL     1      46.621   1.376   7.706  0.00  0.00    +0.000 A 
ATOM     33  N   UNL     1      45.729   1.495   8.719  0.00  0.00    +0.000 NA
ENDBRANCH  26  27
ENDBRANCH  24  26
ENDBRANCH  23  24
ENDBRANCH   4  23
TORSDOF 8
ENDMDL
MODEL 2
REMARK VINA RESULT:    -6.595      4.991      9.685
REMARK INTER + INTRA:         -10.994
REMARK INTER:                 -10.067
REMARK INTRA:                  -0.928
REMARK UNBOUND:                -1.315
REMARK  Name = 
REMARK  10 active torsions:
REMARK  status: ('A' for Active; 'I' for Inactive)
REMARK    1  A    between atoms: C_1  and  O_2
REMARK    2  A    between atoms: O_2  and  C_3
REMARK    3  A    between atoms: C_10  and  C_11
REMARK    4  A    between atoms: N_13  and  C_14
REMARK    5  A    between atoms: C_14  and  C_15
REMARK    6  A    between atoms: C_18  and  C_19
REMARK    7  A    between atoms: C_19  and  N_20
REMARK    8  A    between atoms: N_20  and  C_21
REMARK    9  A    between atoms: C_21  and  C_22
REMARK   10  A    between atoms: C_25  and  C_26
REMARK                            x       y       z     vdW  Elec       q    Type
REMARK                         _______ _______ _______ _____ _____    ______ ____
ROOT
ATOM      1  C   UNL     1      48.851   3.280  17.406  0.00  0.00    +0.000 A 
ATOM      2  C   UNL     1      49.390   4.371  18.100  0.00  0.00    +0.000 A 
ATOM      3  C   UNL     1      50.751   4.407  18.423  0.00  0.00    +0.000 A 
ATOM      4  C   UNL     1      51.605   3.356  18.057  0.00  0.00    +0.000 A 
ATOM      5  C   UNL     1      51.069   2.279  17.339  0.00  0.00    +0.000 A 
ATOM      6  C   UNL     1      49.708   2.244  17.013  0.00  0.00    +0.000 A 
ENDROOT
BRANCH   1   7
ATOM      7  C   UNL     1      47.387   3.249  17.040  0.00  0.00    +0.000 C 
BRANCH   7  10
ATOM      8  C   UNL     1      47.064   4.134  14.763  0.00  0.00    +0.000 C 
ATOM      9  O   UNL     1      47.339   3.048  14.258  0.00  0.00    +0.000 OA
ATOM     10  N   UNL     1      47.069   4.309  16.116  0.00  0.00    +0.000 N 
ATOM     11  H   UNL     1      46.879   5.221  16.511  0.00  0.00    +0.000 HD
BRANCH   8  19
ATOM     12  C   UNL     1      44.414   4.852  12.683  0.00  0.00    +0.000 A 
ATOM     13  N   UNL     1      43.514   5.384  11.834  0.00  0.00    +0.000 NA
ATOM     14  C   UNL     1      43.754   6.604  11.347  0.00  0.00    +0.000 A 
ATOM     15  N   UNL     1      44.806   7.377  11.604  0.00  0.00    +0.000 NA
ATOM     16  C   UNL     1      45.676   6.813  12.459  0.00  0.00    +0.000 A 
ATOM     17  S   UNL     1      47.081   7.656  12.902  0.00  0.00    +0.000 S 
ATOM     18  C   UNL     1      47.591   6.383  13.906  0.00  0.00    +0.000 A 
ATOM     19  C   UNL     1      46.717   5.301  13.930  0.00  0.00    +0.000 A 
ATOM     20  C   UNL     1      45.570   5.561  13.059  0.00  0.00    +0.000 A 
BRANCH  12  22
ATOM     21  C   UNL     1      43.577   2.705  12.271  0.00  0.00    +0.000 C 
ATOM     22  O   UNL     1      44.150   3.607  13.213  0.00  0.00    +0.000 OA
ENDBRANCH  12  22
ENDBRANCH   8  19
ENDBRANCH   7  10
ENDBRANCH   1   7
BRANCH   4  23
ATOM     23  C   UNL     1      53.072   3.390  18.430  0.00  0.00    +0.000 C 
BRANCH  23  24
ATOM     24  N   UNL     1      53.789   2.276  17.811  0.00  0.00    +0.000 NA
ATOM     25  H   UNL     1      54.485   2.653  17.167  0.00  0.00    +0.000 HD
BRANCH  24  26
ATOM     26  C   UNL     1      54.489   1.455  18.806  0.00  0.00    +0.000 C 
BRANCH  26  27
ATOM     27  C   UNL     1      54.565  -0.000  18.375  0.00  0.00    +0.000 A 
ATOM     28  C   UNL     1      54.912  -0.323  17.065  0.00  0.00    +0.000 A 
ATOM     29  C   UNL     1      55.016  -1.662  16.699  0.00  0.00    +0.000 A 
ATOM     30  C   UNL     1      54.766  -2.655  17.643  0.00  0.00    +0.000 A 
ATOM     31  C   UNL     1      54.874  -4.108  17.304  0.00  0.00    +0.000 C 
ATOM     32  C   UNL     1      54.413  -2.244  18.923  0.00  0.00    +0.000 A 
ATOM     33  N   UNL     1      54.311  -0.950  19.311  0.00  0.00    +0.000 NA
ENDBRANCH  26  27
ENDBRANCH  24  26
ENDBRANCH  23  24
ENDBRANCH   4  23
TORSDOF 8
ENDMDL
MODEL 3
REMARK VINA RESULT:    -6.528      3.634      8.959
REMARK INTER + INTRA:         -10.895
REMARK INTER:                  -9.100
REMARK INTRA:                  -1.795
REMARK UNBOUND:                -1.315
REMARK  Name = 
REMARK  10 active torsions:
REMARK  status: ('A' for Active; 'I' for Inactive)
REMARK    1  A    between atoms: C_1  and  O_2
REMARK    2  A    between atoms: O_2  and  C_3
REMARK    3  A    between atoms: C_10  and  C_11
REMARK    4  A    between atoms: N_13  and  C_14
REMARK    5  A    between atoms: C_14  and  C_15
REMARK    6  A    between atoms: C_18  and  C_19
REMARK    7  A    between atoms: C_19  and  N_20
REMARK    8  A    between atoms: N_20  and  C_21
REMARK    9  A    between atoms: C_21  and  C_22
REMARK   10  A    between atoms: C_25  and  C_26
REMARK                            x       y       z     vdW  Elec       q    Type
REMARK                         _______ _______ _______ _____ _____    ______ ____
ROOT
ATOM      1  C   UNL     1      48.512   3.617  17.532  0.00  0.00    +0.000 A 
ATOM      2  C   UNL     1      48.667   4.578  18.540  0.00  0.00    +0.000 A 
ATOM      3  C   UNL     1      49.926   4.831  19.094  0.00  0.00    +0.000 A 
ATOM      4  C   UNL     1      51.061   4.135  18.651  0.00  0.00    +0.000 A 
ATOM      5  C   UNL     1      50.908   3.194  17.624  0.00  0.00    +0.000 A 
ATOM      6  C   UNL     1      49.649   2.942  17.068  0.00  0.00    +0.000 A 
ENDROOT
BRANCH   1   7
ATOM      7  C   UNL     1      47.158   3.357  16.921  0.00  0.00    +0.000 C 
BRANCH   7  10
ATOM      8  C   UNL     1      46.958   4.202  14.615  0.00  0.00    +0.000 C 
ATOM      9  O   UNL     1      47.379   3.146  14.148  0.00  0.00    +0.000 OA
ATOM     10  N   UNL     1      46.825   4.380  15.961  0.00  0.00    +0.000 N 
ATOM     11  H   UNL     1      46.514   5.270  16.327  0.00  0.00    +0.000 HD
BRANCH   8  19
ATOM     12  C   UNL     1      44.193   4.860  12.670  0.00  0.00    +0.000 A 
ATOM     13  N   UNL     1      43.249   5.364  11.852  0.00  0.00    +0.000 NA
ATOM     14  C   UNL     1      43.478   6.551  11.284  0.00  0.00    +0.000 A 
ATOM     15  N   UNL     1      44.558   7.314  11.430  0.00  0.00    +0.000 NA
ATOM     16  C   UNL     1      45.471   6.779  12.259  0.00  0.00    +0.000 A 
ATOM     17  S   UNL     1      46.916   7.616  12.563  0.00  0.00    +0.000 S 
ATOM     18  C   UNL     1      47.468   6.390  13.602  0.00  0.00    +0.000 A 
ATOM     19  C   UNL     1      46.578   5.329  13.742  0.00  0.00    +0.000 A 
ATOM     20  C   UNL     1      45.383   5.565  12.932  0.00  0.00    +0.000 A 
BRANCH  12  22
ATOM     21  C   UNL     1      43.515   2.639  12.378  0.00  0.00    +0.000 C 
ATOM     22  O   UNL     1      43.942   3.652  13.284  0.00  0.00    +0.000 OA
ENDBRANCH  12  22
ENDBRANCH   8  19
ENDBRANCH   7  10
ENDBRANCH   1   7
BRANCH   4  23
ATOM     23  C   UNL     1      52.417   4.397  19.271  0.00  0.00    +0.000 C 
BRANCH  23  24
ATOM     24  N   UNL     1      52.645   5.832  19.429  0.00  0.00    +0.000 NA
ATOM     25  H   UNL     1      53.355   5.972  20.149  0.00  0.00    +0.000 HD
BRANCH  24  26
ATOM     26  C   UNL     1      53.130   6.449  18.188  0.00  0.00    +0.000 C 
BRANCH  26  27
ATOM     27  C   UNL     1      52.016   7.174  17.452  0.00  0.00    +0.000 A 
ATOM     28  C   UNL     1      51.557   6.689  16.229  0.00  0.00    +0.000 A 
ATOM     29  C   UNL     1      50.508   7.343  15.588  0.00  0.00    +0.000 A 
ATOM     30  C   UNL     1      49.940   8.471  16.174  0.00  0.00    +0.000 A 
ATOM     31  C   UNL     1      48.806   9.204  15.532  0.00  0.00    +0.000 C 
ATOM     32  C   UNL     1      50.468   8.894  17.389  0.00  0.00    +0.000 A 
ATOM     33  N   UNL     1      51.483   8.275  18.039  0.00  0.00    +0.000 NA
ENDBRANCH  26  27
ENDBRANCH  24  26
ENDBRANCH  23  24
ENDBRANCH   4  23
TORSDOF 8
ENDMDL
MODEL 4
REMARK VINA RESULT:    -6.452      5.136      9.700
REMARK INTER + INTRA:         -10.784
REMARK INTER:                  -9.593
REMARK INTRA:                  -1.190
REMARK UNBOUND:                -1.315
REMARK  Name = 
REMARK  10 active torsions:
REMARK  status: ('A' for Active; 'I' for Inactive)
REMARK    1  A    between atoms: C_1  and  O_2
REMARK    2  A    between atoms: O_2  and  C_3
REMARK    3  A    between atoms: C_10  and  C_11
REMARK    4  A    between atoms: N_13  and  C_14
REMARK    5  A    between atoms: C_14  and  C_15
REMARK    6  A    between atoms: C_18  and  C_19
REMARK    7  A    between atoms: C_19  and  N_20
REMARK    8  A    between atoms: N_20  and  C_21
REMARK    9  A    between atoms: C_21  and  C_22
REMARK   10  A    between atoms: C_25  and  C_26
REMARK                            x       y       z     vdW  Elec       q    Type
REMARK                         _______ _______ _______ _____ _____    ______ ____
ROOT
ATOM      1  C   UNL     1      48.708   3.395  17.252  0.00  0.00    +0.000 A 
ATOM      2  C   UNL     1      49.491   4.381  17.867  0.00  0.00    +0.000 A 
ATOM      3  C   UNL     1      50.844   4.150  18.136  0.00  0.00    +0.000 A 
ATOM      4  C   UNL     1      51.448   2.931  17.792  0.00  0.00    +0.000 A 
ATOM      5  C   UNL     1      50.670   1.958  17.151  0.00  0.00    +0.000 A 
ATOM      6  C   UNL     1      49.317   2.189  16.880  0.00  0.00    +0.000 A 
ENDROOT
BRANCH   1   7
ATOM      7  C   UNL     1      47.253   3.651  16.944  0.00  0.00    +0.000 C 
BRANCH   7  10
ATOM      8  C   UNL     1      47.106   4.245  14.557  0.00  0.00    +0.000 C 
ATOM      9  O   UNL     1      47.218   3.069  14.216  0.00  0.00    +0.000 OA
ATOM     10  N   UNL     1      47.118   4.606  15.873  0.00  0.00    +0.000 N 
ATOM     11  H   UNL     1      47.064   5.582  16.131  0.00  0.00    +0.000 HD
BRANCH   8  19
ATOM     12  C   UNL     1      48.851   7.147  13.932  0.00  0.00    +0.000 A 
ATOM     13  N   UNL     1      49.345   8.312  13.471  0.00  0.00    +0.000 NA
ATOM     14  C   UNL     1      48.734   8.888  12.433  0.00  0.00    +0.000 A 
ATOM     15  N   UNL     1      47.663   8.438  11.783  0.00  0.00    +0.000 NA
ATOM     16  C   UNL     1      47.206   7.271  12.269  0.00  0.00    +0.000 A 
ATOM     17  S   UNL     1      45.843   6.547  11.562  0.00  0.00    +0.000 S 
ATOM     18  C   UNL     1      45.910   5.241  12.647  0.00  0.00    +0.000 A 
ATOM     19  C   UNL     1      46.957   5.321  13.560  0.00  0.00    +0.000 A 
ATOM     20  C   UNL     1      47.730   6.542  13.332  0.00  0.00    +0.000 A 
BRANCH  12  22
ATOM     21  C   UNL     1      49.759   7.413  16.073  0.00  0.00    +0.000 C 
ATOM     22  O   UNL     1      49.503   6.535  14.980  0.00  0.00    +0.000 OA
ENDBRANCH  12  22
ENDBRANCH   8  19
ENDBRANCH   7  10
ENDBRANCH   1   7
BRANCH   4  23
ATOM     23  C   UNL     1      52.908   2.678  18.106  0.00  0.00    +0.000 C 
BRANCH  23  24
ATOM     24  N   UNL     1      53.104   1.311  18.586  0.00  0.00    +0.000 NA
ATOM     25  H   UNL     1      52.206   0.826  18.565  0.00  0.00    +0.000 HD
BRANCH  24  26
ATOM     26  C   UNL     1      54.042   0.563  17.741  0.00  0.00    +0.000 C 
BRANCH  26  27
ATOM     27  C   UNL     1      54.158  -0.886  18.183  0.00  0.00    +0.000 A 
ATOM     28  C   UNL     1      55.141  -1.707  17.632  0.00  0.00    +0.000 A 
ATOM     29  C   UNL     1      55.258  -3.021  18.078  0.00  0.00    +0.000 A 
ATOM     30  C   UNL     1      54.390  -3.495  19.058  0.00  0.00    +0.000 A 
ATOM     31  C   UNL     1      54.480  -4.894  19.578  0.00  0.00    +0.000 C 
ATOM     32  C   UNL     1      53.431  -2.613  19.543  0.00  0.00    +0.000 A 
ATOM     33  N   UNL     1      53.297  -1.328  19.134  0.00  0.00    +0.000 NA
ENDBRANCH  26  27
ENDBRANCH  24  26
ENDBRANCH  23  24
ENDBRANCH   4  23
TORSDOF 8
ENDMDL
MODEL 5
REMARK VINA RESULT:    -5.839      1.846      2.253
REMARK INTER + INTRA:          -9.885
REMARK INTER:                 -10.134
REMARK INTRA:                   0.250
REMARK UNBOUND:                -1.315
REMARK  Name = 
REMARK  10 active torsions:
REMARK  status: ('A' for Active; 'I' for Inactive)
REMARK    1  A    between atoms: C_1  and  O_2
REMARK    2  A    between atoms: O_2  and  C_3
REMARK    3  A    between atoms: C_10  and  C_11
REMARK    4  A    between atoms: N_13  and  C_14
REMARK    5  A    between atoms: C_14  and  C_15
REMARK    6  A    between atoms: C_18  and  C_19
REMARK    7  A    between atoms: C_19  and  N_20
REMARK    8  A    between atoms: N_20  and  C_21
REMARK    9  A    between atoms: C_21  and  C_22
REMARK   10  A    between atoms: C_25  and  C_26
REMARK                            x       y       z     vdW  Elec       q    Type
REMARK                         _______ _______ _______ _____ _____    ______ ____
ROOT
ATOM      1  C   UNL     1      46.946   7.146  13.201  0.00  0.00    +0.000 A 
ATOM      2  C   UNL     1      46.682   5.782  13.382  0.00  0.00    +0.000 A 
ATOM      3  C   UNL     1      46.101   5.028  12.358  0.00  0.00    +0.000 A 
ATOM      4  C   UNL     1      45.773   5.617  11.127  0.00  0.00    +0.000 A 
ATOM      5  C   UNL     1      46.064   6.975  10.938  0.00  0.00    +0.000 A 
ATOM      6  C   UNL     1      46.647   7.730  11.962  0.00  0.00    +0.000 A 
ENDROOT
BRANCH   1   7
ATOM      7  C   UNL     1      47.591   7.956  14.299  0.00  0.00    +0.000 C 
BRANCH   7  10
ATOM      8  C   UNL     1      49.210   7.404  16.072  0.00  0.00    +0.000 C 
ATOM      9  O   UNL     1      48.588   8.066  16.901  0.00  0.00    +0.000 OA
ATOM     10  N   UNL     1      48.784   7.306  14.780  0.00  0.00    +0.000 N 
ATOM     11  H   UNL     1      49.331   6.790  14.103  0.00  0.00    +0.000 HD
BRANCH   8  19
ATOM     12  C   UNL     1      49.827   4.360  17.560  0.00  0.00    +0.000 A 
ATOM     13  N   UNL     1      50.345   3.241  18.103  0.00  0.00    +0.000 NA
ATOM     14  C   UNL     1      51.674   3.133  18.173  0.00  0.00    +0.000 A 
ATOM     15  N   UNL     1      52.573   4.025  17.763  0.00  0.00    +0.000 NA
ATOM     16  C   UNL     1      52.016   5.122  17.222  0.00  0.00    +0.000 A 
ATOM     17  S   UNL     1      53.013   6.368  16.645  0.00  0.00    +0.000 S 
ATOM     18  C   UNL     1      51.669   7.294  16.170  0.00  0.00    +0.000 A 
ATOM     19  C   UNL     1      50.446   6.686  16.435  0.00  0.00    +0.000 A 
ATOM     20  C   UNL     1      50.658   5.384  17.068  0.00  0.00    +0.000 A 
BRANCH  12  22
ATOM     21  C   UNL     1      47.924   3.740  16.346  0.00  0.00    +0.000 C 
ATOM     22  O   UNL     1      48.456   4.457  17.457  0.00  0.00    +0.000 OA
ENDBRANCH  12  22
ENDBRANCH   8  19
ENDBRANCH   7  10
ENDBRANCH   1   7
BRANCH   4  23
ATOM     23  C   UNL     1      45.123   4.801  10.030  0.00  0.00    +0.000 C 
BRANCH  23  24
ATOM     24  N   UNL     1      44.073   3.943  10.577  0.00  0.00    +0.000 NA
ATOM     25  H   UNL     1      43.166   4.331  10.316  0.00  0.00    +0.000 HD
BRANCH  24  26
ATOM     26  C   UNL     1      44.151   2.577  10.046  0.00  0.00    +0.000 C 
BRANCH  26  27
ATOM     27  C   UNL     1      45.083   2.495   8.848  0.00  0.00    +0.000 A 
ATOM     28  C   UNL     1      45.067   3.500   7.883  0.00  0.00    +0.000 A 
ATOM     29  C   UNL     1      45.956   3.429   6.813  0.00  0.00    +0.000 A 
ATOM     30  C   UNL     1      46.838   2.356   6.721  0.00  0.00    +0.000 A 
ATOM     31  C   UNL     1      47.818   2.237   5.598  0.00  0.00    +0.000 C 
ATOM     32  C   UNL     1      46.776   1.391   7.720  0.00  0.00    +0.000 A 
ATOM     33  N   UNL     1      45.928   1.436   8.776  0.00  0.00    +0.000 NA
ENDBRANCH  26  27
ENDBRANCH  24  26
ENDBRANCH  23  24
ENDBRANCH   4  23
TORSDOF 8
ENDMDL
MODEL 6
REMARK VINA RESULT:    -5.545      2.389      3.317
REMARK INTER + INTRA:          -9.453
REMARK INTER:                  -9.372
REMARK INTRA:                  -0.081
REMARK UNBOUND:                -1.315
REMARK  Name = 
REMARK  10 active torsions:
REMARK  status: ('A' for Active; 'I' for Inactive)
REMARK    1  A    between atoms: C_1  and  O_2
REMARK    2  A    between atoms: O_2  and  C_3
REMARK    3  A    between atoms: C_10  and  C_11
REMARK    4  A    between atoms: N_13  and  C_14
REMARK    5  A    between atoms: C_14  and  C_15
REMARK    6  A    between atoms: C_18  and  C_19
REMARK    7  A    between atoms: C_19  and  N_20
REMARK    8  A    between atoms: N_20  and  C_21
REMARK    9  A    between atoms: C_21  and  C_22
REMARK   10  A    between atoms: C_25  and  C_26
REMARK                            x       y       z     vdW  Elec       q    Type
REMARK                         _______ _______ _______ _____ _____    ______ ____
ROOT
ATOM      1  C   UNL     1      46.979   6.083  13.788  0.00  0.00    +0.000 A 
ATOM      2  C   UNL     1      46.320   4.852  13.677  0.00  0.00    +0.000 A 
ATOM      3  C   UNL     1      45.794   4.435  12.449  0.00  0.00    +0.000 A 
ATOM      4  C   UNL     1      45.918   5.235  11.304  0.00  0.00    +0.000 A 
ATOM      5  C   UNL     1      46.602   6.453  11.411  0.00  0.00    +0.000 A 
ATOM      6  C   UNL     1      47.130   6.871  12.638  0.00  0.00    +0.000 A 
ENDROOT
BRANCH   1   7
ATOM      7  C   UNL     1      47.563   6.526  15.107  0.00  0.00    +0.000 C 
BRANCH   7  10
ATOM      8  C   UNL     1      48.487   4.947  16.758  0.00  0.00    +0.000 C 
ATOM      9  O   UNL     1      47.543   5.132  17.523  0.00  0.00    +0.000 OA
ATOM     10  N   UNL     1      48.566   5.595  15.560  0.00  0.00    +0.000 N 
ATOM     11  H   UNL     1      49.370   5.459  14.961  0.00  0.00    +0.000 HD
BRANCH   8  19
ATOM     12  C   UNL     1      51.692   5.393  17.933  0.00  0.00    +0.000 A 
ATOM     13  N   UNL     1      52.955   5.280  18.388  0.00  0.00    +0.000 NA
ATOM     14  C   UNL     1      53.475   4.055  18.503  0.00  0.00    +0.000 A 
ATOM     15  N   UNL     1      52.879   2.901  18.210  0.00  0.00    +0.000 NA
ATOM     16  C   UNL     1      51.620   3.058  17.768  0.00  0.00    +0.000 A 
ATOM     17  S   UNL     1      50.706   1.692  17.346  0.00  0.00    +0.000 S 
ATOM     18  C   UNL     1      49.367   2.652  16.928  0.00  0.00    +0.000 A 
ATOM     19  C   UNL     1      49.579   4.017  17.098  0.00  0.00    +0.000 A 
ATOM     20  C   UNL     1      50.933   4.256  17.600  0.00  0.00    +0.000 A 
BRANCH  12  22
ATOM     21  C   UNL     1      50.530   7.085  19.059  0.00  0.00    +0.000 C 
ATOM     22  O   UNL     1      51.144   6.655  17.848  0.00  0.00    +0.000 OA
ENDBRANCH  12  22
ENDBRANCH   8  19
ENDBRANCH   7  10
ENDBRANCH   1   7
BRANCH   4  23
ATOM     23  C   UNL     1      45.327   4.789   9.983  0.00  0.00    +0.000 C 
BRANCH  23  24
ATOM     24  N   UNL     1      44.122   3.990  10.200  0.00  0.00    +0.000 NA
ATOM     25  H   UNL     1      43.352   4.412   9.678  0.00  0.00    +0.000 HD
BRANCH  24  26
ATOM     26  C   UNL     1      44.287   2.611   9.726  0.00  0.00    +0.000 C 
BRANCH  26  27
ATOM     27  C   UNL     1      45.264   2.531   8.565  0.00  0.00    +0.000 A 
ATOM     28  C   UNL     1      46.107   1.429   8.437  0.00  0.00    +0.000 A 
ATOM     29  C   UNL     1      46.967   1.354   7.345  0.00  0.00    +0.000 A 
ATOM     30  C   UNL     1      46.978   2.382   6.406  0.00  0.00    +0.000 A 
ATOM     31  C   UNL     1      47.876   2.346   5.210  0.00  0.00    +0.000 C 
ATOM     32  C   UNL     1      46.115   3.451   6.619  0.00  0.00    +0.000 A 
ATOM     33  N   UNL     1      45.262   3.548   7.667  0.00  0.00    +0.000 NA
ENDBRANCH  26  27
ENDBRANCH  24  26
ENDBRANCH  23  24
ENDBRANCH   4  23
TORSDOF 8
ENDMDL
