MODEL 1
REMARK VINA RESULT:    -7.817      0.000      0.000
REMARK INTER + INTRA:         -13.141
REMARK INTER:                 -11.472
REMARK INTRA:                  -1.668
REMARK UNBOUND:                -1.668
REMARK  Name = 
REMARK  9 active torsions:
REMARK  status: ('A' for Active; 'I' for Inactive)
REMARK    1  A    between atoms: C_1  and  O_2
REMARK    2  A    between atoms: O_2  and  C_3
REMARK    3  A    between atoms: C_10  and  C_11
REMARK    4  A    between atoms: N_13  and  C_14
REMARK    5  A    between atoms: C_14  and  C_15
REMARK    6  A    between atoms: C_18  and  C_19
REMARK    7  A    between atoms: C_19  and  C_20
REMARK    8  A    between atoms: C_20  and  S_21
REMARK    9  A    between atoms: S_21  and  C_22
REMARK                            x       y       z     vdW  Elec       q    Type
REMARK                         _______ _______ _______ _____ _____    ______ ____
ROOT
ATOM      1  C   UNL     1      48.295   7.919  12.835  0.00  0.00    +0.000 C 
ENDROOT
BRANCH   1   2
ATOM      2  C   UNL     1      47.056   7.307  12.230  0.00  0.00    +0.000 A 
ATOM      3  C   UNL     1      45.819   7.406  12.882  0.00  0.00    +0.000 A 
ATOM      4  C   UNL     1      44.692   6.745  12.385  0.00  0.00    +0.000 A 
ATOM      5  C   UNL     1      44.768   5.977  11.216  0.00  0.00    +0.000 A 
ATOM      6  C   UNL     1      45.996   5.907  10.544  0.00  0.00    +0.000 A 
ATOM      7  C   UNL     1      47.129   6.560  11.049  0.00  0.00    +0.000 A 
BRANCH   5   8
ATOM      8  C   UNL     1      43.577   5.178  10.731  0.00  0.00    +0.000 C 
BRANCH   8   9
ATOM      9  C   UNL     1      43.849   4.386   9.448  0.00  0.00    +0.000 C 
BRANCH   9  10
ATOM     10  S   UNL     1      44.474   2.717   9.861  0.00  0.00    +0.000 S 
BRANCH  10  11
ATOM     11  C   UNL     1      45.602   2.445   8.503  0.00  0.00    +0.000 A 
ATOM     12  C   UNL     1      45.849   3.489   7.616  0.00  0.00    +0.000 A 
ATOM     13  C   UNL     1      46.726   3.275   6.553  0.00  0.00    +0.000 A 
ATOM     14  C   UNL     1      47.325   2.032   6.408  0.00  0.00    +0.000 A 
ATOM     15  C   UNL     1      47.026   1.051   7.336  0.00  0.00    +0.000 A 
ATOM     16  N   UNL     1      46.182   1.231   8.377  0.00  0.00    +0.000 NA
ENDBRANCH  10  11
ENDBRANCH   9  10
ENDBRANCH   8   9
ENDBRANCH   5   8
ENDBRANCH   1   2
BRANCH   1  19
ATOM     17  C   UNL     1      48.654   7.558  15.242  0.00  0.00    +0.000 C 
ATOM     18  O   UNL     1      48.266   8.688  15.516  0.00  0.00    +0.000 OA
ATOM     19  N   UNL     1      48.775   7.128  13.944  0.00  0.00    +0.000 N 
ATOM     20  H   UNL     1      48.963   6.147  13.770  0.00  0.00    +0.000 HD
BRANCH  17  28
ATOM     21  C   UNL     1      47.517   4.497  16.090  0.00  0.00    +0.000 A 
ATOM     22  N   UNL     1      47.200   3.287  16.605  0.00  0.00    +0.000 NA
ATOM     23  C   UNL     1      47.876   2.823  17.665  0.00  0.00    +0.000 A 
ATOM     24  C   UNL     1      48.905   3.502  18.279  0.00  0.00    +0.000 A 
ATOM     25  C   UNL     1      49.231   4.753  17.739  0.00  0.00    +0.000 A 
ATOM     26  S   UNL     1      50.457   5.807  18.321  0.00  0.00    +0.000 S 
ATOM     27  C   UNL     1      50.088   6.985  17.160  0.00  0.00    +0.000 A 
ATOM     28  C   UNL     1      49.075   6.614  16.289  0.00  0.00    +0.000 A 
ATOM     29  C   UNL     1      48.559   5.288  16.630  0.00  0.00    +0.000 A 
BRANCH  21  31
ATOM     30  C   UNL     1      46.897   4.018  13.891  0.00  0.00    +0.000 C 
ATOM     31  O   UNL     1      46.825   4.933  14.979  0.00  0.00    +0.000 OA
ENDBRANCH  21  31
ENDBRANCH  17  28
ENDBRANCH   1  19
TORSDOF 8
ENDMDL
MODEL 2
REMARK VINA RESULT:    -7.499      2.303      3.249
REMARK INTER + INTRA:         -12.675
REMARK INTER:                 -11.418
REMARK INTRA:                  -1.256
REMARK UNBOUND:                -1.668
REMARK  Name = 
REMARK  9 active torsions:
REMARK  status: ('A' for Active; 'I' for Inactive)
REMARK    1  A    between atoms: C_1  and  O_2
REMARK    2  A    between atoms: O_2  and  C_3
REMARK    3  A    between atoms: C_10  and  C_11
REMARK    4  A    between atoms: N_13  and  C_14
REMARK    5  A    between atoms: C_14  and  C_15
REMARK    6  A    between atoms: C_18  and  C_19
REMARK    7  A    between atoms: C_19  and  C_20
REMARK    8  A    between atoms: C_20  and  S_21
REMARK    9  A    between atoms: S_21  and  C_22
REMARK                            x       y       z     vdW  Elec       q    Type
REMARK                         _______ _______ _______ _____ _____    ______ ____
ROOT
ATOM      1  C   UNL     1      48.552   6.679  14.037  0.00  0.00    +0.000 C 
ENDROOT
BRANCH   1   2
ATOM      2  C   UNL     1      47.415   6.159  13.191  0.00  0.00    +0.000 A 
ATOM      3  C   UNL     1      47.094   6.772  11.973  0.00  0.00    +0.000 A 
ATOM      4  C   UNL     1      45.972   6.368  11.241  0.00  0.00    +0.000 A 
ATOM      5  C   UNL     1      45.151   5.332  11.703  0.00  0.00    +0.000 A 
ATOM      6  C   UNL     1      45.493   4.695  12.903  0.00  0.00    +0.000 A 
ATOM      7  C   UNL     1      46.609   5.107  13.642  0.00  0.00    +0.000 A 
BRANCH   5   8
ATOM      8  C   UNL     1      43.880   4.960  10.966  0.00  0.00    +0.000 C 
BRANCH   8   9
ATOM      9  C   UNL     1      44.128   4.337   9.589  0.00  0.00    +0.000 C 
BRANCH   9  10
ATOM     10  S   UNL     1      44.534   2.562   9.767  0.00  0.00    +0.000 S 
BRANCH  10  11
ATOM     11  C   UNL     1      45.672   2.349   8.406  0.00  0.00    +0.000 A 
ATOM     12  C   UNL     1      45.886   3.414   7.537  0.00  0.00    +0.000 A 
ATOM     13  C   UNL     1      46.769   3.246   6.472  0.00  0.00    +0.000 A 
ATOM     14  C   UNL     1      47.409   2.026   6.307  0.00  0.00    +0.000 A 
ATOM     15  C   UNL     1      47.140   1.021   7.218  0.00  0.00    +0.000 A 
ATOM     16  N   UNL     1      46.291   1.157   8.260  0.00  0.00    +0.000 NA
ENDBRANCH  10  11
ENDBRANCH   9  10
ENDBRANCH   8   9
ENDBRANCH   5   8
ENDBRANCH   1   2
BRANCH   1  19
ATOM     17  C   UNL     1      49.126   6.338  16.404  0.00  0.00    +0.000 C 
ATOM     18  O   UNL     1      50.241   5.915  16.121  0.00  0.00    +0.000 OA
ATOM     19  N   UNL     1      48.205   6.660  15.438  0.00  0.00    +0.000 N 
ATOM     20  H   UNL     1      47.354   7.136  15.715  0.00  0.00    +0.000 HD
BRANCH  17  28
ATOM     21  C   UNL     1      47.875   8.954  18.129  0.00  0.00    +0.000 A 
ATOM     22  N   UNL     1      47.390   9.868  19.000  0.00  0.00    +0.000 NA
ATOM     23  C   UNL     1      47.170   9.515  20.274  0.00  0.00    +0.000 A 
ATOM     24  C   UNL     1      47.396   8.252  20.772  0.00  0.00    +0.000 A 
ATOM     25  C   UNL     1      47.894   7.307  19.865  0.00  0.00    +0.000 A 
ATOM     26  S   UNL     1      48.275   5.673  20.230  0.00  0.00    +0.000 S 
ATOM     27  C   UNL     1      48.810   5.375  18.649  0.00  0.00    +0.000 A 
ATOM     28  C   UNL     1      48.685   6.467  17.802  0.00  0.00    +0.000 A 
ATOM     29  C   UNL     1      48.143   7.621  18.521  0.00  0.00    +0.000 A 
BRANCH  21  31
ATOM     30  C   UNL     1      49.259  10.082  16.627  0.00  0.00    +0.000 C 
ATOM     31  O   UNL     1      48.061   9.338  16.818  0.00  0.00    +0.000 OA
ENDBRANCH  21  31
ENDBRANCH  17  28
ENDBRANCH   1  19
TORSDOF 8
ENDMDL
MODEL 3
REMARK VINA RESULT:    -7.391      1.548      1.779
REMARK INTER + INTRA:         -12.516
REMARK INTER:                 -11.270
REMARK INTRA:                  -1.246
REMARK UNBOUND:                -1.668
REMARK  Name = 
REMARK  9 active torsions:
REMARK  status: ('A' for Active; 'I' for Inactive)
REMARK    1  A    between atoms: C_1  and  O_2
REMARK    2  A    between atoms: O_2  and  C_3
REMARK    3  A    between atoms: C_10  and  C_11
REMARK    4  A    between atoms: N_13  and  C_14
REMARK    5  A    between atoms: C_14  and  C_15
REMARK    6  A    between atoms: C_18  and  C_19
REMARK    7  A    between atoms: C_19  and  C_20
REMARK    8  A    between atoms: C_20  and  S_21
REMARK    9  A    between atoms: S_21  and  C_22
REMARK                            x       y       z     vdW  Elec       q    Type
REMARK                         _______ _______ _______ _____ _____    ______ ____
ROOT
ATOM      1  C   UNL     1      48.628   6.695  13.435  0.00  0.00    +0.000 C 
ENDROOT
BRANCH   1   2
ATOM      2  C   UNL     1      47.289   6.301  12.862  0.00  0.00    +0.000 A 
ATOM      3  C   UNL     1      46.557   5.244  13.419  0.00  0.00    +0.000 A 
ATOM      4  C   UNL     1      45.372   4.800  12.823  0.00  0.00    +0.000 A 
ATOM      5  C   UNL     1      44.880   5.412  11.663  0.00  0.00    +0.000 A 
ATOM      6  C   UNL     1      45.593   6.492  11.127  0.00  0.00    +0.000 A 
ATOM      7  C   UNL     1      46.787   6.928  11.716  0.00  0.00    +0.000 A 
BRANCH   5   8
ATOM      8  C   UNL     1      43.654   4.870  10.958  0.00  0.00    +0.000 C 
BRANCH   8   9
ATOM      9  C   UNL     1      43.959   4.225   9.602  0.00  0.00    +0.000 C 
BRANCH   9  10
ATOM     10  S   UNL     1      44.537   2.505   9.842  0.00  0.00    +0.000 S 
BRANCH  10  11
ATOM     11  C   UNL     1      45.658   2.342   8.461  0.00  0.00    +0.000 A 
ATOM     12  C   UNL     1      45.854   3.435   7.622  0.00  0.00    +0.000 A 
ATOM     13  C   UNL     1      46.725   3.306   6.541  0.00  0.00    +0.000 A 
ATOM     14  C   UNL     1      47.369   2.095   6.330  0.00  0.00    +0.000 A 
ATOM     15  C   UNL     1      47.118   1.061   7.213  0.00  0.00    +0.000 A 
ATOM     16  N   UNL     1      46.282   1.159   8.270  0.00  0.00    +0.000 NA
ENDBRANCH  10  11
ENDBRANCH   9  10
ENDBRANCH   8   9
ENDBRANCH   5   8
ENDBRANCH   1   2
BRANCH   1  19
ATOM     17  C   UNL     1      49.688   7.050  15.626  0.00  0.00    +0.000 C 
ATOM     18  O   UNL     1      50.779   7.277  15.114  0.00  0.00    +0.000 OA
ATOM     19  N   UNL     1      48.599   6.678  14.878  0.00  0.00    +0.000 N 
ATOM     20  H   UNL     1      47.690   6.639  15.326  0.00  0.00    +0.000 HD
BRANCH  17  28
ATOM     21  C   UNL     1      48.937   4.651  17.876  0.00  0.00    +0.000 A 
ATOM     22  N   UNL     1      48.618   3.858  18.925  0.00  0.00    +0.000 NA
ATOM     23  C   UNL     1      48.505   4.394  20.147  0.00  0.00    +0.000 A 
ATOM     24  C   UNL     1      48.707   5.727  20.424  0.00  0.00    +0.000 A 
ATOM     25  C   UNL     1      49.041   6.543  19.336  0.00  0.00    +0.000 A 
ATOM     26  S   UNL     1      49.328   8.236  19.403  0.00  0.00    +0.000 S 
ATOM     27  C   UNL     1      49.582   8.326  17.730  0.00  0.00    +0.000 A 
ATOM     28  C   UNL     1      49.498   7.102  17.085  0.00  0.00    +0.000 A 
ATOM     29  C   UNL     1      49.173   6.037  18.034  0.00  0.00    +0.000 A 
BRANCH  21  31
ATOM     30  C   UNL     1      47.965   3.250  16.283  0.00  0.00    +0.000 C 
ATOM     31  O   UNL     1      49.077   4.064  16.636  0.00  0.00    +0.000 OA
ENDBRANCH  21  31
ENDBRANCH  17  28
ENDBRANCH   1  19
TORSDOF 8
ENDMDL
MODEL 4
REMARK VINA RESULT:    -6.465      2.592      3.590
REMARK INTER + INTRA:         -11.157
REMARK INTER:                 -10.061
REMARK INTRA:                  -1.096
REMARK UNBOUND:                -1.668
REMARK  Name = 
REMARK  9 active torsions:
REMARK  status: ('A' for Active; 'I' for Inactive)
REMARK    1  A    between atoms: C_1  and  O_2
REMARK    2  A    between atoms: O_2  and  C_3
REMARK    3  A    between atoms: C_10  and  C_11
REMARK    4  A    between atoms: N_13  and  C_14
REMARK    5  A    between atoms: C_14  and  C_15
REMARK    6  A    between atoms: C_18  and  C_19
REMARK    7  A    between atoms: C_19  and  C_20
REMARK    8  A    between atoms: C_20  and  S_21
REMARK    9  A    between atoms: S_21  and  C_22
REMARK                            x       y       z     vdW  Elec       q    Type
REMARK                         _______ _______ _______ _____ _____    ______ ____
ROOT
ATOM      1  C   UNL     1      47.392   4.180  15.182  0.00  0.00    +0.000 C 
ENDROOT
BRANCH   1   2
ATOM      2  C   UNL     1      46.538   4.369  13.952  0.00  0.00    +0.000 A 
ATOM      3  C   UNL     1      46.061   5.639  13.603  0.00  0.00    +0.000 A 
ATOM      4  C   UNL     1      45.177   5.803  12.531  0.00  0.00    +0.000 A 
ATOM      5  C   UNL     1      44.758   4.702  11.773  0.00  0.00    +0.000 A 
ATOM      6  C   UNL     1      45.264   3.437  12.100  0.00  0.00    +0.000 A 
ATOM      7  C   UNL     1      46.139   3.271  13.181  0.00  0.00    +0.000 A 
BRANCH   5   8
ATOM      8  C   UNL     1      43.724   4.861  10.678  0.00  0.00    +0.000 C 
BRANCH   8   9
ATOM      9  C   UNL     1      44.041   4.059   9.412  0.00  0.00    +0.000 C 
BRANCH   9  10
ATOM     10  S   UNL     1      45.559   4.708   8.623  0.00  0.00    +0.000 S 
BRANCH  10  11
ATOM     11  C   UNL     1      46.270   3.197   7.988  0.00  0.00    +0.000 A 
ATOM     12  C   UNL     1      45.791   1.979   8.463  0.00  0.00    +0.000 A 
ATOM     13  C   UNL     1      46.349   0.800   7.971  0.00  0.00    +0.000 A 
ATOM     14  C   UNL     1      47.363   0.871   7.027  0.00  0.00    +0.000 A 
ATOM     15  C   UNL     1      47.778   2.123   6.609  0.00  0.00    +0.000 A 
ATOM     16  N   UNL     1      47.253   3.281   7.066  0.00  0.00    +0.000 NA
ENDBRANCH  10  11
ENDBRANCH   9  10
ENDBRANCH   8   9
ENDBRANCH   5   8
ENDBRANCH   1   2
BRANCH   1  19
ATOM     17  C   UNL     1      48.606   5.739  16.647  0.00  0.00    +0.000 C 
ATOM     18  O   UNL     1      49.546   4.963  16.772  0.00  0.00    +0.000 OA
ATOM     19  N   UNL     1      47.474   5.401  15.949  0.00  0.00    +0.000 N 
ATOM     20  H   UNL     1      46.787   6.120  15.753  0.00  0.00    +0.000 HD
BRANCH  17  28
ATOM     21  C   UNL     1      47.877   6.696  19.799  0.00  0.00    +0.000 A 
ATOM     22  N   UNL     1      47.605   7.290  20.984  0.00  0.00    +0.000 NA
ATOM     23  C   UNL     1      47.710   8.621  21.095  0.00  0.00    +0.000 A 
ATOM     24  C   UNL     1      48.095   9.451  20.067  0.00  0.00    +0.000 A 
ATOM     25  C   UNL     1      48.380   8.831  18.843  0.00  0.00    +0.000 A 
ATOM     26  S   UNL     1      48.865   9.633  17.403  0.00  0.00    +0.000 S 
ATOM     27  C   UNL     1      48.914   8.180  16.532  0.00  0.00    +0.000 A 
ATOM     28  C   UNL     1      48.609   7.062  17.293  0.00  0.00    +0.000 A 
ATOM     29  C   UNL     1      48.288   7.443  18.669  0.00  0.00    +0.000 A 
BRANCH  21  31
ATOM     30  C   UNL     1      48.748   4.665  20.548  0.00  0.00    +0.000 C 
ATOM     31  O   UNL     1      47.791   5.322  19.724  0.00  0.00    +0.000 OA
ENDBRANCH  21  31
ENDBRANCH  17  28
ENDBRANCH   1  19
TORSDOF 8
ENDMDL
MODEL 5
REMARK VINA RESULT:    -6.442      1.575      2.045
REMARK INTER + INTRA:         -11.123
REMARK INTER:                 -10.126
REMARK INTRA:                  -0.997
REMARK UNBOUND:                -1.668
REMARK  Name = 
REMARK  9 active torsions:
REMARK  status: ('A' for Active; 'I' for Inactive)
REMARK    1  A    between atoms: C_1  and  O_2
REMARK    2  A    between atoms: O_2  and  C_3
REMARK    3  A    between atoms: C_10  and  C_11
REMARK    4  A    between atoms: N_13  and  C_14
REMARK    5  A    between atoms: C_14  and  C_15
REMARK    6  A    between atoms: C_18  and  C_19
REMARK    7  A    between atoms: C_19  and  C_20
REMARK    8  A    between atoms: C_20  and  S_21
REMARK    9  A    between atoms: S_21  and  C_22
REMARK                            x       y       z     vdW  Elec       q    Type
REMARK                         _______ _______ _______ _____ _____    ______ ____
ROOT
ATOM      1  C   UNL     1      47.520   8.767  14.020  0.00  0.00    +0.000 C 
ENDROOT
BRANCH   1   2
ATOM      2  C   UNL     1      46.704   7.776  13.227  0.00  0.00    +0.000 A 
ATOM      3  C   UNL     1      47.036   6.415  13.227  0.00  0.00    +0.000 A 
ATOM      4  C   UNL     1      46.356   5.511  12.405  0.00  0.00    +0.000 A 
ATOM      5  C   UNL     1      45.316   5.942  11.572  0.00  0.00    +0.000 A 
ATOM      6  C   UNL     1      44.960   7.297  11.599  0.00  0.00    +0.000 A 
ATOM      7  C   UNL     1      45.649   8.205  12.413  0.00  0.00    +0.000 A 
BRANCH   5   8
ATOM      8  C   UNL     1      44.646   4.987  10.607  0.00  0.00    +0.000 C 
BRANCH   8   9
ATOM      9  C   UNL     1      45.092   3.531  10.774  0.00  0.00    +0.000 C 
BRANCH   9  10
ATOM     10  S   UNL     1      44.340   2.490   9.470  0.00  0.00    +0.000 S 
BRANCH  10  11
ATOM     11  C   UNL     1      45.642   2.508   8.247  0.00  0.00    +0.000 A 
ATOM     12  C   UNL     1      46.408   1.360   8.066  0.00  0.00    +0.000 A 
ATOM     13  C   UNL     1      47.428   1.375   7.115  0.00  0.00    +0.000 A 
ATOM     14  C   UNL     1      47.651   2.530   6.379  0.00  0.00    +0.000 A 
ATOM     15  C   UNL     1      46.842   3.625   6.622  0.00  0.00    +0.000 A 
ATOM     16  N   UNL     1      45.846   3.638   7.535  0.00  0.00    +0.000 NA
ENDBRANCH  10  11
ENDBRANCH   9  10
ENDBRANCH   8   9
ENDBRANCH   5   8
ENDBRANCH   1   2
BRANCH   1  19
ATOM     17  C   UNL     1      48.986   8.078  15.871  0.00  0.00    +0.000 C 
ATOM     18  O   UNL     1      48.283   8.642  16.701  0.00  0.00    +0.000 OA
ATOM     19  N   UNL     1      48.727   8.158  14.525  0.00  0.00    +0.000 N 
ATOM     20  H   UNL     1      49.249   7.563  13.892  0.00  0.00    +0.000 HD
BRANCH  17  28
ATOM     21  C   UNL     1      49.410   4.909  16.948  0.00  0.00    +0.000 A 
ATOM     22  N   UNL     1      49.793   3.699  17.417  0.00  0.00    +0.000 NA
ATOM     23  C   UNL     1      51.084   3.478  17.698  0.00  0.00    +0.000 A 
ATOM     24  C   UNL     1      52.080   4.414  17.529  0.00  0.00    +0.000 A 
ATOM     25  C   UNL     1      51.678   5.664  17.039  0.00  0.00    +0.000 A 
ATOM     26  S   UNL     1      52.711   7.007  16.754  0.00  0.00    +0.000 S 
ATOM     27  C   UNL     1      51.416   7.985  16.266  0.00  0.00    +0.000 A 
ATOM     28  C   UNL     1      50.192   7.331  16.265  0.00  0.00    +0.000 A 
ATOM     29  C   UNL     1      50.341   5.951  16.728  0.00  0.00    +0.000 A 
BRANCH  21  31
ATOM     30  C   UNL     1      47.385   3.869  16.435  0.00  0.00    +0.000 C 
ATOM     31  O   UNL     1      48.080   5.095  16.637  0.00  0.00    +0.000 OA
ENDBRANCH  21  31
ENDBRANCH  17  28
ENDBRANCH   1  19
TORSDOF 8
ENDMDL
MODEL 6
REMARK VINA RESULT:    -6.371      4.741      9.549
REMARK INTER + INTRA:         -11.019
REMARK INTER:                 -10.204
REMARK INTRA:                  -0.815
REMARK UNBOUND:                -1.668
REMARK  Name = 
REMARK  9 active torsions:
REMARK  status: ('A' for Active; 'I' for Inactive)
REMARK    1  A    between atoms: C_1  and  O_2
REMARK    2  A    between atoms: O_2  and  C_3
REMARK    3  A    between atoms: C_10  and  C_11
REMARK    4  A    between atoms: N_13  and  C_14
REMARK    5  A    between atoms: C_14  and  C_15
REMARK    6  A    between atoms: C_18  and  C_19
REMARK    7  A    between atoms: C_19  and  C_20
REMARK    8  A    between atoms: C_20  and  S_21
REMARK    9  A    between atoms: S_21  and  C_22
REMARK                            x       y       z     vdW  Elec       q    Type
REMARK                         _______ _______ _______ _____ _____    ______ ____
ROOT
ATOM      1  C   UNL     1      47.255   3.567  16.843  0.00  0.00    +0.000 C 
ENDROOT
BRANCH   1   2
ATOM      2  C   UNL     1      48.724   3.297  17.054  0.00  0.00    +0.000 A 
ATOM      3  C   UNL     1      49.284   2.065  16.690  0.00  0.00    +0.000 A 
ATOM      4  C   UNL     1      50.618   1.767  16.987  0.00  0.00    +0.000 A 
ATOM      5  C   UNL     1      51.431   2.700  17.644  0.00  0.00    +0.000 A 
ATOM      6  C   UNL     1      50.881   3.945  17.976  0.00  0.00    +0.000 A 
ATOM      7  C   UNL     1      49.542   4.239  17.689  0.00  0.00    +0.000 A 
BRANCH   5   8
ATOM      8  C   UNL     1      52.844   2.344  18.058  0.00  0.00    +0.000 C 
BRANCH   8   9
ATOM      9  C   UNL     1      53.241   0.906  17.712  0.00  0.00    +0.000 C 
BRANCH   9  10
ATOM     10  S   UNL     1      54.737   0.426  18.651  0.00  0.00    +0.000 S 
BRANCH  10  11
ATOM     11  C   UNL     1      54.476  -1.335  18.803  0.00  0.00    +0.000 A 
ATOM     12  C   UNL     1      54.886  -2.167  17.766  0.00  0.00    +0.000 A 
ATOM     13  C   UNL     1      54.678  -3.540  17.882  0.00  0.00    +0.000 A 
ATOM     14  C   UNL     1      54.068  -4.039  19.024  0.00  0.00    +0.000 A 
ATOM     15  C   UNL     1      53.693  -3.142  20.008  0.00  0.00    +0.000 A 
ATOM     16  N   UNL     1      53.885  -1.807  19.922  0.00  0.00    +0.000 NA
ENDBRANCH  10  11
ENDBRANCH   9  10
ENDBRANCH   8   9
ENDBRANCH   5   8
ENDBRANCH   1   2
BRANCH   1  19
ATOM     17  C   UNL     1      46.978   4.398  14.545  0.00  0.00    +0.000 C 
ATOM     18  O   UNL     1      47.214   3.295  14.067  0.00  0.00    +0.000 OA
ATOM     19  N   UNL     1      47.055   4.637  15.894  0.00  0.00    +0.000 N 
ATOM     20  H   UNL     1      46.715   5.521  16.254  0.00  0.00    +0.000 HD
BRANCH  17  28
ATOM     21  C   UNL     1      44.232   5.157  12.737  0.00  0.00    +0.000 A 
ATOM     22  N   UNL     1      43.253   5.632  11.933  0.00  0.00    +0.000 NA
ATOM     23  C   UNL     1      43.440   6.784  11.275  0.00  0.00    +0.000 A 
ATOM     24  C   UNL     1      44.583   7.547  11.369  0.00  0.00    +0.000 A 
ATOM     25  C   UNL     1      45.591   7.052  12.206  0.00  0.00    +0.000 A 
ATOM     26  S   UNL     1      47.114   7.796  12.486  0.00  0.00    +0.000 S 
ATOM     27  C   UNL     1      47.617   6.536  13.503  0.00  0.00    +0.000 A 
ATOM     28  C   UNL     1      46.657   5.553  13.690  0.00  0.00    +0.000 A 
ATOM     29  C   UNL     1      45.450   5.853  12.918  0.00  0.00    +0.000 A 
BRANCH  21  31
ATOM     30  C   UNL     1      43.702   2.890  12.565  0.00  0.00    +0.000 C 
ATOM     31  O   UNL     1      43.997   3.985  13.425  0.00  0.00    +0.000 OA
ENDBRANCH  21  31
ENDBRANCH  17  28
ENDBRANCH   1  19
TORSDOF 8
ENDMDL
MODEL 7
REMARK VINA RESULT:    -6.276      2.066      3.674
REMARK INTER + INTRA:         -10.880
REMARK INTER:                  -9.790
REMARK INTRA:                  -1.090
REMARK UNBOUND:                -1.668
REMARK  Name = 
REMARK  9 active torsions:
REMARK  status: ('A' for Active; 'I' for Inactive)
REMARK    1  A    between atoms: C_1  and  O_2
REMARK    2  A    between atoms: O_2  and  C_3
REMARK    3  A    between atoms: C_10  and  C_11
REMARK    4  A    between atoms: N_13  and  C_14
REMARK    5  A    between atoms: C_14  and  C_15
REMARK    6  A    between atoms: C_18  and  C_19
REMARK    7  A    between atoms: C_19  and  C_20
REMARK    8  A    between atoms: C_20  and  S_21
REMARK    9  A    between atoms: S_21  and  C_22
REMARK                            x       y       z     vdW  Elec       q    Type
REMARK                         _______ _______ _______ _____ _____    ______ ____
ROOT
ATOM      1  C   UNL     1      47.586   4.041  15.200  0.00  0.00    +0.000 C 
ENDROOT
BRANCH   1   2
ATOM      2  C   UNL     1      46.716   4.282  13.990  0.00  0.00    +0.000 A 
ATOM      3  C   UNL     1      46.356   5.583  13.617  0.00  0.00    +0.000 A 
ATOM      4  C   UNL     1      45.459   5.806  12.568  0.00  0.00    +0.000 A 
ATOM      5  C   UNL     1      44.909   4.733  11.856  0.00  0.00    +0.000 A 
ATOM      6  C   UNL     1      45.297   3.433  12.205  0.00  0.00    +0.000 A 
ATOM      7  C   UNL     1      46.186   3.209  13.264  0.00  0.00    +0.000 A 
BRANCH   5   8
ATOM      8  C   UNL     1      43.860   4.965  10.787  0.00  0.00    +0.000 C 
BRANCH   8   9
ATOM      9  C   UNL     1      44.095   4.153   9.510  0.00  0.00    +0.000 C 
BRANCH   9  10
ATOM     10  S   UNL     1      45.608   4.739   8.663  0.00  0.00    +0.000 S 
BRANCH  10  11
ATOM     11  C   UNL     1      46.210   3.205   7.972  0.00  0.00    +0.000 A 
ATOM     12  C   UNL     1      47.025   3.251   6.845  0.00  0.00    +0.000 A 
ATOM     13  C   UNL     1      47.490   2.054   6.302  0.00  0.00    +0.000 A 
ATOM     14  C   UNL     1      47.130   0.854   6.898  0.00  0.00    +0.000 A 
ATOM     15  C   UNL     1      46.318   0.900   8.017  0.00  0.00    +0.000 A 
ATOM     16  N   UNL     1      45.855   2.045   8.565  0.00  0.00    +0.000 NA
ENDBRANCH  10  11
ENDBRANCH   9  10
ENDBRANCH   8   9
ENDBRANCH   5   8
ENDBRANCH   1   2
BRANCH   1  19
ATOM     17  C   UNL     1      48.634   5.678  16.707  0.00  0.00    +0.000 C 
ATOM     18  O   UNL     1      49.734   5.150  16.592  0.00  0.00    +0.000 OA
ATOM     19  N   UNL     1      47.511   5.150  16.121  0.00  0.00    +0.000 N 
ATOM     20  H   UNL     1      46.656   5.695  16.126  0.00  0.00    +0.000 HD
BRANCH  17  28
ATOM     21  C   UNL     1      48.850   8.965  15.977  0.00  0.00    +0.000 A 
ATOM     22  N   UNL     1      48.911  10.315  15.906  0.00  0.00    +0.000 NA
ATOM     23  C   UNL     1      48.690  11.045  17.007  0.00  0.00    +0.000 A 
ATOM     24  C   UNL     1      48.385  10.508  18.238  0.00  0.00    +0.000 A 
ATOM     25  C   UNL     1      48.319   9.110  18.305  0.00  0.00    +0.000 A 
ATOM     26  S   UNL     1      47.975   8.191  19.715  0.00  0.00    +0.000 S 
ATOM     27  C   UNL     1      48.158   6.725  18.885  0.00  0.00    +0.000 A 
ATOM     28  C   UNL     1      48.441   6.879  17.536  0.00  0.00    +0.000 A 
ATOM     29  C   UNL     1      48.541   8.296  17.185  0.00  0.00    +0.000 A 
BRANCH  21  31
ATOM     30  C   UNL     1      50.429   8.053  14.521  0.00  0.00    +0.000 C 
ATOM     31  O   UNL     1      49.051   8.242  14.820  0.00  0.00    +0.000 OA
ENDBRANCH  21  31
ENDBRANCH  17  28
ENDBRANCH   1  19
TORSDOF 8
ENDMDL
MODEL 8
REMARK VINA RESULT:    -6.215      3.602      8.983
REMARK INTER + INTRA:         -10.790
REMARK INTER:                  -9.313
REMARK INTRA:                  -1.477
REMARK UNBOUND:                -1.668
REMARK  Name = 
REMARK  9 active torsions:
REMARK  status: ('A' for Active; 'I' for Inactive)
REMARK    1  A    between atoms: C_1  and  O_2
REMARK    2  A    between atoms: O_2  and  C_3
REMARK    3  A    between atoms: C_10  and  C_11
REMARK    4  A    between atoms: N_13  and  C_14
REMARK    5  A    between atoms: C_14  and  C_15
REMARK    6  A    between atoms: C_18  and  C_19
REMARK    7  A    between atoms: C_19  and  C_20
REMARK    8  A    between atoms: C_20  and  S_21
REMARK    9  A    between atoms: S_21  and  C_22
REMARK                            x       y       z     vdW  Elec       q    Type
REMARK                         _______ _______ _______ _____ _____    ______ ____
ROOT
ATOM      1  C   UNL     1      47.379   3.439  16.717  0.00  0.00    +0.000 C 
ENDROOT
BRANCH   1   2
ATOM      2  C   UNL     1      48.848   3.327  17.045  0.00  0.00    +0.000 A 
ATOM      3  C   UNL     1      49.538   2.128  16.828  0.00  0.00    +0.000 A 
ATOM      4  C   UNL     1      50.869   1.982  17.235  0.00  0.00    +0.000 A 
ATOM      5  C   UNL     1      51.547   3.037  17.858  0.00  0.00    +0.000 A 
ATOM      6  C   UNL     1      50.867   4.249  18.043  0.00  0.00    +0.000 A 
ATOM      7  C   UNL     1      49.531   4.391  17.646  0.00  0.00    +0.000 A 
BRANCH   5   8
ATOM      8  C   UNL     1      52.952   2.851  18.392  0.00  0.00    +0.000 C 
BRANCH   8   9
ATOM      9  C   UNL     1      54.040   3.395  17.460  0.00  0.00    +0.000 C 
BRANCH   9  10
ATOM     10  S   UNL     1      54.850   4.848  18.222  0.00  0.00    +0.000 S 
BRANCH  10  11
ATOM     11  C   UNL     1      53.765   6.155  17.666  0.00  0.00    +0.000 A 
ATOM     12  C   UNL     1      53.457   6.241  16.311  0.00  0.00    +0.000 A 
ATOM     13  C   UNL     1      52.615   7.263  15.877  0.00  0.00    +0.000 A 
ATOM     14  C   UNL     1      52.110   8.165  16.802  0.00  0.00    +0.000 A 
ATOM     15  C   UNL     1      52.465   8.005  18.129  0.00  0.00    +0.000 A 
ATOM     16  N   UNL     1      53.277   7.023  18.579  0.00  0.00    +0.000 NA
ENDBRANCH  10  11
ENDBRANCH   9  10
ENDBRANCH   8   9
ENDBRANCH   5   8
ENDBRANCH   1   2
BRANCH   1  19
ATOM     17  C   UNL     1      46.996   4.315  14.451  0.00  0.00    +0.000 C 
ATOM     18  O   UNL     1      47.213   3.222  13.941  0.00  0.00    +0.000 OA
ATOM     19  N   UNL     1      47.135   4.527  15.800  0.00  0.00    +0.000 N 
ATOM     20  H   UNL     1      46.810   5.404  16.192  0.00  0.00    +0.000 HD
BRANCH  17  28
ATOM     21  C   UNL     1      44.217   5.045  12.683  0.00  0.00    +0.000 A 
ATOM     22  N   UNL     1      43.219   5.516  11.900  0.00  0.00    +0.000 NA
ATOM     23  C   UNL     1      43.366   6.693  11.278  0.00  0.00    +0.000 A 
ATOM     24  C   UNL     1      44.486   7.487  11.389  0.00  0.00    +0.000 A 
ATOM     25  C   UNL     1      45.515   6.997  12.204  0.00  0.00    +0.000 A 
ATOM     26  S   UNL     1      47.016   7.778  12.499  0.00  0.00    +0.000 S 
ATOM     27  C   UNL     1      47.563   6.504  13.473  0.00  0.00    +0.000 A 
ATOM     28  C   UNL     1      46.635   5.486  13.635  0.00  0.00    +0.000 A 
ATOM     29  C   UNL     1      45.415   5.772  12.880  0.00  0.00    +0.000 A 
BRANCH  21  31
ATOM     30  C   UNL     1      43.693   2.784  12.449  0.00  0.00    +0.000 C 
ATOM     31  O   UNL     1      44.022   3.847  13.336  0.00  0.00    +0.000 OA
ENDBRANCH  21  31
ENDBRANCH  17  28
ENDBRANCH   1  19
TORSDOF 8
ENDMDL
MODEL 9
REMARK VINA RESULT:    -6.199      4.517      6.342
REMARK INTER + INTRA:         -10.767
REMARK INTER:                  -9.871
REMARK INTRA:                  -0.897
REMARK UNBOUND:                -1.668
REMARK  Name = 
REMARK  9 active torsions:
REMARK  status: ('A' for Active; 'I' for Inactive)
REMARK    1  A    between atoms: C_1  and  O_2
REMARK    2  A    between atoms: O_2  and  C_3
REMARK    3  A    between atoms: C_10  and  C_11
REMARK    4  A    between atoms: N_13  and  C_14
REMARK    5  A    between atoms: C_14  and  C_15
REMARK    6  A    between atoms: C_18  and  C_19
REMARK    7  A    between atoms: C_19  and  C_20
REMARK    8  A    between atoms: C_20  and  S_21
REMARK    9  A    between atoms: S_21  and  C_22
REMARK                            x       y       z     vdW  Elec       q    Type
REMARK                         _______ _______ _______ _____ _____    ______ ____
ROOT
ATOM      1  C   UNL     1      49.634   7.681  13.294  0.00  0.00    +0.000 C 
ENDROOT
BRANCH   1   2
ATOM      2  C   UNL     1      48.340   6.993  12.936  0.00  0.00    +0.000 A 
ATOM      3  C   UNL     1      47.771   6.048  13.800  0.00  0.00    +0.000 A 
ATOM      4  C   UNL     1      46.635   5.324  13.423  0.00  0.00    +0.000 A 
ATOM      5  C   UNL     1      46.031   5.536  12.177  0.00  0.00    +0.000 A 
ATOM      6  C   UNL     1      46.579   6.506  11.328  0.00  0.00    +0.000 A 
ATOM      7  C   UNL     1      47.724   7.222  11.700  0.00  0.00    +0.000 A 
BRANCH   5   8
ATOM      8  C   UNL     1      44.864   4.683  11.724  0.00  0.00    +0.000 C 
BRANCH   8   9
ATOM      9  C   UNL     1      44.849   4.414  10.216  0.00  0.00    +0.000 C 
BRANCH   9  10
ATOM     10  S   UNL     1      44.523   2.642   9.898  0.00  0.00    +0.000 S 
BRANCH  10  11
ATOM     11  C   UNL     1      45.640   2.343   8.537  0.00  0.00    +0.000 A 
ATOM     12  C   UNL     1      45.946   3.394   7.676  0.00  0.00    +0.000 A 
ATOM     13  C   UNL     1      46.814   3.159   6.611  0.00  0.00    +0.000 A 
ATOM     14  C   UNL     1      47.347   1.890   6.437  0.00  0.00    +0.000 A 
ATOM     15  C   UNL     1      46.991   0.904   7.339  0.00  0.00    +0.000 A 
ATOM     16  N   UNL     1      46.154   1.104   8.382  0.00  0.00    +0.000 NA
ENDBRANCH  10  11
ENDBRANCH   9  10
ENDBRANCH   8   9
ENDBRANCH   5   8
ENDBRANCH   1   2
BRANCH   1  19
ATOM     17  C   UNL     1      51.484   8.632  11.980  0.00  0.00    +0.000 C 
ATOM     18  O   UNL     1      52.315   8.280  12.809  0.00  0.00    +0.000 OA
ATOM     19  N   UNL     1      50.138   8.449  12.179  0.00  0.00    +0.000 N 
ATOM     20  H   UNL     1      49.502   8.626  11.410  0.00  0.00    +0.000 HD
BRANCH  17  28
ATOM     21  C   UNL     1      53.113   7.576   9.221  0.00  0.00    +0.000 A 
ATOM     22  N   UNL     1      53.766   7.369   8.055  0.00  0.00    +0.000 NA
ATOM     23  C   UNL     1      53.934   8.388   7.202  0.00  0.00    +0.000 A 
ATOM     24  C   UNL     1      53.468   9.664   7.427  0.00  0.00    +0.000 A 
ATOM     25  C   UNL     1      52.789   9.873   8.635  0.00  0.00    +0.000 A 
ATOM     26  S   UNL     1      52.125  11.365   9.166  0.00  0.00    +0.000 S 
ATOM     27  C   UNL     1      51.605  10.689  10.630  0.00  0.00    +0.000 A 
ATOM     28  C   UNL     1      51.876   9.334  10.747  0.00  0.00    +0.000 A 
ATOM     29  C   UNL     1      52.584   8.843   9.564  0.00  0.00    +0.000 A 
BRANCH  21  31
ATOM     30  C   UNL     1      53.961   5.528   9.951  0.00  0.00    +0.000 C 
ATOM     31  O   UNL     1      52.927   6.500  10.063  0.00  0.00    +0.000 OA
ENDBRANCH  21  31
ENDBRANCH  17  28
ENDBRANCH   1  19
TORSDOF 8
ENDMDL
