MODEL 1
REMARK VINA RESULT:    -8.583      0.000      0.000
REMARK INTER + INTRA:         -15.261
REMARK INTER:                 -13.851
REMARK INTRA:                  -1.410
REMARK UNBOUND:                -1.410
REMARK  Name = 
REMARK  12 active torsions:
REMARK  status: ('A' for Active; 'I' for Inactive)
REMARK    1  A    between atoms: C_1  and  C_2
REMARK    2  A    between atoms: C_2  and  N_3
REMARK    3  A    between atoms: C_2  and  C_22
REMARK    4  A    between atoms: N_3  and  C_4
REMARK    5  A    between atoms: C_4  and  C_5
REMARK    6  A    between atoms: C_8  and  CA_9
REMARK    7  A    between atoms: CA_9  and  C_10
REMARK    8  A    between atoms: CA_9  and  N_12
REMARK    9  A    between atoms: C_10  and  O_11
REMARK   10  A    between atoms: N_12  and  C_13
REMARK   11  A    between atoms: C_13  and  C_14
REMARK   12  A    between atoms: C_22  and  C_24
REMARK                            x       y       z     vdW  Elec       q    Type
REMARK                         _______ _______ _______ _____ _____    ______ ____
ROOT
ATOM      1  C   UNL     1      47.559   6.173  13.659  0.00  0.00    +0.000 A 
ATOM      2  C   UNL     1      46.922   4.963  13.978  0.00  0.00    +0.000 A 
ATOM      3  C   UNL     1      45.978   4.388  13.122  0.00  0.00    +0.000 A 
ATOM      4  C   UNL     1      45.609   5.008  11.923  0.00  0.00    +0.000 A 
ATOM      5  C   UNL     1      46.181   6.264  11.646  0.00  0.00    +0.000 A 
ATOM      6  C   UNL     1      47.134   6.840  12.503  0.00  0.00    +0.000 A 
ENDROOT
BRANCH   1   7
ATOM      7  C   UNL     1      48.656   6.769  14.532  0.00  0.00    +0.000 C 
BRANCH   7   8
ATOM      8  N   UNL     1      48.952   5.916  15.691  0.00  0.00    +0.000 NA
ATOM      9  H   UNL     1      48.439   5.044  15.575  0.00  0.00    +0.000 HD
BRANCH   8  11
ATOM     10  C   UNL     1      49.072   7.894  17.197  0.00  0.00    +0.000 C 
ATOM     11  C   UNL     1      48.577   6.457  17.015  0.00  0.00    +0.000 C 
BRANCH  11  12
ATOM     12  C   UNL     1      48.979   5.534  18.190  0.00  0.00    +0.000 C 
ATOM     13  O   UNL     1      48.174   5.280  19.087  0.00  0.00    +0.000 OA
BRANCH  12  14
ATOM     14  C   UNL     1      50.338   4.959  18.236  0.00  0.00    +0.000 A 
ATOM     15  C   UNL     1      51.436   5.611  18.772  0.00  0.00    +0.000 A 
ATOM     16  S   UNL     1      52.829   4.622  18.874  0.00  0.00    +0.000 S 
ATOM     17  C   UNL     1      52.014   3.306  18.169  0.00  0.00    +0.000 A 
ATOM     18  N   UNL     1      52.629   2.106  18.006  0.00  0.00    +0.000 NA
ATOM     19  C   UNL     1      51.881   1.196  17.471  0.00  0.00    +0.000 A 
ATOM     20  N   UNL     1      50.583   1.391  17.063  0.00  0.00    +0.000 N 
ATOM     21  C   UNL     1      49.977   2.627  17.079  0.00  0.00    +0.000 A 
ATOM     22  O   UNL     1      48.947   2.837  16.442  0.00  0.00    +0.000 OA
ATOM     23  C   UNL     1      50.722   3.638  17.809  0.00  0.00    +0.000 A 
ATOM     24  H   UNL     1      50.097   0.671  16.548  0.00  0.00    +0.000 HD
ENDBRANCH  12  14
ENDBRANCH  11  12
ENDBRANCH   8  11
ENDBRANCH   7   8
ENDBRANCH   1   7
BRANCH   4  25
ATOM     25  CA  UNL     1      44.672   4.338  10.906  0.00  0.00    +0.000 C 
BRANCH  25  26
ATOM     26  N   UNL     1      44.894   2.870  10.814  0.00  0.00    +0.000 NA
ATOM     27  H   UNL     1      44.272   2.433  11.501  0.00  0.00    +0.000 HD
BRANCH  26  28
ATOM     28  C   UNL     1      44.503   2.337   9.497  0.00  0.00    +0.000 C 
BRANCH  28  29
ATOM     29  C   UNL     1      45.635   2.303   8.484  0.00  0.00    +0.000 A 
ATOM     30  C   UNL     1      45.992   3.440   7.766  0.00  0.00    +0.000 A 
ATOM     31  C   UNL     1      46.976   3.334   6.784  0.00  0.00    +0.000 A 
ATOM     32  C   UNL     1      47.579   2.103   6.549  0.00  0.00    +0.000 A 
ATOM     33  C   UNL     1      47.177   1.025   7.315  0.00  0.00    +0.000 A 
ATOM     34  N   UNL     1      46.225   1.096   8.270  0.00  0.00    +0.000 NA
ENDBRANCH  28  29
ENDBRANCH  26  28
ENDBRANCH  25  26
BRANCH  25  35
ATOM     35  C   UNL     1      43.186   4.679  11.210  0.00  0.00    +0.000 C 
BRANCH  35  36
ATOM     36  O   UNL     1      42.799   5.923  10.622  0.00  0.00    +0.000 OA
ATOM     37  H   UNL     1      42.354   5.707   9.783  0.00  0.00    +0.000 HD
ENDBRANCH  35  36
ENDBRANCH  25  35
ENDBRANCH   4  25
TORSDOF 11
ENDMDL
MODEL 2
REMARK VINA RESULT:    -8.414      1.422      1.825
REMARK INTER + INTRA:         -14.989
REMARK INTER:                 -13.697
REMARK INTRA:                  -1.292
REMARK UNBOUND:                -1.410
REMARK  Name = 
REMARK  12 active torsions:
REMARK  status: ('A' for Active; 'I' for Inactive)
REMARK    1  A    between atoms: C_1  and  C_2
REMARK    2  A    between atoms: C_2  and  N_3
REMARK    3  A    between atoms: C_2  and  C_22
REMARK    4  A    between atoms: N_3  and  C_4
REMARK    5  A    between atoms: C_4  and  C_5
REMARK    6  A    between atoms: C_8  and  CA_9
REMARK    7  A    between atoms: CA_9  and  C_10
REMARK    8  A    between atoms: CA_9  and  N_12
REMARK    9  A    between atoms: C_10  and  O_11
REMARK   10  A    between atoms: N_12  and  C_13
REMARK   11  A    between atoms: C_13  and  C_14
REMARK   12  A    between atoms: C_22  and  C_24
REMARK                            x       y       z     vdW  Elec       q    Type
REMARK                         _______ _______ _______ _____ _____    ______ ____
ROOT
ATOM      1  C   UNL     1      47.618   6.356  13.418  0.00  0.00    +0.000 A 
ATOM      2  C   UNL     1      46.953   5.194  13.845  0.00  0.00    +0.000 A 
ATOM      3  C   UNL     1      45.990   4.570  13.046  0.00  0.00    +0.000 A 
ATOM      4  C   UNL     1      45.628   5.092  11.799  0.00  0.00    +0.000 A 
ATOM      5  C   UNL     1      46.229   6.304  11.410  0.00  0.00    +0.000 A 
ATOM      6  C   UNL     1      47.202   6.929  12.210  0.00  0.00    +0.000 A 
ENDROOT
BRANCH   1   7
ATOM      7  C   UNL     1      48.734   6.998  14.232  0.00  0.00    +0.000 C 
BRANCH   7   8
ATOM      8  N   UNL     1      48.292   7.333  15.591  0.00  0.00    +0.000 NA
ATOM      9  H   UNL     1      47.924   8.283  15.574  0.00  0.00    +0.000 HD
BRANCH   8  11
ATOM     10  C   UNL     1      50.718   7.031  16.059  0.00  0.00    +0.000 C 
ATOM     11  C   UNL     1      49.330   7.298  16.645  0.00  0.00    +0.000 C 
BRANCH  11  12
ATOM     12  C   UNL     1      48.982   6.348  17.815  0.00  0.00    +0.000 C 
ATOM     13  O   UNL     1      48.813   6.793  18.951  0.00  0.00    +0.000 OA
BRANCH  12  14
ATOM     14  C   UNL     1      48.859   4.897  17.567  0.00  0.00    +0.000 A 
ATOM     15  C   UNL     1      47.708   4.288  17.096  0.00  0.00    +0.000 A 
ATOM     16  S   UNL     1      47.924   2.634  16.712  0.00  0.00    +0.000 S 
ATOM     17  C   UNL     1      49.553   2.677  17.201  0.00  0.00    +0.000 A 
ATOM     18  N   UNL     1      50.349   1.582  17.088  0.00  0.00    +0.000 NA
ATOM     19  C   UNL     1      51.566   1.768  17.485  0.00  0.00    +0.000 A 
ATOM     20  N   UNL     1      52.046   2.944  18.009  0.00  0.00    +0.000 N 
ATOM     21  C   UNL     1      51.236   4.026  18.273  0.00  0.00    +0.000 A 
ATOM     22  O   UNL     1      51.613   4.938  19.006  0.00  0.00    +0.000 OA
ATOM     23  C   UNL     1      49.904   3.915  17.704  0.00  0.00    +0.000 A 
ATOM     24  H   UNL     1      52.974   2.985  18.406  0.00  0.00    +0.000 HD
ENDBRANCH  12  14
ENDBRANCH  11  12
ENDBRANCH   8  11
ENDBRANCH   7   8
ENDBRANCH   1   7
BRANCH   4  25
ATOM     25  CA  UNL     1      44.669   4.358  10.848  0.00  0.00    +0.000 C 
BRANCH  25  26
ATOM     26  N   UNL     1      44.926   2.894  10.805  0.00  0.00    +0.000 NA
ATOM     27  H   UNL     1      44.330   2.468  11.521  0.00  0.00    +0.000 HD
BRANCH  26  28
ATOM     28  C   UNL     1      44.520   2.304   9.518  0.00  0.00    +0.000 C 
BRANCH  28  29
ATOM     29  C   UNL     1      45.623   2.278   8.474  0.00  0.00    +0.000 A 
ATOM     30  C   UNL     1      45.917   3.405   7.711  0.00  0.00    +0.000 A 
ATOM     31  C   UNL     1      46.877   3.303   6.704  0.00  0.00    +0.000 A 
ATOM     32  C   UNL     1      47.518   2.088   6.490  0.00  0.00    +0.000 A 
ATOM     33  C   UNL     1      47.179   1.021   7.301  0.00  0.00    +0.000 A 
ATOM     34  N   UNL     1      46.252   1.088   8.280  0.00  0.00    +0.000 NA
ENDBRANCH  28  29
ENDBRANCH  26  28
ENDBRANCH  25  26
BRANCH  25  35
ATOM     35  C   UNL     1      43.189   4.675  11.200  0.00  0.00    +0.000 C 
BRANCH  35  36
ATOM     36  O   UNL     1      42.766   5.917  10.635  0.00  0.00    +0.000 OA
ATOM     37  H   UNL     1      42.888   6.592  11.326  0.00  0.00    +0.000 HD
ENDBRANCH  35  36
ENDBRANCH  25  35
ENDBRANCH   4  25
TORSDOF 11
ENDMDL
MODEL 3
REMARK VINA RESULT:    -8.070      1.559      2.005
REMARK INTER + INTRA:         -14.433
REMARK INTER:                 -13.787
REMARK INTRA:                  -0.646
REMARK UNBOUND:                -1.410
REMARK  Name = 
REMARK  12 active torsions:
REMARK  status: ('A' for Active; 'I' for Inactive)
REMARK    1  A    between atoms: C_1  and  C_2
REMARK    2  A    between atoms: C_2  and  N_3
REMARK    3  A    between atoms: C_2  and  C_22
REMARK    4  A    between atoms: N_3  and  C_4
REMARK    5  A    between atoms: C_4  and  C_5
REMARK    6  A    between atoms: C_8  and  CA_9
REMARK    7  A    between atoms: CA_9  and  C_10
REMARK    8  A    between atoms: CA_9  and  N_12
REMARK    9  A    between atoms: C_10  and  O_11
REMARK   10  A    between atoms: N_12  and  C_13
REMARK   11  A    between atoms: C_13  and  C_14
REMARK   12  A    between atoms: C_22  and  C_24
REMARK                            x       y       z     vdW  Elec       q    Type
REMARK                         _______ _______ _______ _____ _____    ______ ____
ROOT
ATOM      1  C   UNL     1      47.002   4.082  14.301  0.00  0.00    +0.000 A 
ATOM      2  C   UNL     1      47.020   5.457  14.016  0.00  0.00    +0.000 A 
ATOM      3  C   UNL     1      46.287   5.992  12.952  0.00  0.00    +0.000 A 
ATOM      4  C   UNL     1      45.526   5.174  12.109  0.00  0.00    +0.000 A 
ATOM      5  C   UNL     1      45.579   3.786  12.339  0.00  0.00    +0.000 A 
ATOM      6  C   UNL     1      46.311   3.249  13.412  0.00  0.00    +0.000 A 
ENDROOT
BRANCH   1   7
ATOM      7  C   UNL     1      47.718   3.493  15.509  0.00  0.00    +0.000 C 
BRANCH   7   8
ATOM      8  N   UNL     1      47.383   4.213  16.745  0.00  0.00    +0.000 NA
ATOM      9  H   UNL     1      47.108   5.160  16.489  0.00  0.00    +0.000 HD
BRANCH   8  11
ATOM     10  C   UNL     1      47.988   5.071  19.001  0.00  0.00    +0.000 C 
ATOM     11  C   UNL     1      48.465   4.338  17.745  0.00  0.00    +0.000 C 
BRANCH  11  12
ATOM     12  C   UNL     1      49.769   4.933  17.165  0.00  0.00    +0.000 C 
ATOM     13  O   UNL     1      49.725   5.831  16.322  0.00  0.00    +0.000 OA
BRANCH  12  14
ATOM     14  C   UNL     1      51.075   4.416  17.620  0.00  0.00    +0.000 A 
ATOM     15  C   UNL     1      52.056   5.200  18.204  0.00  0.00    +0.000 A 
ATOM     16  S   UNL     1      53.374   4.294  18.816  0.00  0.00    +0.000 S 
ATOM     17  C   UNL     1      52.687   2.832  18.282  0.00  0.00    +0.000 A 
ATOM     18  N   UNL     1      53.292   1.641  18.530  0.00  0.00    +0.000 NA
ATOM     19  C   UNL     1      52.646   0.615  18.078  0.00  0.00    +0.000 A 
ATOM     20  N   UNL     1      51.466   0.680  17.378  0.00  0.00    +0.000 N 
ATOM     21  C   UNL     1      50.900   1.872  16.984  0.00  0.00    +0.000 A 
ATOM     22  O   UNL     1      50.028   1.905  16.118  0.00  0.00    +0.000 OA
ATOM     23  C   UNL     1      51.505   3.041  17.598  0.00  0.00    +0.000 A 
ATOM     24  H   UNL     1      51.077  -0.151  16.956  0.00  0.00    +0.000 HD
ENDBRANCH  12  14
ENDBRANCH  11  12
ENDBRANCH   8  11
ENDBRANCH   7   8
ENDBRANCH   1   7
BRANCH   4  25
ATOM     25  CA  UNL     1      44.613   5.747  11.013  0.00  0.00    +0.000 C 
BRANCH  25  26
ATOM     26  N   UNL     1      45.123   5.463   9.646  0.00  0.00    +0.000 NA
ATOM     27  H   UNL     1      46.106   5.192   9.747  0.00  0.00    +0.000 HD
BRANCH  26  28
ATOM     28  C   UNL     1      44.434   4.316   9.031  0.00  0.00    +0.000 C 
BRANCH  28  29
ATOM     29  C   UNL     1      45.354   3.377   8.269  0.00  0.00    +0.000 A 
ATOM     30  C   UNL     1      45.522   2.054   8.668  0.00  0.00    +0.000 A 
ATOM     31  C   UNL     1      46.447   1.259   7.991  0.00  0.00    +0.000 A 
ATOM     32  C   UNL     1      47.172   1.802   6.935  0.00  0.00    +0.000 A 
ATOM     33  C   UNL     1      46.936   3.120   6.593  0.00  0.00    +0.000 A 
ATOM     34  N   UNL     1      46.050   3.915   7.232  0.00  0.00    +0.000 NA
ENDBRANCH  28  29
ENDBRANCH  26  28
ENDBRANCH  25  26
BRANCH  25  35
ATOM     35  C   UNL     1      43.150   5.256  11.197  0.00  0.00    +0.000 C 
BRANCH  35  36
ATOM     36  O   UNL     1      42.638   5.593  12.488  0.00  0.00    +0.000 OA
ATOM     37  H   UNL     1      43.332   5.360  13.131  0.00  0.00    +0.000 HD
ENDBRANCH  35  36
ENDBRANCH  25  35
ENDBRANCH   4  25
TORSDOF 11
ENDMDL
MODEL 4
REMARK VINA RESULT:    -7.620      2.007      2.475
REMARK INTER + INTRA:         -13.706
REMARK INTER:                 -12.483
REMARK INTRA:                  -1.223
REMARK UNBOUND:                -1.410
REMARK  Name = 
REMARK  12 active torsions:
REMARK  status: ('A' for Active; 'I' for Inactive)
REMARK    1  A    between atoms: C_1  and  C_2
REMARK    2  A    between atoms: C_2  and  N_3
REMARK    3  A    between atoms: C_2  and  C_22
REMARK    4  A    between atoms: N_3  and  C_4
REMARK    5  A    between atoms: C_4  and  C_5
REMARK    6  A    between atoms: C_8  and  CA_9
REMARK    7  A    between atoms: CA_9  and  C_10
REMARK    8  A    between atoms: CA_9  and  N_12
REMARK    9  A    between atoms: C_10  and  O_11
REMARK   10  A    between atoms: N_12  and  C_13
REMARK   11  A    between atoms: C_13  and  C_14
REMARK   12  A    between atoms: C_22  and  C_24
REMARK                            x       y       z     vdW  Elec       q    Type
REMARK                         _______ _______ _______ _____ _____    ______ ____
ROOT
ATOM      1  C   UNL     1      47.437   5.860  14.154  0.00  0.00    +0.000 A 
ATOM      2  C   UNL     1      46.896   4.568  14.251  0.00  0.00    +0.000 A 
ATOM      3  C   UNL     1      46.040   4.060  13.268  0.00  0.00    +0.000 A 
ATOM      4  C   UNL     1      45.666   4.829  12.160  0.00  0.00    +0.000 A 
ATOM      5  C   UNL     1      46.138   6.154  12.108  0.00  0.00    +0.000 A 
ATOM      6  C   UNL     1      47.002   6.664  13.092  0.00  0.00    +0.000 A 
ENDROOT
BRANCH   1   7
ATOM      7  C   UNL     1      48.442   6.397  15.165  0.00  0.00    +0.000 C 
BRANCH   7   8
ATOM      8  N   UNL     1      49.759   6.623  14.556  0.00  0.00    +0.000 NA
ATOM      9  H   UNL     1      50.271   5.742  14.584  0.00  0.00    +0.000 HD
BRANCH   8  11
ATOM     10  C   UNL     1      51.372   8.480  14.178  0.00  0.00    +0.000 C 
ATOM     11  C   UNL     1      50.618   7.636  15.207  0.00  0.00    +0.000 C 
BRANCH  11  12
ATOM     12  C   UNL     1      51.549   7.043  16.291  0.00  0.00    +0.000 C 
ATOM     13  O   UNL     1      52.635   6.552  15.980  0.00  0.00    +0.000 OA
BRANCH  12  14
ATOM     14  C   UNL     1      51.128   7.063  17.706  0.00  0.00    +0.000 A 
ATOM     15  C   UNL     1      51.275   8.157  18.542  0.00  0.00    +0.000 A 
ATOM     16  S   UNL     1      50.513   7.957  20.062  0.00  0.00    +0.000 S 
ATOM     17  C   UNL     1      49.999   6.387  19.659  0.00  0.00    +0.000 A 
ATOM     18  N   UNL     1      49.240   5.655  20.517  0.00  0.00    +0.000 NA
ATOM     19  C   UNL     1      48.912   4.487  20.068  0.00  0.00    +0.000 A 
ATOM     20  N   UNL     1      49.299   3.979  18.852  0.00  0.00    +0.000 N 
ATOM     21  C   UNL     1      50.183   4.630  18.022  0.00  0.00    +0.000 A 
ATOM     22  O   UNL     1      50.742   4.039  17.100  0.00  0.00    +0.000 OA
ATOM     23  C   UNL     1      50.453   6.003  18.412  0.00  0.00    +0.000 A 
ATOM     24  H   UNL     1      49.103   3.017  18.615  0.00  0.00    +0.000 HD
ENDBRANCH  12  14
ENDBRANCH  11  12
ENDBRANCH   8  11
ENDBRANCH   7   8
ENDBRANCH   1   7
BRANCH   4  25
ATOM     25  CA  UNL     1      44.833   4.253  11.004  0.00  0.00    +0.000 C 
BRANCH  25  26
ATOM     26  N   UNL     1      45.014   2.785  10.853  0.00  0.00    +0.000 NA
ATOM     27  H   UNL     1      44.433   2.340  11.570  0.00  0.00    +0.000 HD
BRANCH  26  28
ATOM     28  C   UNL     1      44.518   2.302   9.553  0.00  0.00    +0.000 C 
BRANCH  28  29
ATOM     29  C   UNL     1      45.570   2.283   8.458  0.00  0.00    +0.000 A 
ATOM     30  C   UNL     1      45.785   3.394   7.648  0.00  0.00    +0.000 A 
ATOM     31  C   UNL     1      46.700   3.295   6.599  0.00  0.00    +0.000 A 
ATOM     32  C   UNL     1      47.375   2.098   6.391  0.00  0.00    +0.000 A 
ATOM     33  C   UNL     1      47.115   1.046   7.249  0.00  0.00    +0.000 A 
ATOM     34  N   UNL     1      46.234   1.111   8.270  0.00  0.00    +0.000 NA
ENDBRANCH  28  29
ENDBRANCH  26  28
ENDBRANCH  25  26
BRANCH  25  35
ATOM     35  C   UNL     1      43.334   4.637  11.155  0.00  0.00    +0.000 C 
BRANCH  35  36
ATOM     36  O   UNL     1      43.008   5.799  10.390  0.00  0.00    +0.000 OA
ATOM     37  H   UNL     1      43.474   5.712   9.540  0.00  0.00    +0.000 HD
ENDBRANCH  35  36
ENDBRANCH  25  35
ENDBRANCH   4  25
TORSDOF 11
ENDMDL
MODEL 5
REMARK VINA RESULT:    -7.383      2.465      3.039
REMARK INTER + INTRA:         -13.324
REMARK INTER:                 -12.077
REMARK INTRA:                  -1.247
REMARK UNBOUND:                -1.410
REMARK  Name = 
REMARK  12 active torsions:
REMARK  status: ('A' for Active; 'I' for Inactive)
REMARK    1  A    between atoms: C_1  and  C_2
REMARK    2  A    between atoms: C_2  and  N_3
REMARK    3  A    between atoms: C_2  and  C_22
REMARK    4  A    between atoms: N_3  and  C_4
REMARK    5  A    between atoms: C_4  and  C_5
REMARK    6  A    between atoms: C_8  and  CA_9
REMARK    7  A    between atoms: CA_9  and  C_10
REMARK    8  A    between atoms: CA_9  and  N_12
REMARK    9  A    between atoms: C_10  and  O_11
REMARK   10  A    between atoms: N_12  and  C_13
REMARK   11  A    between atoms: C_13  and  C_14
REMARK   12  A    between atoms: C_22  and  C_24
REMARK                            x       y       z     vdW  Elec       q    Type
REMARK                         _______ _______ _______ _____ _____    ______ ____
ROOT
ATOM      1  C   UNL     1      47.838   6.381  12.941  0.00  0.00    +0.000 A 
ATOM      2  C   UNL     1      47.339   5.298  13.683  0.00  0.00    +0.000 A 
ATOM      3  C   UNL     1      46.178   4.621  13.295  0.00  0.00    +0.000 A 
ATOM      4  C   UNL     1      45.451   5.010  12.165  0.00  0.00    +0.000 A 
ATOM      5  C   UNL     1      45.901   6.150  11.472  0.00  0.00    +0.000 A 
ATOM      6  C   UNL     1      47.070   6.828  11.858  0.00  0.00    +0.000 A 
ENDROOT
BRANCH   1   7
ATOM      7  C   UNL     1      49.148   7.073  13.294  0.00  0.00    +0.000 C 
BRANCH   7   8
ATOM      8  N   UNL     1      48.922   8.334  14.010  0.00  0.00    +0.000 NA
ATOM      9  H   UNL     1      49.761   8.903  13.912  0.00  0.00    +0.000 HD
BRANCH   8  11
ATOM     10  C   UNL     1      48.536   9.602  16.117  0.00  0.00    +0.000 C 
ATOM     11  C   UNL     1      48.649   8.225  15.460  0.00  0.00    +0.000 C 
BRANCH  11  12
ATOM     12  C   UNL     1      49.634   7.289  16.199  0.00  0.00    +0.000 C 
ATOM     13  O   UNL     1      50.850   7.442  16.078  0.00  0.00    +0.000 OA
BRANCH  12  14
ATOM     14  C   UNL     1      49.110   6.203  17.052  0.00  0.00    +0.000 A 
ATOM     15  C   UNL     1      48.637   4.996  16.563  0.00  0.00    +0.000 A 
ATOM     16  S   UNL     1      48.289   3.857  17.792  0.00  0.00    +0.000 S 
ATOM     17  C   UNL     1      48.726   4.957  19.013  0.00  0.00    +0.000 A 
ATOM     18  N   UNL     1      48.705   4.598  20.323  0.00  0.00    +0.000 NA
ATOM     19  C   UNL     1      49.076   5.534  21.135  0.00  0.00    +0.000 A 
ATOM     20  N   UNL     1      49.440   6.802  20.753  0.00  0.00    +0.000 N 
ATOM     21  C   UNL     1      49.335   7.246  19.454  0.00  0.00    +0.000 A 
ATOM     22  O   UNL     1      49.375   8.445  19.187  0.00  0.00    +0.000 OA
ATOM     23  C   UNL     1      49.072   6.190  18.492  0.00  0.00    +0.000 A 
ATOM     24  H   UNL     1      49.608   7.516  21.448  0.00  0.00    +0.000 HD
ENDBRANCH  12  14
ENDBRANCH  11  12
ENDBRANCH   8  11
ENDBRANCH   7   8
ENDBRANCH   1   7
BRANCH   4  25
ATOM     25  CA  UNL     1      44.248   4.207  11.645  0.00  0.00    +0.000 C 
BRANCH  25  26
ATOM     26  N   UNL     1      44.635   2.850  11.176  0.00  0.00    +0.000 NA
ATOM     27  H   UNL     1      44.134   2.179  11.765  0.00  0.00    +0.000 HD
BRANCH  26  28
ATOM     28  C   UNL     1      44.194   2.603   9.792  0.00  0.00    +0.000 C 
BRANCH  28  29
ATOM     29  C   UNL     1      45.324   2.584   8.777  0.00  0.00    +0.000 A 
ATOM     30  C   UNL     1      45.678   3.733   8.075  0.00  0.00    +0.000 A 
ATOM     31  C   UNL     1      46.662   3.642   7.089  0.00  0.00    +0.000 A 
ATOM     32  C   UNL     1      47.266   2.415   6.836  0.00  0.00    +0.000 A 
ATOM     33  C   UNL     1      46.867   1.326   7.588  0.00  0.00    +0.000 A 
ATOM     34  N   UNL     1      45.916   1.382   8.545  0.00  0.00    +0.000 NA
ENDBRANCH  28  29
ENDBRANCH  26  28
ENDBRANCH  25  26
BRANCH  25  35
ATOM     35  C   UNL     1      43.117   4.149  12.710  0.00  0.00    +0.000 C 
BRANCH  35  36
ATOM     36  O   UNL     1      42.816   5.445  13.232  0.00  0.00    +0.000 OA
ATOM     37  H   UNL     1      42.549   5.994  12.473  0.00  0.00    +0.000 HD
ENDBRANCH  35  36
ENDBRANCH  25  35
ENDBRANCH   4  25
TORSDOF 11
ENDMDL
MODEL 6
REMARK VINA RESULT:    -7.203      2.674      4.154
REMARK INTER + INTRA:         -13.033
REMARK INTER:                 -11.332
REMARK INTRA:                  -1.701
REMARK UNBOUND:                -1.410
REMARK  Name = 
REMARK  12 active torsions:
REMARK  status: ('A' for Active; 'I' for Inactive)
REMARK    1  A    between atoms: C_1  and  C_2
REMARK    2  A    between atoms: C_2  and  N_3
REMARK    3  A    between atoms: C_2  and  C_22
REMARK    4  A    between atoms: N_3  and  C_4
REMARK    5  A    between atoms: C_4  and  C_5
REMARK    6  A    between atoms: C_8  and  CA_9
REMARK    7  A    between atoms: CA_9  and  C_10
REMARK    8  A    between atoms: CA_9  and  N_12
REMARK    9  A    between atoms: C_10  and  O_11
REMARK   10  A    between atoms: N_12  and  C_13
REMARK   11  A    between atoms: C_13  and  C_14
REMARK   12  A    between atoms: C_22  and  C_24
REMARK                            x       y       z     vdW  Elec       q    Type
REMARK                         _______ _______ _______ _____ _____    ______ ____
ROOT
ATOM      1  C   UNL     1      47.212   4.878  14.634  0.00  0.00    +0.000 A 
ATOM      2  C   UNL     1      47.491   6.100  14.000  0.00  0.00    +0.000 A 
ATOM      3  C   UNL     1      46.820   6.489  12.836  0.00  0.00    +0.000 A 
ATOM      4  C   UNL     1      45.861   5.663  12.239  0.00  0.00    +0.000 A 
ATOM      5  C   UNL     1      45.646   4.400  12.823  0.00  0.00    +0.000 A 
ATOM      6  C   UNL     1      46.316   4.011  13.995  0.00  0.00    +0.000 A 
ENDROOT
BRANCH   1   7
ATOM      7  C   UNL     1      47.865   4.478  15.950  0.00  0.00    +0.000 C 
BRANCH   7   8
ATOM      8  N   UNL     1      47.712   5.521  16.972  0.00  0.00    +0.000 NA
ATOM      9  H   UNL     1      47.695   6.423  16.497  0.00  0.00    +0.000 HD
BRANCH   8  11
ATOM     10  C   UNL     1      48.282   5.126  19.362  0.00  0.00    +0.000 C 
ATOM     11  C   UNL     1      48.778   5.599  17.994  0.00  0.00    +0.000 C 
BRANCH  11  12
ATOM     12  C   UNL     1      49.469   6.982  18.055  0.00  0.00    +0.000 C 
ATOM     13  O   UNL     1      49.457   7.640  19.096  0.00  0.00    +0.000 OA
BRANCH  12  14
ATOM     14  C   UNL     1      50.141   7.517  16.854  0.00  0.00    +0.000 A 
ATOM     15  C   UNL     1      51.411   7.143  16.447  0.00  0.00    +0.000 A 
ATOM     16  S   UNL     1      51.845   7.770  14.915  0.00  0.00    +0.000 S 
ATOM     17  C   UNL     1      50.362   8.590  14.770  0.00  0.00    +0.000 A 
ATOM     18  N   UNL     1      50.058   9.299  13.651  0.00  0.00    +0.000 NA
ATOM     19  C   UNL     1      48.891   9.855  13.677  0.00  0.00    +0.000 A 
ATOM     20  N   UNL     1      48.015   9.786  14.734  0.00  0.00    +0.000 N 
ATOM     21  C   UNL     1      48.345   9.202  15.936  0.00  0.00    +0.000 A 
ATOM     22  O   UNL     1      47.679   9.411  16.948  0.00  0.00    +0.000 OA
ATOM     23  C   UNL     1      49.578   8.435  15.897  0.00  0.00    +0.000 A 
ATOM     24  H   UNL     1      47.170  10.339  14.733  0.00  0.00    +0.000 HD
ENDBRANCH  12  14
ENDBRANCH  11  12
ENDBRANCH   8  11
ENDBRANCH   7   8
ENDBRANCH   1   7
BRANCH   4  25
ATOM     25  CA  UNL     1      45.020   6.118  11.036  0.00  0.00    +0.000 C 
BRANCH  25  26
ATOM     26  N   UNL     1      45.531   5.574   9.750  0.00  0.00    +0.000 NA
ATOM     27  H   UNL     1      46.466   5.201   9.937  0.00  0.00    +0.000 HD
BRANCH  26  28
ATOM     28  C   UNL     1      44.717   4.444   9.270  0.00  0.00    +0.000 C 
BRANCH  28  29
ATOM     29  C   UNL     1      45.478   3.461   8.397  0.00  0.00    +0.000 A 
ATOM     30  C   UNL     1      45.599   2.123   8.758  0.00  0.00    +0.000 A 
ATOM     31  C   UNL     1      46.384   1.282   7.969  0.00  0.00    +0.000 A 
ATOM     32  C   UNL     1      47.018   1.795   6.843  0.00  0.00    +0.000 A 
ATOM     33  C   UNL     1      46.835   3.132   6.545  0.00  0.00    +0.000 A 
ATOM     34  N   UNL     1      46.085   3.971   7.292  0.00  0.00    +0.000 NA
ENDBRANCH  28  29
ENDBRANCH  26  28
ENDBRANCH  25  26
BRANCH  25  35
ATOM     35  C   UNL     1      43.518   5.780  11.249  0.00  0.00    +0.000 C 
BRANCH  35  36
ATOM     36  O   UNL     1      42.686   6.926  11.057  0.00  0.00    +0.000 OA
ATOM     37  H   UNL     1      41.887   6.783  11.594  0.00  0.00    +0.000 HD
ENDBRANCH  35  36
ENDBRANCH  25  35
ENDBRANCH   4  25
TORSDOF 11
ENDMDL
MODEL 7
REMARK VINA RESULT:    -7.185      2.385      3.964
REMARK INTER + INTRA:         -13.005
REMARK INTER:                 -11.263
REMARK INTRA:                  -1.742
REMARK UNBOUND:                -1.410
REMARK  Name = 
REMARK  12 active torsions:
REMARK  status: ('A' for Active; 'I' for Inactive)
REMARK    1  A    between atoms: C_1  and  C_2
REMARK    2  A    between atoms: C_2  and  N_3
REMARK    3  A    between atoms: C_2  and  C_22
REMARK    4  A    between atoms: N_3  and  C_4
REMARK    5  A    between atoms: C_4  and  C_5
REMARK    6  A    between atoms: C_8  and  CA_9
REMARK    7  A    between atoms: CA_9  and  C_10
REMARK    8  A    between atoms: CA_9  and  N_12
REMARK    9  A    between atoms: C_10  and  O_11
REMARK   10  A    between atoms: N_12  and  C_13
REMARK   11  A    between atoms: C_13  and  C_14
REMARK   12  A    between atoms: C_22  and  C_24
REMARK                            x       y       z     vdW  Elec       q    Type
REMARK                         _______ _______ _______ _____ _____    ______ ____
ROOT
ATOM      1  C   UNL     1      46.830   3.965  14.088  0.00  0.00    +0.000 A 
ATOM      2  C   UNL     1      46.174   3.110  13.187  0.00  0.00    +0.000 A 
ATOM      3  C   UNL     1      45.370   3.612  12.159  0.00  0.00    +0.000 A 
ATOM      4  C   UNL     1      45.164   4.987  12.001  0.00  0.00    +0.000 A 
ATOM      5  C   UNL     1      45.749   5.839  12.957  0.00  0.00    +0.000 A 
ATOM      6  C   UNL     1      46.562   5.336  13.987  0.00  0.00    +0.000 A 
ENDROOT
BRANCH   1   7
ATOM      7  C   UNL     1      47.782   3.443  15.156  0.00  0.00    +0.000 C 
BRANCH   7   8
ATOM      8  N   UNL     1      47.907   4.380  16.279  0.00  0.00    +0.000 NA
ATOM      9  H   UNL     1      48.178   5.286  15.900  0.00  0.00    +0.000 HD
BRANCH   8  11
ATOM     10  C   UNL     1      48.317   3.116  18.383  0.00  0.00    +0.000 C 
ATOM     11  C   UNL     1      48.908   4.036  17.312  0.00  0.00    +0.000 C 
BRANCH  11  12
ATOM     12  C   UNL     1      49.619   5.271  17.912  0.00  0.00    +0.000 C 
ATOM     13  O   UNL     1      50.783   5.190  18.309  0.00  0.00    +0.000 OA
BRANCH  12  14
ATOM     14  C   UNL     1      48.895   6.554  18.014  0.00  0.00    +0.000 A 
ATOM     15  C   UNL     1      48.155   6.939  19.120  0.00  0.00    +0.000 A 
ATOM     16  S   UNL     1      47.602   8.557  19.036  0.00  0.00    +0.000 S 
ATOM     17  C   UNL     1      48.302   8.775  17.502  0.00  0.00    +0.000 A 
ATOM     18  N   UNL     1      48.240   9.974  16.865  0.00  0.00    +0.000 NA
ATOM     19  C   UNL     1      48.830   9.994  15.714  0.00  0.00    +0.000 A 
ATOM     20  N   UNL     1      49.451   8.914  15.135  0.00  0.00    +0.000 N 
ATOM     21  C   UNL     1      49.410   7.651  15.682  0.00  0.00    +0.000 A 
ATOM     22  O   UNL     1      49.703   6.660  15.015  0.00  0.00    +0.000 OA
ATOM     23  C   UNL     1      48.895   7.615  17.039  0.00  0.00    +0.000 A 
ATOM     24  H   UNL     1      49.790   8.969  14.185  0.00  0.00    +0.000 HD
ENDBRANCH  12  14
ENDBRANCH  11  12
ENDBRANCH   8  11
ENDBRANCH   7   8
ENDBRANCH   1   7
BRANCH   4  25
ATOM     25  CA  UNL     1      44.392   5.571  10.807  0.00  0.00    +0.000 C 
BRANCH  25  26
ATOM     26  N   UNL     1      44.329   4.627   9.659  0.00  0.00    +0.000 NA
ATOM     27  H   UNL     1      43.491   4.871   9.122  0.00  0.00    +0.000 HD
BRANCH  26  28
ATOM     28  C   UNL     1      45.474   4.794   8.748  0.00  0.00    +0.000 C 
BRANCH  28  29
ATOM     29  C   UNL     1      45.998   3.492   8.168  0.00  0.00    +0.000 A 
ATOM     30  C   UNL     1      45.559   2.262   8.650  0.00  0.00    +0.000 A 
ATOM     31  C   UNL     1      46.137   1.097   8.146  0.00  0.00    +0.000 A 
ATOM     32  C   UNL     1      47.129   1.190   7.176  0.00  0.00    +0.000 A 
ATOM     33  C   UNL     1      47.498   2.449   6.741  0.00  0.00    +0.000 A 
ATOM     34  N   UNL     1      46.960   3.593   7.212  0.00  0.00    +0.000 NA
ENDBRANCH  28  29
ENDBRANCH  26  28
ENDBRANCH  25  26
BRANCH  25  35
ATOM     35  C   UNL     1      42.978   6.048  11.240  0.00  0.00    +0.000 C 
BRANCH  35  36
ATOM     36  O   UNL     1      42.208   4.981  11.798  0.00  0.00    +0.000 OA
ATOM     37  H   UNL     1      41.428   4.871  11.224  0.00  0.00    +0.000 HD
ENDBRANCH  35  36
ENDBRANCH  25  35
ENDBRANCH   4  25
TORSDOF 11
ENDMDL
MODEL 8
REMARK VINA RESULT:    -7.163      1.623      2.349
REMARK INTER + INTRA:         -12.969
REMARK INTER:                 -11.859
REMARK INTRA:                  -1.110
REMARK UNBOUND:                -1.410
REMARK  Name = 
REMARK  12 active torsions:
REMARK  status: ('A' for Active; 'I' for Inactive)
REMARK    1  A    between atoms: C_1  and  C_2
REMARK    2  A    between atoms: C_2  and  N_3
REMARK    3  A    between atoms: C_2  and  C_22
REMARK    4  A    between atoms: N_3  and  C_4
REMARK    5  A    between atoms: C_4  and  C_5
REMARK    6  A    between atoms: C_8  and  CA_9
REMARK    7  A    between atoms: CA_9  and  C_10
REMARK    8  A    between atoms: CA_9  and  N_12
REMARK    9  A    between atoms: C_10  and  O_11
REMARK   10  A    between atoms: N_12  and  C_13
REMARK   11  A    between atoms: C_13  and  C_14
REMARK   12  A    between atoms: C_22  and  C_24
REMARK                            x       y       z     vdW  Elec       q    Type
REMARK                         _______ _______ _______ _____ _____    ______ ____
ROOT
ATOM      1  C   UNL     1      47.435   6.198  13.486  0.00  0.00    +0.000 A 
ATOM      2  C   UNL     1      46.553   5.163  13.840  0.00  0.00    +0.000 A 
ATOM      3  C   UNL     1      45.570   4.707  12.957  0.00  0.00    +0.000 A 
ATOM      4  C   UNL     1      45.406   5.281  11.691  0.00  0.00    +0.000 A 
ATOM      5  C   UNL     1      46.230   6.376  11.369  0.00  0.00    +0.000 A 
ATOM      6  C   UNL     1      47.222   6.831  12.255  0.00  0.00    +0.000 A 
ENDROOT
BRANCH   1   7
ATOM      7  C   UNL     1      48.570   6.645  14.397  0.00  0.00    +0.000 C 
BRANCH   7   8
ATOM      8  N   UNL     1      48.778   5.708  15.507  0.00  0.00    +0.000 NA
ATOM      9  H   UNL     1      48.052   4.996  15.455  0.00  0.00    +0.000 HD
BRANCH   8  11
ATOM     10  C   UNL     1      49.765   7.376  17.068  0.00  0.00    +0.000 C 
ATOM     11  C   UNL     1      48.716   6.280  16.869  0.00  0.00    +0.000 C 
BRANCH  11  12
ATOM     12  C   UNL     1      48.750   5.210  17.986  0.00  0.00    +0.000 C 
ATOM     13  O   UNL     1      47.785   5.061  18.737  0.00  0.00    +0.000 OA
BRANCH  12  14
ATOM     14  C   UNL     1      49.950   4.367  18.154  0.00  0.00    +0.000 A 
ATOM     15  C   UNL     1      50.183   3.202  17.442  0.00  0.00    +0.000 A 
ATOM     16  S   UNL     1      51.745   2.551  17.699  0.00  0.00    +0.000 S 
ATOM     17  C   UNL     1      52.140   3.786  18.798  0.00  0.00    +0.000 A 
ATOM     18  N   UNL     1      53.372   3.853  19.368  0.00  0.00    +0.000 NA
ATOM     19  C   UNL     1      53.531   4.854  20.171  0.00  0.00    +0.000 A 
ATOM     20  N   UNL     1      52.558   5.777  20.473  0.00  0.00    +0.000 N 
ATOM     21  C   UNL     1      51.260   5.660  20.030  0.00  0.00    +0.000 A 
ATOM     22  O   UNL     1      50.352   6.310  20.546  0.00  0.00    +0.000 OA
ATOM     23  C   UNL     1      51.076   4.644  19.009  0.00  0.00    +0.000 A 
ATOM     24  H   UNL     1      52.715   6.465  21.195  0.00  0.00    +0.000 HD
ENDBRANCH  12  14
ENDBRANCH  11  12
ENDBRANCH   8  11
ENDBRANCH   7   8
ENDBRANCH   1   7
BRANCH   4  25
ATOM     25  CA  UNL     1      44.421   4.717  10.655  0.00  0.00    +0.000 C 
BRANCH  25  26
ATOM     26  N   UNL     1      44.915   4.875   9.261  0.00  0.00    +0.000 NA
ATOM     27  H   UNL     1      45.938   4.842   9.304  0.00  0.00    +0.000 HD
BRANCH  26  28
ATOM     28  C   UNL     1      44.496   3.755   8.400  0.00  0.00    +0.000 C 
BRANCH  28  29
ATOM     29  C   UNL     1      45.647   3.044   7.708  0.00  0.00    +0.000 A 
ATOM     30  C   UNL     1      46.027   1.759   8.083  0.00  0.00    +0.000 A 
ATOM     31  C   UNL     1      47.147   1.185   7.479  0.00  0.00    +0.000 A 
ATOM     32  C   UNL     1      47.849   1.904   6.518  0.00  0.00    +0.000 A 
ATOM     33  C   UNL     1      47.397   3.169   6.192  0.00  0.00    +0.000 A 
ATOM     34  N   UNL     1      46.320   3.751   6.762  0.00  0.00    +0.000 NA
ENDBRANCH  28  29
ENDBRANCH  26  28
ENDBRANCH  25  26
BRANCH  25  35
ATOM     35  C   UNL     1      44.063   3.239  10.976  0.00  0.00    +0.000 C 
BRANCH  35  36
ATOM     36  O   UNL     1      42.728   3.115  11.471  0.00  0.00    +0.000 OA
ATOM     37  H   UNL     1      42.404   2.243  11.180  0.00  0.00    +0.000 HD
ENDBRANCH  35  36
ENDBRANCH  25  35
ENDBRANCH   4  25
TORSDOF 11
ENDMDL
MODEL 9
REMARK VINA RESULT:    -6.070      2.638      3.119
REMARK INTER + INTRA:         -11.206
REMARK INTER:                 -10.866
REMARK INTRA:                  -0.341
REMARK UNBOUND:                -1.410
REMARK  Name = 
REMARK  12 active torsions:
REMARK  status: ('A' for Active; 'I' for Inactive)
REMARK    1  A    between atoms: C_1  and  C_2
REMARK    2  A    between atoms: C_2  and  N_3
REMARK    3  A    between atoms: C_2  and  C_22
REMARK    4  A    between atoms: N_3  and  C_4
REMARK    5  A    between atoms: C_4  and  C_5
REMARK    6  A    between atoms: C_8  and  CA_9
REMARK    7  A    between atoms: CA_9  and  C_10
REMARK    8  A    between atoms: CA_9  and  N_12
REMARK    9  A    between atoms: C_10  and  O_11
REMARK   10  A    between atoms: N_12  and  C_13
REMARK   11  A    between atoms: C_13  and  C_14
REMARK   12  A    between atoms: C_22  and  C_24
REMARK                            x       y       z     vdW  Elec       q    Type
REMARK                         _______ _______ _______ _____ _____    ______ ____
ROOT
ATOM      1  C   UNL     1      47.489   5.734  14.120  0.00  0.00    +0.000 A 
ATOM      2  C   UNL     1      47.530   6.505  12.947  0.00  0.00    +0.000 A 
ATOM      3  C   UNL     1      46.636   6.280  11.895  0.00  0.00    +0.000 A 
ATOM      4  C   UNL     1      45.681   5.259  11.956  0.00  0.00    +0.000 A 
ATOM      5  C   UNL     1      45.699   4.430  13.094  0.00  0.00    +0.000 A 
ATOM      6  C   UNL     1      46.593   4.659  14.154  0.00  0.00    +0.000 A 
ENDROOT
BRANCH   1   7
ATOM      7  C   UNL     1      48.392   6.022  15.313  0.00  0.00    +0.000 C 
BRANCH   7   8
ATOM      8  N   UNL     1      48.263   7.412  15.769  0.00  0.00    +0.000 NA
ATOM      9  H   UNL     1      47.835   7.949  15.016  0.00  0.00    +0.000 HD
BRANCH   8  11
ATOM     10  C   UNL     1      50.745   7.359  15.586  0.00  0.00    +0.000 C 
ATOM     11  C   UNL     1      49.521   8.105  16.123  0.00  0.00    +0.000 C 
BRANCH  11  12
ATOM     12  C   UNL     1      49.636   8.434  17.630  0.00  0.00    +0.000 C 
ATOM     13  O   UNL     1      49.694   9.604  18.010  0.00  0.00    +0.000 OA
BRANCH  12  14
ATOM     14  C   UNL     1      49.682   7.336  18.617  0.00  0.00    +0.000 A 
ATOM     15  C   UNL     1      48.559   6.706  19.127  0.00  0.00    +0.000 A 
ATOM     16  S   UNL     1      48.926   5.340  20.091  0.00  0.00    +0.000 S 
ATOM     17  C   UNL     1      50.598   5.576  19.885  0.00  0.00    +0.000 A 
ATOM     18  N   UNL     1      51.499   4.713  20.422  0.00  0.00    +0.000 NA
ATOM     19  C   UNL     1      52.733   5.011  20.170  0.00  0.00    +0.000 A 
ATOM     20  N   UNL     1      53.141   6.110  19.452  0.00  0.00    +0.000 N 
ATOM     21  C   UNL     1      52.267   7.081  19.019  0.00  0.00    +0.000 A 
ATOM     22  O   UNL     1      52.672   8.182  18.653  0.00  0.00    +0.000 OA
ATOM     23  C   UNL     1      50.868   6.711  19.145  0.00  0.00    +0.000 A 
ATOM     24  H   UNL     1      54.122   6.344  19.393  0.00  0.00    +0.000 HD
ENDBRANCH  12  14
ENDBRANCH  11  12
ENDBRANCH   8  11
ENDBRANCH   7   8
ENDBRANCH   1   7
BRANCH   4  25
ATOM     25  CA  UNL     1      44.607   5.073  10.873  0.00  0.00    +0.000 C 
BRANCH  25  26
ATOM     26  N   UNL     1      45.177   5.108   9.500  0.00  0.00    +0.000 NA
ATOM     27  H   UNL     1      46.174   4.891   9.588  0.00  0.00    +0.000 HD
BRANCH  26  28
ATOM     28  C   UNL     1      44.595   4.065   8.638  0.00  0.00    +0.000 C 
BRANCH  28  29
ATOM     29  C   UNL     1      45.626   3.215   7.914  0.00  0.00    +0.000 A 
ATOM     30  C   UNL     1      45.859   1.895   8.287  0.00  0.00    +0.000 A 
ATOM     31  C   UNL     1      46.878   1.186   7.651  0.00  0.00    +0.000 A 
ATOM     32  C   UNL     1      47.631   1.810   6.661  0.00  0.00    +0.000 A 
ATOM     33  C   UNL     1      47.326   3.120   6.340  0.00  0.00    +0.000 A 
ATOM     34  N   UNL     1      46.348   3.831   6.940  0.00  0.00    +0.000 NA
ENDBRANCH  28  29
ENDBRANCH  26  28
ENDBRANCH  25  26
BRANCH  25  35
ATOM     35  C   UNL     1      43.785   3.778  11.124  0.00  0.00    +0.000 C 
BRANCH  35  36
ATOM     36  O   UNL     1      44.633   2.652  11.363  0.00  0.00    +0.000 OA
ATOM     37  H   UNL     1      45.438   2.997  11.789  0.00  0.00    +0.000 HD
ENDBRANCH  35  36
ENDBRANCH  25  35
ENDBRANCH   4  25
TORSDOF 11
ENDMDL
