MODEL 1
REMARK VINA RESULT:    -7.837      0.000      0.000
REMARK INTER + INTRA:         -10.794
REMARK INTER:                 -10.357
REMARK INTRA:                  -0.438
REMARK UNBOUND:                -0.438
REMARK  Name = 
REMARK  6 active torsions:
REMARK  status: ('A' for Active; 'I' for Inactive)
REMARK    1  A    between atoms: N_1  and  C_2
REMARK    2  A    between atoms: C_2  and  C_3
REMARK    3  A    between atoms: C_6  and  O_7
REMARK    4  A    between atoms: O_7  and  C_8
REMARK    5  A    between atoms: C_8  and  C_9
REMARK    6  A    between atoms: C_12  and  C_13
REMARK                            x       y       z     vdW  Elec       q    Type
REMARK                         _______ _______ _______ _____ _____    ______ ____
ROOT
ATOM      1  C   UNL     1      43.750   3.162  11.577  0.00  0.00    +0.000 C 
ENDROOT
BRANCH   1   2
ATOM      2  C   UNL     1      44.740   4.070  12.269  0.00  0.00    +0.000 A 
ATOM      3  N   UNL     1      45.805   3.458  12.869  0.00  0.00    +0.000 NA
ATOM      4  C   UNL     1      46.763   4.239  13.420  0.00  0.00    +0.000 A 
ATOM      5  C   UNL     1      46.731   5.623  13.402  0.00  0.00    +0.000 A 
ATOM      6  C   UNL     1      45.635   6.236  12.782  0.00  0.00    +0.000 A 
ATOM      7  C   UNL     1      44.631   5.459  12.206  0.00  0.00    +0.000 A 
ATOM      8 CL   UNL     1      43.336   6.262  11.400  0.00  0.00    +0.000 Cl
BRANCH   5   9
ATOM      9  C   UNL     1      47.838   6.422  14.013  0.00  0.00    +0.000 C 
ATOM     10  F   UNL     1      48.964   6.467  13.247  0.00  0.00    +0.000 F 
ATOM     11  F   UNL     1      47.484   7.719  14.228  0.00  0.00    +0.000 F 
ATOM     12  F   UNL     1      48.229   5.935  15.221  0.00  0.00    +0.000 F 
ENDBRANCH   5   9
ENDBRANCH   1   2
BRANCH   1  13
ATOM     13  O   UNL     1      43.485   3.566  10.227  0.00  0.00    +0.000 OA
BRANCH  13  17
ATOM     14  C   UNL     1      46.468   2.293   7.567  0.00  0.00    +0.000 A 
ATOM     15  C   UNL     1      46.113   3.647   7.601  0.00  0.00    +0.000 A 
ATOM     16  C   UNL     1      45.120   4.103   8.470  0.00  0.00    +0.000 A 
ATOM     17  C   UNL     1      44.456   3.218   9.319  0.00  0.00    +0.000 A 
ATOM     18  C   UNL     1      44.784   1.860   9.271  0.00  0.00    +0.000 A 
ATOM     19  C   UNL     1      45.784   1.401   8.407  0.00  0.00    +0.000 A 
BRANCH  14  20
ATOM     20  C   UNL     1      47.531   1.811   6.614  0.00  0.00    +0.000 C 
BRANCH  20  21
ATOM     21  N   UNL     1      48.613   2.777   6.456  0.00  0.00    +0.000 NA
ATOM     22  H   UNL     1      48.310   3.678   6.816  0.00  0.00    +0.000 HD
ATOM     23  H   UNL     1      48.792   2.910   5.461  0.00  0.00    +0.000 HD
ENDBRANCH  20  21
ENDBRANCH  14  20
ENDBRANCH  13  17
ENDBRANCH   1  13
TORSDOF 6
ENDMDL
MODEL 2
REMARK VINA RESULT:    -7.706      1.806      2.365
REMARK INTER + INTRA:         -10.622
REMARK INTER:                 -10.152
REMARK INTRA:                  -0.470
REMARK UNBOUND:                -0.438
REMARK  Name = 
REMARK  6 active torsions:
REMARK  status: ('A' for Active; 'I' for Inactive)
REMARK    1  A    between atoms: N_1  and  C_2
REMARK    2  A    between atoms: C_2  and  C_3
REMARK    3  A    between atoms: C_6  and  O_7
REMARK    4  A    between atoms: O_7  and  C_8
REMARK    5  A    between atoms: C_8  and  C_9
REMARK    6  A    between atoms: C_12  and  C_13
REMARK                            x       y       z     vdW  Elec       q    Type
REMARK                         _______ _______ _______ _____ _____    ______ ____
ROOT
ATOM      1  C   UNL     1      44.064   3.489  11.458  0.00  0.00    +0.000 C 
ENDROOT
BRANCH   1   2
ATOM      2  C   UNL     1      44.687   4.825  11.791  0.00  0.00    +0.000 A 
ATOM      3  N   UNL     1      44.084   5.925  11.250  0.00  0.00    +0.000 NA
ATOM      4  C   UNL     1      44.553   7.146  11.597  0.00  0.00    +0.000 A 
ATOM      5  C   UNL     1      45.603   7.345  12.477  0.00  0.00    +0.000 A 
ATOM      6  C   UNL     1      46.210   6.209  13.025  0.00  0.00    +0.000 A 
ATOM      7  C   UNL     1      45.751   4.936  12.687  0.00  0.00    +0.000 A 
ATOM      8 CL   UNL     1      46.490   3.573  13.438  0.00  0.00    +0.000 Cl
BRANCH   5   9
ATOM      9  C   UNL     1      46.054   8.727  12.831  0.00  0.00    +0.000 C 
ATOM     10  F   UNL     1      46.574   8.825  14.085  0.00  0.00    +0.000 F 
ATOM     11  F   UNL     1      47.022   9.187  11.991  0.00  0.00    +0.000 F 
ATOM     12  F   UNL     1      45.044   9.637  12.773  0.00  0.00    +0.000 F 
ENDBRANCH   5   9
ENDBRANCH   1   2
BRANCH   1  13
ATOM     13  O   UNL     1      43.596   3.424  10.105  0.00  0.00    +0.000 OA
BRANCH  13  17
ATOM     14  C   UNL     1      46.584   2.345   7.366  0.00  0.00    +0.000 A 
ATOM     15  C   UNL     1      46.159   3.677   7.426  0.00  0.00    +0.000 A 
ATOM     16  C   UNL     1      45.162   4.069   8.322  0.00  0.00    +0.000 A 
ATOM     17  C   UNL     1      44.565   3.139   9.172  0.00  0.00    +0.000 A 
ATOM     18  C   UNL     1      44.962   1.802   9.098  0.00  0.00    +0.000 A 
ATOM     19  C   UNL     1      45.966   1.408   8.207  0.00  0.00    +0.000 A 
BRANCH  14  20
ATOM     20  C   UNL     1      47.651   1.932   6.385  0.00  0.00    +0.000 C 
BRANCH  20  21
ATOM     21  N   UNL     1      48.780   2.856   6.372  0.00  0.00    +0.000 NA
ATOM     22  H   UNL     1      48.511   3.703   5.878  0.00  0.00    +0.000 HD
ATOM     23  H   UNL     1      49.539   2.439   5.834  0.00  0.00    +0.000 HD
ENDBRANCH  20  21
ENDBRANCH  14  20
ENDBRANCH  13  17
ENDBRANCH   1  13
TORSDOF 6
ENDMDL
MODEL 3
REMARK VINA RESULT:    -7.623      1.272      1.617
REMARK INTER + INTRA:         -10.512
REMARK INTER:                 -10.156
REMARK INTRA:                  -0.355
REMARK UNBOUND:                -0.438
REMARK  Name = 
REMARK  6 active torsions:
REMARK  status: ('A' for Active; 'I' for Inactive)
REMARK    1  A    between atoms: N_1  and  C_2
REMARK    2  A    between atoms: C_2  and  C_3
REMARK    3  A    between atoms: C_6  and  O_7
REMARK    4  A    between atoms: O_7  and  C_8
REMARK    5  A    between atoms: C_8  and  C_9
REMARK    6  A    between atoms: C_12  and  C_13
REMARK                            x       y       z     vdW  Elec       q    Type
REMARK                         _______ _______ _______ _____ _____    ______ ____
ROOT
ATOM      1  C   UNL     1      43.698   4.797  10.258  0.00  0.00    +0.000 C 
ENDROOT
BRANCH   1   2
ATOM      2  C   UNL     1      44.789   5.152  11.242  0.00  0.00    +0.000 A 
ATOM      3  N   UNL     1      45.769   5.987  10.782  0.00  0.00    +0.000 NA
ATOM      4  C   UNL     1      46.713   6.404  11.656  0.00  0.00    +0.000 A 
ATOM      5  C   UNL     1      46.739   6.041  12.992  0.00  0.00    +0.000 A 
ATOM      6  C   UNL     1      45.729   5.187  13.449  0.00  0.00    +0.000 A 
ATOM      7  C   UNL     1      44.741   4.738  12.573  0.00  0.00    +0.000 A 
ATOM      8 CL   UNL     1      43.484   3.740  13.199  0.00  0.00    +0.000 Cl
BRANCH   5   9
ATOM      9  C   UNL     1      47.805   6.560  13.905  0.00  0.00    +0.000 C 
ATOM     10  F   UNL     1      47.620   7.857  14.276  0.00  0.00    +0.000 F 
ATOM     11  F   UNL     1      47.884   5.851  15.065  0.00  0.00    +0.000 F 
ATOM     12  F   UNL     1      49.044   6.504  13.348  0.00  0.00    +0.000 F 
ENDBRANCH   5   9
ENDBRANCH   1   2
BRANCH   1  13
ATOM     13  O   UNL     1      43.743   3.420   9.862  0.00  0.00    +0.000 OA
BRANCH  13  17
ATOM     14  C   UNL     1      46.802   2.275   7.230  0.00  0.00    +0.000 A 
ATOM     15  C   UNL     1      46.326   3.591   7.196  0.00  0.00    +0.000 A 
ATOM     16  C   UNL     1      45.304   4.004   8.054  0.00  0.00    +0.000 A 
ATOM     17  C   UNL     1      44.733   3.111   8.959  0.00  0.00    +0.000 A 
ATOM     18  C   UNL     1      45.181   1.787   8.980  0.00  0.00    +0.000 A 
ATOM     19  C   UNL     1      46.210   1.374   8.127  0.00  0.00    +0.000 A 
BRANCH  14  20
ATOM     20  C   UNL     1      47.894   1.839   6.288  0.00  0.00    +0.000 C 
BRANCH  20  21
ATOM     21  N   UNL     1      48.046   2.747   5.156  0.00  0.00    +0.000 NA
ATOM     22  H   UNL     1      48.916   3.262   5.256  0.00  0.00    +0.000 HD
ATOM     23  H   UNL     1      47.297   3.439   5.187  0.00  0.00    +0.000 HD
ENDBRANCH  20  21
ENDBRANCH  14  20
ENDBRANCH  13  17
ENDBRANCH   1  13
TORSDOF 6
ENDMDL
MODEL 4
REMARK VINA RESULT:    -7.473      3.758      6.514
REMARK INTER + INTRA:         -10.313
REMARK INTER:                  -9.762
REMARK INTRA:                  -0.551
REMARK UNBOUND:                -0.438
REMARK  Name = 
REMARK  6 active torsions:
REMARK  status: ('A' for Active; 'I' for Inactive)
REMARK    1  A    between atoms: N_1  and  C_2
REMARK    2  A    between atoms: C_2  and  C_3
REMARK    3  A    between atoms: C_6  and  O_7
REMARK    4  A    between atoms: O_7  and  C_8
REMARK    5  A    between atoms: C_8  and  C_9
REMARK    6  A    between atoms: C_12  and  C_13
REMARK                            x       y       z     vdW  Elec       q    Type
REMARK                         _______ _______ _______ _____ _____    ______ ____
ROOT
ATOM      1  C   UNL     1      44.176   5.406  10.250  0.00  0.00    +0.000 C 
ENDROOT
BRANCH   1   2
ATOM      2  C   UNL     1      44.812   4.327   9.405  0.00  0.00    +0.000 A 
ATOM      3  N   UNL     1      45.650   4.752   8.411  0.00  0.00    +0.000 NA
ATOM      4  C   UNL     1      46.312   3.817   7.692  0.00  0.00    +0.000 A 
ATOM      5  C   UNL     1      46.198   2.455   7.910  0.00  0.00    +0.000 A 
ATOM      6  C   UNL     1      45.338   2.034   8.932  0.00  0.00    +0.000 A 
ATOM      7  C   UNL     1      44.640   2.973   9.691  0.00  0.00    +0.000 A 
ATOM      8 CL   UNL     1      43.644   2.407  10.978  0.00  0.00    +0.000 Cl
BRANCH   5   9
ATOM      9  C   UNL     1      46.979   1.480   7.087  0.00  0.00    +0.000 C 
ATOM     10  F   UNL     1      46.697   0.179   7.372  0.00  0.00    +0.000 F 
ATOM     11  F   UNL     1      46.749   1.625   5.753  0.00  0.00    +0.000 F 
ATOM     12  F   UNL     1      48.322   1.615   7.252  0.00  0.00    +0.000 F 
ENDBRANCH   5   9
ENDBRANCH   1   2
BRANCH   1  13
ATOM     13  O   UNL     1      45.139   6.323  10.787  0.00  0.00    +0.000 OA
BRANCH  13  17
ATOM     14  C   UNL     1      46.886   4.921  14.333  0.00  0.00    +0.000 A 
ATOM     15  C   UNL     1      47.636   5.734  13.475  0.00  0.00    +0.000 A 
ATOM     16  C   UNL     1      47.087   6.212  12.284  0.00  0.00    +0.000 A 
ATOM     17  C   UNL     1      45.781   5.886  11.921  0.00  0.00    +0.000 A 
ATOM     18  C   UNL     1      45.035   5.051  12.757  0.00  0.00    +0.000 A 
ATOM     19  C   UNL     1      45.580   4.576  13.955  0.00  0.00    +0.000 A 
BRANCH  14  20
ATOM     20  C   UNL     1      47.496   4.399  15.609  0.00  0.00    +0.000 C 
BRANCH  20  21
ATOM     21  N   UNL     1      47.913   3.006  15.494  0.00  0.00    +0.000 NA
ATOM     22  H   UNL     1      48.163   2.812  14.528  0.00  0.00    +0.000 HD
ATOM     23  H   UNL     1      47.117   2.406  15.712  0.00  0.00    +0.000 HD
ENDBRANCH  20  21
ENDBRANCH  14  20
ENDBRANCH  13  17
ENDBRANCH   1  13
TORSDOF 6
ENDMDL
MODEL 5
REMARK VINA RESULT:    -7.330      3.829      6.265
REMARK INTER + INTRA:         -10.125
REMARK INTER:                  -9.673
REMARK INTRA:                  -0.452
REMARK UNBOUND:                -0.438
REMARK  Name = 
REMARK  6 active torsions:
REMARK  status: ('A' for Active; 'I' for Inactive)
REMARK    1  A    between atoms: N_1  and  C_2
REMARK    2  A    between atoms: C_2  and  C_3
REMARK    3  A    between atoms: C_6  and  O_7
REMARK    4  A    between atoms: O_7  and  C_8
REMARK    5  A    between atoms: C_8  and  C_9
REMARK    6  A    between atoms: C_12  and  C_13
REMARK                            x       y       z     vdW  Elec       q    Type
REMARK                         _______ _______ _______ _____ _____    ______ ____
ROOT
ATOM      1  C   UNL     1      43.769   5.150  10.222  0.00  0.00    +0.000 C 
ENDROOT
BRANCH   1   2
ATOM      2  C   UNL     1      44.521   4.107   9.427  0.00  0.00    +0.000 A 
ATOM      3  N   UNL     1      45.302   4.572   8.406  0.00  0.00    +0.000 NA
ATOM      4  C   UNL     1      46.064   3.683   7.729  0.00  0.00    +0.000 A 
ATOM      5  C   UNL     1      46.105   2.329   8.018  0.00  0.00    +0.000 A 
ATOM      6  C   UNL     1      45.302   1.867   9.068  0.00  0.00    +0.000 A 
ATOM      7  C   UNL     1      44.504   2.759   9.784  0.00  0.00    +0.000 A 
ATOM      8 CL   UNL     1      43.583   2.151  11.107  0.00  0.00    +0.000 Cl
BRANCH   5   9
ATOM      9  C   UNL     1      46.990   1.407   7.239  0.00  0.00    +0.000 C 
ATOM     10  F   UNL     1      46.685   1.352   5.913  0.00  0.00    +0.000 F 
ATOM     11  F   UNL     1      48.301   1.768   7.305  0.00  0.00    +0.000 F 
ATOM     12  F   UNL     1      46.932   0.124   7.689  0.00  0.00    +0.000 F 
ENDBRANCH   5   9
ENDBRANCH   1   2
BRANCH   1  13
ATOM     13  O   UNL     1      44.035   5.066  11.628  0.00  0.00    +0.000 OA
BRANCH  13  17
ATOM     14  C   UNL     1      47.718   6.520  13.012  0.00  0.00    +0.000 A 
ATOM     15  C   UNL     1      47.050   7.208  11.992  0.00  0.00    +0.000 A 
ATOM     16  C   UNL     1      45.826   6.748  11.504  0.00  0.00    +0.000 A 
ATOM     17  C   UNL     1      45.245   5.590  12.019  0.00  0.00    +0.000 A 
ATOM     18  C   UNL     1      45.919   4.880  13.016  0.00  0.00    +0.000 A 
ATOM     19  C   UNL     1      47.142   5.343  13.513  0.00  0.00    +0.000 A 
BRANCH  14  20
ATOM     20  C   UNL     1      49.047   7.019  13.520  0.00  0.00    +0.000 C 
BRANCH  20  21
ATOM     21  N   UNL     1      50.011   7.220  12.444  0.00  0.00    +0.000 NA
ATOM     22  H   UNL     1      50.586   6.386  12.352  0.00  0.00    +0.000 HD
ATOM     23  H   UNL     1      50.643   7.976  12.706  0.00  0.00    +0.000 HD
ENDBRANCH  20  21
ENDBRANCH  14  20
ENDBRANCH  13  17
ENDBRANCH   1  13
TORSDOF 6
ENDMDL
MODEL 6
REMARK VINA RESULT:    -7.147      1.642      2.290
REMARK INTER + INTRA:          -9.883
REMARK INTER:                  -9.314
REMARK INTRA:                  -0.570
REMARK UNBOUND:                -0.438
REMARK  Name = 
REMARK  6 active torsions:
REMARK  status: ('A' for Active; 'I' for Inactive)
REMARK    1  A    between atoms: N_1  and  C_2
REMARK    2  A    between atoms: C_2  and  C_3
REMARK    3  A    between atoms: C_6  and  O_7
REMARK    4  A    between atoms: O_7  and  C_8
REMARK    5  A    between atoms: C_8  and  C_9
REMARK    6  A    between atoms: C_12  and  C_13
REMARK                            x       y       z     vdW  Elec       q    Type
REMARK                         _______ _______ _______ _____ _____    ______ ____
ROOT
ATOM      1  C   UNL     1      44.625   5.535  10.635  0.00  0.00    +0.000 C 
ENDROOT
BRANCH   1   2
ATOM      2  C   UNL     1      45.334   5.289  11.947  0.00  0.00    +0.000 A 
ATOM      3  N   UNL     1      44.794   4.328  12.755  0.00  0.00    +0.000 NA
ATOM      4  C   UNL     1      45.449   4.011  13.895  0.00  0.00    +0.000 A 
ATOM      5  C   UNL     1      46.641   4.597  14.286  0.00  0.00    +0.000 A 
ATOM      6  C   UNL     1      47.183   5.579  13.448  0.00  0.00    +0.000 A 
ATOM      7  C   UNL     1      46.531   5.929  12.266  0.00  0.00    +0.000 A 
ATOM      8 CL   UNL     1      47.273   7.097  11.238  0.00  0.00    +0.000 Cl
BRANCH   5   9
ATOM      9  C   UNL     1      47.320   4.180  15.552  0.00  0.00    +0.000 C 
ATOM     10  F   UNL     1      47.889   2.945  15.483  0.00  0.00    +0.000 F 
ATOM     11  F   UNL     1      48.322   5.031  15.907  0.00  0.00    +0.000 F 
ATOM     12  F   UNL     1      46.469   4.140  16.613  0.00  0.00    +0.000 F 
ENDBRANCH   5   9
ENDBRANCH   1   2
BRANCH   1  13
ATOM     13  O   UNL     1      44.076   4.335  10.074  0.00  0.00    +0.000 OA
BRANCH  13  17
ATOM     14  C   UNL     1      46.697   2.402   7.430  0.00  0.00    +0.000 A 
ATOM     15  C   UNL     1      45.990   1.644   8.371  0.00  0.00    +0.000 A 
ATOM     16  C   UNL     1      45.115   2.256   9.270  0.00  0.00    +0.000 A 
ATOM     17  C   UNL     1      44.930   3.638   9.253  0.00  0.00    +0.000 A 
ATOM     18  C   UNL     1      45.652   4.406   8.336  0.00  0.00    +0.000 A 
ATOM     19  C   UNL     1      46.525   3.795   7.430  0.00  0.00    +0.000 A 
BRANCH  14  20
ATOM     20  C   UNL     1      47.650   1.731   6.476  0.00  0.00    +0.000 C 
BRANCH  20  21
ATOM     21  N   UNL     1      48.148   2.647   5.455  0.00  0.00    +0.000 NA
ATOM     22  H   UNL     1      48.962   2.235   5.007  0.00  0.00    +0.000 HD
ATOM     23  H   UNL     1      48.472   3.501   5.909  0.00  0.00    +0.000 HD
ENDBRANCH  20  21
ENDBRANCH  14  20
ENDBRANCH  13  17
ENDBRANCH   1  13
TORSDOF 6
ENDMDL
MODEL 7
REMARK VINA RESULT:    -6.164      4.741      7.415
REMARK INTER + INTRA:          -8.583
REMARK INTER:                  -8.159
REMARK INTRA:                  -0.424
REMARK UNBOUND:                -0.438
REMARK  Name = 
REMARK  6 active torsions:
REMARK  status: ('A' for Active; 'I' for Inactive)
REMARK    1  A    between atoms: N_1  and  C_2
REMARK    2  A    between atoms: C_2  and  C_3
REMARK    3  A    between atoms: C_6  and  O_7
REMARK    4  A    between atoms: O_7  and  C_8
REMARK    5  A    between atoms: C_8  and  C_9
REMARK    6  A    between atoms: C_12  and  C_13
REMARK                            x       y       z     vdW  Elec       q    Type
REMARK                         _______ _______ _______ _____ _____    ______ ____
ROOT
ATOM      1  C   UNL     1      47.397   5.297  15.124  0.00  0.00    +0.000 C 
ENDROOT
BRANCH   1   2
ATOM      2  C   UNL     1      46.665   4.941  13.851  0.00  0.00    +0.000 A 
ATOM      3  N   UNL     1      46.331   3.625  13.693  0.00  0.00    +0.000 NA
ATOM      4  C   UNL     1      45.595   3.278  12.613  0.00  0.00    +0.000 A 
ATOM      5  C   UNL     1      45.153   4.181  11.661  0.00  0.00    +0.000 A 
ATOM      6  C   UNL     1      45.501   5.526  11.836  0.00  0.00    +0.000 A 
ATOM      7  C   UNL     1      46.260   5.916  12.940  0.00  0.00    +0.000 A 
ATOM      8 CL   UNL     1      46.607   7.591  13.143  0.00  0.00    +0.000 Cl
BRANCH   5   9
ATOM      9  C   UNL     1      44.323   3.727  10.502  0.00  0.00    +0.000 C 
ATOM     10  F   UNL     1      43.372   4.627  10.128  0.00  0.00    +0.000 F 
ATOM     11  F   UNL     1      45.072   3.494   9.389  0.00  0.00    +0.000 F 
ATOM     12  F   UNL     1      43.660   2.568  10.757  0.00  0.00    +0.000 F 
ENDBRANCH   5   9
ENDBRANCH   1   2
BRANCH   1  13
ATOM     13  O   UNL     1      47.292   4.273  16.122  0.00  0.00    +0.000 OA
BRANCH  13  17
ATOM     14  C   UNL     1      50.868   2.549  17.478  0.00  0.00    +0.000 A 
ATOM     15  C   UNL     1      50.675   3.928  17.622  0.00  0.00    +0.000 A 
ATOM     16  C   UNL     1      49.499   4.535  17.176  0.00  0.00    +0.000 A 
ATOM     17  C   UNL     1      48.494   3.780  16.572  0.00  0.00    +0.000 A 
ATOM     18  C   UNL     1      48.690   2.408  16.397  0.00  0.00    +0.000 A 
ATOM     19  C   UNL     1      49.864   1.796  16.850  0.00  0.00    +0.000 A 
BRANCH  14  20
ATOM     20  C   UNL     1      52.147   1.908  17.950  0.00  0.00    +0.000 C 
BRANCH  20  21
ATOM     21  N   UNL     1      52.021   0.462  18.097  0.00  0.00    +0.000 NA
ATOM     22  H   UNL     1      51.053   0.194  17.944  0.00  0.00    +0.000 HD
ATOM     23  H   UNL     1      52.240   0.209  19.060  0.00  0.00    +0.000 HD
ENDBRANCH  20  21
ENDBRANCH  14  20
ENDBRANCH  13  17
ENDBRANCH   1  13
TORSDOF 6
ENDMDL
MODEL 8
REMARK VINA RESULT:    -5.887      5.087      6.693
REMARK INTER + INTRA:          -8.218
REMARK INTER:                  -7.745
REMARK INTRA:                  -0.473
REMARK UNBOUND:                -0.438
REMARK  Name = 
REMARK  6 active torsions:
REMARK  status: ('A' for Active; 'I' for Inactive)
REMARK    1  A    between atoms: N_1  and  C_2
REMARK    2  A    between atoms: C_2  and  C_3
REMARK    3  A    between atoms: C_6  and  O_7
REMARK    4  A    between atoms: O_7  and  C_8
REMARK    5  A    between atoms: C_8  and  C_9
REMARK    6  A    between atoms: C_12  and  C_13
REMARK                            x       y       z     vdW  Elec       q    Type
REMARK                         _______ _______ _______ _____ _____    ______ ____
ROOT
ATOM      1  C   UNL     1      47.353   3.667  16.003  0.00  0.00    +0.000 C 
ENDROOT
BRANCH   1   2
ATOM      2  C   UNL     1      48.692   3.453  16.669  0.00  0.00    +0.000 A 
ATOM      3  N   UNL     1      49.249   2.214  16.523  0.00  0.00    +0.000 NA
ATOM      4  C   UNL     1      50.488   2.007  17.024  0.00  0.00    +0.000 A 
ATOM      5  C   UNL     1      51.230   2.983  17.669  0.00  0.00    +0.000 A 
ATOM      6  C   UNL     1      50.648   4.249  17.810  0.00  0.00    +0.000 A 
ATOM      7  C   UNL     1      49.370   4.493  17.305  0.00  0.00    +0.000 A 
ATOM      8 CL   UNL     1      48.725   6.084  17.448  0.00  0.00    +0.000 Cl
BRANCH   5   9
ATOM      9  C   UNL     1      52.605   2.688  18.179  0.00  0.00    +0.000 C 
ATOM     10  F   UNL     1      53.596   3.221  17.412  0.00  0.00    +0.000 F 
ATOM     11  F   UNL     1      52.807   3.173  19.435  0.00  0.00    +0.000 F 
ATOM     12  F   UNL     1      52.862   1.354  18.246  0.00  0.00    +0.000 F 
ENDBRANCH   5   9
ENDBRANCH   1   2
BRANCH   1  13
ATOM     13  O   UNL     1      47.388   3.387  14.597  0.00  0.00    +0.000 OA
BRANCH  13  17
ATOM     14  C   UNL     1      45.558   6.379  12.295  0.00  0.00    +0.000 A 
ATOM     15  C   UNL     1      44.994   5.098  12.328  0.00  0.00    +0.000 A 
ATOM     16  C   UNL     1      45.581   4.078  13.078  0.00  0.00    +0.000 A 
ATOM     17  C   UNL     1      46.746   4.312  13.808  0.00  0.00    +0.000 A 
ATOM     18  C   UNL     1      47.332   5.579  13.759  0.00  0.00    +0.000 A 
ATOM     19  C   UNL     1      46.742   6.605  13.013  0.00  0.00    +0.000 A 
BRANCH  14  20
ATOM     20  C   UNL     1      44.923   7.467  11.469  0.00  0.00    +0.000 C 
BRANCH  20  21
ATOM     21  N   UNL     1      43.514   7.205  11.196  0.00  0.00    +0.000 NA
ATOM     22  H   UNL     1      43.378   6.205  11.081  0.00  0.00    +0.000 HD
ATOM     23  H   UNL     1      43.267   7.634  10.304  0.00  0.00    +0.000 HD
ENDBRANCH  20  21
ENDBRANCH  14  20
ENDBRANCH  13  17
ENDBRANCH   1  13
TORSDOF 6
ENDMDL
MODEL 9
REMARK VINA RESULT:    -5.816      4.489      7.907
REMARK INTER + INTRA:          -8.123
REMARK INTER:                  -7.670
REMARK INTRA:                  -0.453
REMARK UNBOUND:                -0.438
REMARK  Name = 
REMARK  6 active torsions:
REMARK  status: ('A' for Active; 'I' for Inactive)
REMARK    1  A    between atoms: N_1  and  C_2
REMARK    2  A    between atoms: C_2  and  C_3
REMARK    3  A    between atoms: C_6  and  O_7
REMARK    4  A    between atoms: O_7  and  C_8
REMARK    5  A    between atoms: C_8  and  C_9
REMARK    6  A    between atoms: C_12  and  C_13
REMARK                            x       y       z     vdW  Elec       q    Type
REMARK                         _______ _______ _______ _____ _____    ______ ____
ROOT
ATOM      1  C   UNL     1      47.798   6.852  14.044  0.00  0.00    +0.000 C 
ENDROOT
BRANCH   1   2
ATOM      2  C   UNL     1      46.616   6.336  13.255  0.00  0.00    +0.000 A 
ATOM      3  N   UNL     1      46.522   4.978  13.125  0.00  0.00    +0.000 NA
ATOM      4  C   UNL     1      45.432   4.470  12.507  0.00  0.00    +0.000 A 
ATOM      5  C   UNL     1      44.401   5.246  12.005  0.00  0.00    +0.000 A 
ATOM      6  C   UNL     1      44.509   6.635  12.147  0.00  0.00    +0.000 A 
ATOM      7  C   UNL     1      45.622   7.190  12.779  0.00  0.00    +0.000 A 
ATOM      8 CL   UNL     1      45.677   8.900  12.984  0.00  0.00    +0.000 Cl
BRANCH   5   9
ATOM      9  C   UNL     1      43.214   4.612  11.351  0.00  0.00    +0.000 C 
ATOM     10  F   UNL     1      42.964   3.346  11.787  0.00  0.00    +0.000 F 
ATOM     11  F   UNL     1      42.067   5.312  11.568  0.00  0.00    +0.000 F 
ATOM     12  F   UNL     1      43.348   4.521  10.001  0.00  0.00    +0.000 F 
ENDBRANCH   5   9
ENDBRANCH   1   2
BRANCH   1  13
ATOM     13  O   UNL     1      48.579   5.795  14.617  0.00  0.00    +0.000 OA
BRANCH  13  17
ATOM     14  C   UNL     1      48.340   5.445  18.790  0.00  0.00    +0.000 A 
ATOM     15  C   UNL     1      48.969   6.564  18.232  0.00  0.00    +0.000 A 
ATOM     16  C   UNL     1      49.072   6.708  16.847  0.00  0.00    +0.000 A 
ATOM     17  C   UNL     1      48.554   5.738  15.990  0.00  0.00    +0.000 A 
ATOM     18  C   UNL     1      47.949   4.604  16.539  0.00  0.00    +0.000 A 
ATOM     19  C   UNL     1      47.839   4.460  17.926  0.00  0.00    +0.000 A 
BRANCH  14  20
ATOM     20  C   UNL     1      48.249   5.294  20.286  0.00  0.00    +0.000 C 
BRANCH  20  21
ATOM     21  N   UNL     1      48.388   3.905  20.712  0.00  0.00    +0.000 NA
ATOM     22  H   UNL     1      49.072   3.442  20.120  0.00  0.00    +0.000 HD
ATOM     23  H   UNL     1      47.502   3.424  20.558  0.00  0.00    +0.000 HD
ENDBRANCH  20  21
ENDBRANCH  14  20
ENDBRANCH  13  17
ENDBRANCH   1  13
TORSDOF 6
ENDMDL
