MODEL 1
REMARK VINA RESULT:    -7.802      0.000      0.000
REMARK INTER + INTRA:         -11.602
REMARK INTER:                 -11.223
REMARK INTRA:                  -0.378
REMARK UNBOUND:                -0.378
REMARK  Name = 
REMARK  12 active torsions:
REMARK  status: ('A' for Active; 'I' for Inactive)
REMARK    1  A    between atoms: C_1  and  O_2
REMARK    2  A    between atoms: O_2  and  C_3
REMARK    3  A    between atoms: C_3  and  C_5
REMARK    4  A    between atoms: N_9  and  C_10
REMARK    5  A    between atoms: C_10  and  C_11
REMARK    6  A    between atoms: C_11  and  C_12
REMARK    7  A    between atoms: C_11  and  C_13
REMARK    8  A    between atoms: C_17  and  C_18
REMARK    9  A    between atoms: C_18  and  C_19
REMARK   10  A    between atoms: C_18  and  C_20
REMARK   11  A    between atoms: C_18  and  C_21
REMARK   12  A    between atoms: C_21  and  O_22
REMARK                            x       y       z     vdW  Elec       q    Type
REMARK                         _______ _______ _______ _____ _____    ______ ____
ROOT
ATOM      1  C   UNL     1      43.660   5.262  12.316  0.00  0.00    +0.000 C 
ATOM      2  C   UNL     1      44.390   4.089  12.975  0.00  0.00    +0.000 C 
ENDROOT
BRANCH   1   3
ATOM      3  C   UNL     1      44.578   6.479  12.200  0.00  0.00    +0.000 A 
ATOM      4  C   UNL     1      44.123   7.667  11.608  0.00  0.00    +0.000 A 
ATOM      5  C   UNL     1      44.933   8.796  11.577  0.00  0.00    +0.000 A 
ATOM      6  C   UNL     1      46.204   8.760  12.146  0.00  0.00    +0.000 A 
ATOM      7  C   UNL     1      46.699   7.599  12.766  0.00  0.00    +0.000 A 
ATOM      8  C   UNL     1      45.871   6.455  12.755  0.00  0.00    +0.000 A 
BRANCH   7   9
ATOM      9  C   UNL     1      48.064   7.581  13.489  0.00  0.00    +0.000 C 
ATOM     10  C   UNL     1      48.206   6.393  14.472  0.00  0.00    +0.000 C 
ATOM     11  C   UNL     1      49.187   7.431  12.436  0.00  0.00    +0.000 C 
BRANCH   9  12
ATOM     12  C   UNL     1      48.315   8.897  14.275  0.00  0.00    +0.000 C 
BRANCH  12  13
ATOM     13  O   UNL     1      47.394   9.080  15.345  0.00  0.00    +0.000 OA
ATOM     14  H   UNL     1      47.670   9.883  15.820  0.00  0.00    +0.000 HD
ENDBRANCH  12  13
ENDBRANCH   9  12
ENDBRANCH   7   9
ENDBRANCH   1   3
BRANCH   1  15
ATOM     15  C   UNL     1      43.127   4.911  10.913  0.00  0.00    +0.000 C 
BRANCH  15  20
ATOM     16  C   UNL     1      46.285   2.229   7.932  0.00  0.00    +0.000 A 
ATOM     17  C   UNL     1      45.391   1.844   8.927  0.00  0.00    +0.000 A 
ATOM     18  C   UNL     1      44.635   2.818   9.573  0.00  0.00    +0.000 A 
ATOM     19  C   UNL     1      44.768   4.160   9.220  0.00  0.00    +0.000 A 
ATOM     20  N   UNL     1      44.064   5.166   9.837  0.00  0.00    +0.000 N 
ATOM     21  N   UNL     1      45.618   4.541   8.247  0.00  0.00    +0.000 NA
ATOM     22  C   UNL     1      46.359   3.579   7.630  0.00  0.00    +0.000 A 
ATOM     23  H   UNL     1      44.221   6.090   9.459  0.00  0.00    +0.000 HD
BRANCH  16  24
ATOM     24  C   UNL     1      47.151   1.272   7.213  0.00  0.00    +0.000 C 
ATOM     25  O   UNL     1      46.932   0.078   7.161  0.00  0.00    +0.000 OA
BRANCH  24  27
ATOM     26  C   UNL     1      47.946   2.320   5.276  0.00  0.00    +0.000 C 
ATOM     27  O   UNL     1      48.186   1.923   6.630  0.00  0.00    +0.000 OA
ENDBRANCH  24  27
ENDBRANCH  16  24
ENDBRANCH  15  20
ENDBRANCH   1  15
TORSDOF 8
ENDMDL
MODEL 2
REMARK VINA RESULT:    -6.813      3.315      5.736
REMARK INTER + INTRA:         -10.178
REMARK INTER:                  -9.098
REMARK INTRA:                  -1.080
REMARK UNBOUND:                -0.378
REMARK  Name = 
REMARK  12 active torsions:
REMARK  status: ('A' for Active; 'I' for Inactive)
REMARK    1  A    between atoms: C_1  and  O_2
REMARK    2  A    between atoms: O_2  and  C_3
REMARK    3  A    between atoms: C_3  and  C_5
REMARK    4  A    between atoms: N_9  and  C_10
REMARK    5  A    between atoms: C_10  and  C_11
REMARK    6  A    between atoms: C_11  and  C_12
REMARK    7  A    between atoms: C_11  and  C_13
REMARK    8  A    between atoms: C_17  and  C_18
REMARK    9  A    between atoms: C_18  and  C_19
REMARK   10  A    between atoms: C_18  and  C_20
REMARK   11  A    between atoms: C_18  and  C_21
REMARK   12  A    between atoms: C_21  and  O_22
REMARK                            x       y       z     vdW  Elec       q    Type
REMARK                         _______ _______ _______ _____ _____    ______ ____
ROOT
ATOM      1  C   UNL     1      48.983   7.672  13.754  0.00  0.00    +0.000 C 
ATOM      2  C   UNL     1      49.710   8.999  13.524  0.00  0.00    +0.000 C 
ENDROOT
BRANCH   1   3
ATOM      3  C   UNL     1      49.496   6.982  15.019  0.00  0.00    +0.000 A 
ATOM      4  C   UNL     1      50.777   7.257  15.518  0.00  0.00    +0.000 A 
ATOM      5  C   UNL     1      51.208   6.690  16.710  0.00  0.00    +0.000 A 
ATOM      6  C   UNL     1      50.363   5.847  17.428  0.00  0.00    +0.000 A 
ATOM      7  C   UNL     1      49.063   5.553  16.980  0.00  0.00    +0.000 A 
ATOM      8  C   UNL     1      48.659   6.115  15.749  0.00  0.00    +0.000 A 
BRANCH   7   9
ATOM      9  C   UNL     1      48.083   4.705  17.821  0.00  0.00    +0.000 C 
ATOM     10  C   UNL     1      48.808   3.724  18.775  0.00  0.00    +0.000 C 
ATOM     11  C   UNL     1      47.236   5.649  18.706  0.00  0.00    +0.000 C 
BRANCH   9  12
ATOM     12  C   UNL     1      47.114   3.888  16.925  0.00  0.00    +0.000 C 
BRANCH  12  13
ATOM     13  O   UNL     1      46.427   2.871  17.646  0.00  0.00    +0.000 OA
ATOM     14  H   UNL     1      46.943   2.700  18.453  0.00  0.00    +0.000 HD
ENDBRANCH  12  13
ENDBRANCH   9  12
ENDBRANCH   7   9
ENDBRANCH   1   3
BRANCH   1  15
ATOM     15  C   UNL     1      47.457   7.848  13.873  0.00  0.00    +0.000 C 
BRANCH  15  20
ATOM     16  C   UNL     1      44.520   4.379  11.551  0.00  0.00    +0.000 A 
ATOM     17  C   UNL     1      45.129   4.397  12.803  0.00  0.00    +0.000 A 
ATOM     18  C   UNL     1      45.874   5.511  13.178  0.00  0.00    +0.000 A 
ATOM     19  C   UNL     1      46.001   6.596  12.312  0.00  0.00    +0.000 A 
ATOM     20  N   UNL     1      46.741   7.712  12.620  0.00  0.00    +0.000 N 
ATOM     21  N   UNL     1      45.401   6.596  11.106  0.00  0.00    +0.000 NA
ATOM     22  C   UNL     1      44.683   5.496  10.748  0.00  0.00    +0.000 A 
ATOM     23  H   UNL     1      46.717   8.445  11.924  0.00  0.00    +0.000 HD
BRANCH  16  24
ATOM     24  C   UNL     1      43.735   3.231  11.054  0.00  0.00    +0.000 C 
ATOM     25  O   UNL     1      43.077   2.506  11.774  0.00  0.00    +0.000 OA
BRANCH  24  27
ATOM     26  C   UNL     1      44.751   2.103   9.271  0.00  0.00    +0.000 C 
ATOM     27  O   UNL     1      43.854   3.129   9.707  0.00  0.00    +0.000 OA
ENDBRANCH  24  27
ENDBRANCH  16  24
ENDBRANCH  15  20
ENDBRANCH   1  15
TORSDOF 8
ENDMDL
MODEL 3
REMARK VINA RESULT:    -6.673      2.938      5.213
REMARK INTER + INTRA:          -9.977
REMARK INTER:                  -9.036
REMARK INTRA:                  -0.942
REMARK UNBOUND:                -0.378
REMARK  Name = 
REMARK  12 active torsions:
REMARK  status: ('A' for Active; 'I' for Inactive)
REMARK    1  A    between atoms: C_1  and  O_2
REMARK    2  A    between atoms: O_2  and  C_3
REMARK    3  A    between atoms: C_3  and  C_5
REMARK    4  A    between atoms: N_9  and  C_10
REMARK    5  A    between atoms: C_10  and  C_11
REMARK    6  A    between atoms: C_11  and  C_12
REMARK    7  A    between atoms: C_11  and  C_13
REMARK    8  A    between atoms: C_17  and  C_18
REMARK    9  A    between atoms: C_18  and  C_19
REMARK   10  A    between atoms: C_18  and  C_20
REMARK   11  A    between atoms: C_18  and  C_21
REMARK   12  A    between atoms: C_21  and  O_22
REMARK                            x       y       z     vdW  Elec       q    Type
REMARK                         _______ _______ _______ _____ _____    ______ ____
ROOT
ATOM      1  C   UNL     1      48.504   8.125  13.097  0.00  0.00    +0.000 C 
ATOM      2  C   UNL     1      49.561   9.089  12.553  0.00  0.00    +0.000 C 
ENDROOT
BRANCH   1   3
ATOM      3  C   UNL     1      48.628   7.978  14.614  0.00  0.00    +0.000 A 
ATOM      4  C   UNL     1      48.661   9.108  15.444  0.00  0.00    +0.000 A 
ATOM      5  C   UNL     1      48.693   8.970  16.826  0.00  0.00    +0.000 A 
ATOM      6  C   UNL     1      48.681   7.701  17.401  0.00  0.00    +0.000 A 
ATOM      7  C   UNL     1      48.631   6.537  16.613  0.00  0.00    +0.000 A 
ATOM      8  C   UNL     1      48.633   6.703  15.211  0.00  0.00    +0.000 A 
BRANCH   7   9
ATOM      9  C   UNL     1      48.512   5.132  17.243  0.00  0.00    +0.000 C 
ATOM     10  C   UNL     1      47.716   4.143  16.356  0.00  0.00    +0.000 C 
ATOM     11  C   UNL     1      49.930   4.539  17.418  0.00  0.00    +0.000 C 
BRANCH   9  12
ATOM     12  C   UNL     1      47.838   5.184  18.641  0.00  0.00    +0.000 C 
BRANCH  12  13
ATOM     13  O   UNL     1      46.416   5.200  18.563  0.00  0.00    +0.000 OA
ATOM     14  H   UNL     1      46.158   6.101  18.305  0.00  0.00    +0.000 HD
ENDBRANCH  12  13
ENDBRANCH   9  12
ENDBRANCH   7   9
ENDBRANCH   1   3
BRANCH   1  15
ATOM     15  C   UNL     1      47.069   8.573  12.761  0.00  0.00    +0.000 C 
BRANCH  15  20
ATOM     16  C   UNL     1      44.461   4.409  11.378  0.00  0.00    +0.000 A 
ATOM     17  C   UNL     1      45.481   5.121  10.752  0.00  0.00    +0.000 A 
ATOM     18  C   UNL     1      46.022   6.233  11.391  0.00  0.00    +0.000 A 
ATOM     19  C   UNL     1      45.551   6.621  12.644  0.00  0.00    +0.000 A 
ATOM     20  N   UNL     1      46.033   7.722  13.312  0.00  0.00    +0.000 N 
ATOM     21  N   UNL     1      44.577   5.930  13.266  0.00  0.00    +0.000 NA
ATOM     22  C   UNL     1      44.050   4.850  12.625  0.00  0.00    +0.000 A 
ATOM     23  H   UNL     1      45.638   7.870  14.230  0.00  0.00    +0.000 HD
BRANCH  16  24
ATOM     24  C   UNL     1      43.805   3.236  10.765  0.00  0.00    +0.000 C 
ATOM     25  O   UNL     1      43.069   2.485  11.374  0.00  0.00    +0.000 OA
BRANCH  24  27
ATOM     26  C   UNL     1      44.787   1.922   9.094  0.00  0.00    +0.000 C 
ATOM     27  O   UNL     1      44.137   3.144   9.454  0.00  0.00    +0.000 OA
ENDBRANCH  24  27
ENDBRANCH  16  24
ENDBRANCH  15  20
ENDBRANCH   1  15
TORSDOF 8
ENDMDL
MODEL 4
REMARK VINA RESULT:    -6.452      4.007      6.623
REMARK INTER + INTRA:          -9.659
REMARK INTER:                  -8.168
REMARK INTRA:                  -1.491
REMARK UNBOUND:                -0.378
REMARK  Name = 
REMARK  12 active torsions:
REMARK  status: ('A' for Active; 'I' for Inactive)
REMARK    1  A    between atoms: C_1  and  O_2
REMARK    2  A    between atoms: O_2  and  C_3
REMARK    3  A    between atoms: C_3  and  C_5
REMARK    4  A    between atoms: N_9  and  C_10
REMARK    5  A    between atoms: C_10  and  C_11
REMARK    6  A    between atoms: C_11  and  C_12
REMARK    7  A    between atoms: C_11  and  C_13
REMARK    8  A    between atoms: C_17  and  C_18
REMARK    9  A    between atoms: C_18  and  C_19
REMARK   10  A    between atoms: C_18  and  C_20
REMARK   11  A    between atoms: C_18  and  C_21
REMARK   12  A    between atoms: C_21  and  O_22
REMARK                            x       y       z     vdW  Elec       q    Type
REMARK                         _______ _______ _______ _____ _____    ______ ____
ROOT
ATOM      1  C   UNL     1      50.030   8.379  14.751  0.00  0.00    +0.000 C 
ATOM      2  C   UNL     1      49.726   9.842  14.420  0.00  0.00    +0.000 C 
ENDROOT
BRANCH   1   3
ATOM      3  C   UNL     1      49.404   7.981  16.088  0.00  0.00    +0.000 A 
ATOM      4  C   UNL     1      48.760   8.933  16.891  0.00  0.00    +0.000 A 
ATOM      5  C   UNL     1      48.123   8.552  18.066  0.00  0.00    +0.000 A 
ATOM      6  C   UNL     1      48.110   7.213  18.450  0.00  0.00    +0.000 A 
ATOM      7  C   UNL     1      48.726   6.218  17.671  0.00  0.00    +0.000 A 
ATOM      8  C   UNL     1      49.396   6.634  16.499  0.00  0.00    +0.000 A 
BRANCH   7   9
ATOM      9  C   UNL     1      48.627   4.720  18.037  0.00  0.00    +0.000 C 
ATOM     10  C   UNL     1      47.522   3.982  17.242  0.00  0.00    +0.000 C 
ATOM     11  C   UNL     1      49.968   4.030  17.690  0.00  0.00    +0.000 C 
BRANCH   9  12
ATOM     12  C   UNL     1      48.359   4.515  19.552  0.00  0.00    +0.000 C 
BRANCH  12  13
ATOM     13  O   UNL     1      48.466   3.151  19.947  0.00  0.00    +0.000 OA
ATOM     14  H   UNL     1      48.957   3.139  20.787  0.00  0.00    +0.000 HD
ENDBRANCH  12  13
ENDBRANCH   9  12
ENDBRANCH   7   9
ENDBRANCH   1   3
BRANCH   1  15
ATOM     15  C   UNL     1      49.526   7.412  13.663  0.00  0.00    +0.000 C 
BRANCH  15  20
ATOM     16  C   UNL     1      44.884   5.353  13.145  0.00  0.00    +0.000 A 
ATOM     17  C   UNL     1      46.041   4.897  13.770  0.00  0.00    +0.000 A 
ATOM     18  C   UNL     1      47.177   5.702  13.762  0.00  0.00    +0.000 A 
ATOM     19  C   UNL     1      47.150   6.950  13.143  0.00  0.00    +0.000 A 
ATOM     20  N   UNL     1      48.247   7.776  13.086  0.00  0.00    +0.000 N 
ATOM     21  N   UNL     1      46.031   7.408  12.551  0.00  0.00    +0.000 NA
ATOM     22  C   UNL     1      44.930   6.607  12.557  0.00  0.00    +0.000 A 
ATOM     23  H   UNL     1      48.084   8.671  12.646  0.00  0.00    +0.000 HD
BRANCH  16  24
ATOM     24  C   UNL     1      43.640   4.559  13.075  0.00  0.00    +0.000 C 
ATOM     25  O   UNL     1      42.529   5.045  13.148  0.00  0.00    +0.000 OA
BRANCH  24  27
ATOM     26  C   UNL     1      43.470   2.692  11.672  0.00  0.00    +0.000 C 
ATOM     27  O   UNL     1      43.931   3.246  12.908  0.00  0.00    +0.000 OA
ENDBRANCH  24  27
ENDBRANCH  16  24
ENDBRANCH  15  20
ENDBRANCH   1  15
TORSDOF 8
ENDMDL
MODEL 5
REMARK VINA RESULT:    -6.401      5.060      7.052
REMARK INTER + INTRA:          -9.586
REMARK INTER:                  -8.819
REMARK INTRA:                  -0.767
REMARK UNBOUND:                -0.378
REMARK  Name = 
REMARK  12 active torsions:
REMARK  status: ('A' for Active; 'I' for Inactive)
REMARK    1  A    between atoms: C_1  and  O_2
REMARK    2  A    between atoms: O_2  and  C_3
REMARK    3  A    between atoms: C_3  and  C_5
REMARK    4  A    between atoms: N_9  and  C_10
REMARK    5  A    between atoms: C_10  and  C_11
REMARK    6  A    between atoms: C_11  and  C_12
REMARK    7  A    between atoms: C_11  and  C_13
REMARK    8  A    between atoms: C_17  and  C_18
REMARK    9  A    between atoms: C_18  and  C_19
REMARK   10  A    between atoms: C_18  and  C_20
REMARK   11  A    between atoms: C_18  and  C_21
REMARK   12  A    between atoms: C_21  and  O_22
REMARK                            x       y       z     vdW  Elec       q    Type
REMARK                         _______ _______ _______ _____ _____    ______ ____
ROOT
ATOM      1  C   UNL     1      48.043   4.114  17.275  0.00  0.00    +0.000 C 
ATOM      2  C   UNL     1      46.937   3.146  17.704  0.00  0.00    +0.000 C 
ENDROOT
BRANCH   1   3
ATOM      3  C   UNL     1      49.424   3.492  17.485  0.00  0.00    +0.000 A 
ATOM      4  C   UNL     1      49.709   2.202  17.016  0.00  0.00    +0.000 A 
ATOM      5  C   UNL     1      50.988   1.672  17.138  0.00  0.00    +0.000 A 
ATOM      6  C   UNL     1      52.003   2.427  17.721  0.00  0.00    +0.000 A 
ATOM      7  C   UNL     1      51.773   3.732  18.191  0.00  0.00    +0.000 A 
ATOM      8  C   UNL     1      50.458   4.235  18.086  0.00  0.00    +0.000 A 
BRANCH   7   9
ATOM      9  C   UNL     1      52.916   4.612  18.742  0.00  0.00    +0.000 C 
ATOM     10  C   UNL     1      54.176   4.589  17.843  0.00  0.00    +0.000 C 
ATOM     11  C   UNL     1      52.433   6.081  18.802  0.00  0.00    +0.000 C 
BRANCH   9  12
ATOM     12  C   UNL     1      53.331   4.184  20.176  0.00  0.00    +0.000 C 
BRANCH  12  13
ATOM     13  O   UNL     1      52.238   4.194  21.089  0.00  0.00    +0.000 OA
ATOM     14  H   UNL     1      51.618   4.876  20.778  0.00  0.00    +0.000 HD
ENDBRANCH  12  13
ENDBRANCH   9  12
ENDBRANCH   7   9
ENDBRANCH   1   3
BRANCH   1  15
ATOM     15  C   UNL     1      47.914   4.539  15.799  0.00  0.00    +0.000 C 
BRANCH  15  20
ATOM     16  C   UNL     1      45.218   4.622  11.465  0.00  0.00    +0.000 A 
ATOM     17  C   UNL     1      45.916   5.615  12.149  0.00  0.00    +0.000 A 
ATOM     18  C   UNL     1      46.584   5.286  13.325  0.00  0.00    +0.000 A 
ATOM     19  C   UNL     1      46.560   3.978  13.804  0.00  0.00    +0.000 A 
ATOM     20  N   UNL     1      47.183   3.601  14.970  0.00  0.00    +0.000 N 
ATOM     21  N   UNL     1      45.903   3.007  13.142  0.00  0.00    +0.000 NA
ATOM     22  C   UNL     1      45.245   3.344  11.999  0.00  0.00    +0.000 A 
ATOM     23  H   UNL     1      47.126   2.615  15.184  0.00  0.00    +0.000 HD
BRANCH  16  24
ATOM     24  C   UNL     1      44.455   4.882  10.227  0.00  0.00    +0.000 C 
ATOM     25  O   UNL     1      43.255   5.066  10.205  0.00  0.00    +0.000 OA
BRANCH  24  27
ATOM     26  C   UNL     1      45.096   3.803   8.250  0.00  0.00    +0.000 C 
ATOM     27  O   UNL     1      45.288   4.892   9.157  0.00  0.00    +0.000 OA
ENDBRANCH  24  27
ENDBRANCH  16  24
ENDBRANCH  15  20
ENDBRANCH   1  15
TORSDOF 8
ENDMDL
MODEL 6
REMARK VINA RESULT:    -6.037      4.191      6.899
REMARK INTER + INTRA:          -9.062
REMARK INTER:                  -7.904
REMARK INTRA:                  -1.158
REMARK UNBOUND:                -0.378
REMARK  Name = 
REMARK  12 active torsions:
REMARK  status: ('A' for Active; 'I' for Inactive)
REMARK    1  A    between atoms: C_1  and  O_2
REMARK    2  A    between atoms: O_2  and  C_3
REMARK    3  A    between atoms: C_3  and  C_5
REMARK    4  A    between atoms: N_9  and  C_10
REMARK    5  A    between atoms: C_10  and  C_11
REMARK    6  A    between atoms: C_11  and  C_12
REMARK    7  A    between atoms: C_11  and  C_13
REMARK    8  A    between atoms: C_17  and  C_18
REMARK    9  A    between atoms: C_18  and  C_19
REMARK   10  A    between atoms: C_18  and  C_20
REMARK   11  A    between atoms: C_18  and  C_21
REMARK   12  A    between atoms: C_21  and  O_22
REMARK                            x       y       z     vdW  Elec       q    Type
REMARK                         _______ _______ _______ _____ _____    ______ ____
ROOT
ATOM      1  C   UNL     1      46.037   5.185  12.040  0.00  0.00    +0.000 C 
ATOM      2  C   UNL     1      44.983   4.936  10.958  0.00  0.00    +0.000 C 
ENDROOT
BRANCH   1   3
ATOM      3  C   UNL     1      46.373   6.673  12.143  0.00  0.00    +0.000 A 
ATOM      4  C   UNL     1      45.390   7.607  12.501  0.00  0.00    +0.000 A 
ATOM      5  C   UNL     1      45.716   8.947  12.672  0.00  0.00    +0.000 A 
ATOM      6  C   UNL     1      47.032   9.372  12.500  0.00  0.00    +0.000 A 
ATOM      7  C   UNL     1      48.057   8.472  12.159  0.00  0.00    +0.000 A 
ATOM      8  C   UNL     1      47.694   7.122  11.958  0.00  0.00    +0.000 A 
BRANCH   7   9
ATOM      9  C   UNL     1      49.534   8.916  12.069  0.00  0.00    +0.000 C 
ATOM     10  C   UNL     1      49.712  10.254  11.309  0.00  0.00    +0.000 C 
ATOM     11  C   UNL     1      50.079   9.136  13.500  0.00  0.00    +0.000 C 
BRANCH   9  12
ATOM     12  C   UNL     1      50.417   7.842  11.379  0.00  0.00    +0.000 C 
BRANCH  12  13
ATOM     13  O   UNL     1      51.721   7.759  11.943  0.00  0.00    +0.000 OA
ATOM     14  H   UNL     1      52.247   8.473  11.544  0.00  0.00    +0.000 HD
ENDBRANCH  12  13
ENDBRANCH   9  12
ENDBRANCH   7   9
ENDBRANCH   1   3
BRANCH   1  15
ATOM     15  C   UNL     1      45.589   4.683  13.426  0.00  0.00    +0.000 C 
BRANCH  15  20
ATOM     16  C   UNL     1      48.916   4.036  17.242  0.00  0.00    +0.000 A 
ATOM     17  C   UNL     1      48.154   5.131  16.846  0.00  0.00    +0.000 A 
ATOM     18  C   UNL     1      47.304   5.005  15.751  0.00  0.00    +0.000 A 
ATOM     19  C   UNL     1      47.213   3.793  15.068  0.00  0.00    +0.000 A 
ATOM     20  N   UNL     1      46.407   3.617  13.969  0.00  0.00    +0.000 N 
ATOM     21  N   UNL     1      47.932   2.722  15.454  0.00  0.00    +0.000 NA
ATOM     22  C   UNL     1      48.768   2.862  16.520  0.00  0.00    +0.000 A 
ATOM     23  H   UNL     1      46.400   2.679  13.592  0.00  0.00    +0.000 HD
BRANCH  16  24
ATOM     24  C   UNL     1      49.867   4.082  18.372  0.00  0.00    +0.000 C 
ATOM     25  O   UNL     1      49.543   4.349  19.512  0.00  0.00    +0.000 OA
BRANCH  24  27
ATOM     26  C   UNL     1      51.858   4.893  17.443  0.00  0.00    +0.000 C 
ATOM     27  O   UNL     1      51.117   3.777  17.944  0.00  0.00    +0.000 OA
ENDBRANCH  24  27
ENDBRANCH  16  24
ENDBRANCH  15  20
ENDBRANCH   1  15
TORSDOF 8
ENDMDL
MODEL 7
REMARK VINA RESULT:    -5.999      4.331      8.418
REMARK INTER + INTRA:          -9.008
REMARK INTER:                  -8.182
REMARK INTRA:                  -0.826
REMARK UNBOUND:                -0.378
REMARK  Name = 
REMARK  12 active torsions:
REMARK  status: ('A' for Active; 'I' for Inactive)
REMARK    1  A    between atoms: C_1  and  O_2
REMARK    2  A    between atoms: O_2  and  C_3
REMARK    3  A    between atoms: C_3  and  C_5
REMARK    4  A    between atoms: N_9  and  C_10
REMARK    5  A    between atoms: C_10  and  C_11
REMARK    6  A    between atoms: C_11  and  C_12
REMARK    7  A    between atoms: C_11  and  C_13
REMARK    8  A    between atoms: C_17  and  C_18
REMARK    9  A    between atoms: C_18  and  C_19
REMARK   10  A    between atoms: C_18  and  C_20
REMARK   11  A    between atoms: C_18  and  C_21
REMARK   12  A    between atoms: C_21  and  O_22
REMARK                            x       y       z     vdW  Elec       q    Type
REMARK                         _______ _______ _______ _____ _____    ______ ____
ROOT
ATOM      1  C   UNL     1      47.557   7.536  12.752  0.00  0.00    +0.000 C 
ATOM      2  C   UNL     1      48.752   7.605  11.798  0.00  0.00    +0.000 C 
ENDROOT
BRANCH   1   3
ATOM      3  C   UNL     1      46.945   6.136  12.759  0.00  0.00    +0.000 A 
ATOM      4  C   UNL     1      47.443   5.138  13.609  0.00  0.00    +0.000 A 
ATOM      5  C   UNL     1      46.833   3.891  13.670  0.00  0.00    +0.000 A 
ATOM      6  C   UNL     1      45.708   3.626  12.892  0.00  0.00    +0.000 A 
ATOM      7  C   UNL     1      45.159   4.598  12.037  0.00  0.00    +0.000 A 
ATOM      8  C   UNL     1      45.817   5.845  11.967  0.00  0.00    +0.000 A 
BRANCH   7   9
ATOM      9  C   UNL     1      43.854   4.346  11.250  0.00  0.00    +0.000 C 
ATOM     10  C   UNL     1      44.052   4.435   9.717  0.00  0.00    +0.000 C 
ATOM     11  C   UNL     1      43.352   2.915  11.556  0.00  0.00    +0.000 C 
BRANCH   9  12
ATOM     12  C   UNL     1      42.736   5.344  11.656  0.00  0.00    +0.000 C 
BRANCH  12  13
ATOM     13  O   UNL     1      42.617   6.433  10.747  0.00  0.00    +0.000 OA
ATOM     14  H   UNL     1      41.666   6.596  10.624  0.00  0.00    +0.000 HD
ENDBRANCH  12  13
ENDBRANCH   9  12
ENDBRANCH   7   9
ENDBRANCH   1   3
BRANCH   1  15
ATOM     15  C   UNL     1      47.935   7.916  14.197  0.00  0.00    +0.000 C 
BRANCH  15  20
ATOM     16  C   UNL     1      51.069   5.522  17.437  0.00  0.00    +0.000 A 
ATOM     17  C   UNL     1      49.692   5.450  17.248  0.00  0.00    +0.000 A 
ATOM     18  C   UNL     1      49.103   6.228  16.255  0.00  0.00    +0.000 A 
ATOM     19  C   UNL     1      49.886   7.059  15.456  0.00  0.00    +0.000 A 
ATOM     20  N   UNL     1      49.356   7.864  14.476  0.00  0.00    +0.000 N 
ATOM     21  N   UNL     1      51.221   7.122  15.618  0.00  0.00    +0.000 NA
ATOM     22  C   UNL     1      51.783   6.365  16.601  0.00  0.00    +0.000 A 
ATOM     23  H   UNL     1      50.036   8.386  13.940  0.00  0.00    +0.000 HD
BRANCH  16  24
ATOM     24  C   UNL     1      51.780   4.759  18.484  0.00  0.00    +0.000 C 
ATOM     25  O   UNL     1      51.449   4.756  19.652  0.00  0.00    +0.000 OA
BRANCH  24  27
ATOM     26  C   UNL     1      52.737   2.656  18.105  0.00  0.00    +0.000 C 
ATOM     27  O   UNL     1      52.818   4.075  17.942  0.00  0.00    +0.000 OA
ENDBRANCH  24  27
ENDBRANCH  16  24
ENDBRANCH  15  20
ENDBRANCH   1  15
TORSDOF 8
ENDMDL
MODEL 8
REMARK VINA RESULT:    -5.983      3.353      5.263
REMARK INTER + INTRA:          -8.984
REMARK INTER:                  -8.028
REMARK INTRA:                  -0.956
REMARK UNBOUND:                -0.378
REMARK  Name = 
REMARK  12 active torsions:
REMARK  status: ('A' for Active; 'I' for Inactive)
REMARK    1  A    between atoms: C_1  and  O_2
REMARK    2  A    between atoms: O_2  and  C_3
REMARK    3  A    between atoms: C_3  and  C_5
REMARK    4  A    between atoms: N_9  and  C_10
REMARK    5  A    between atoms: C_10  and  C_11
REMARK    6  A    between atoms: C_11  and  C_12
REMARK    7  A    between atoms: C_11  and  C_13
REMARK    8  A    between atoms: C_17  and  C_18
REMARK    9  A    between atoms: C_18  and  C_19
REMARK   10  A    between atoms: C_18  and  C_20
REMARK   11  A    between atoms: C_18  and  C_21
REMARK   12  A    between atoms: C_21  and  O_22
REMARK                            x       y       z     vdW  Elec       q    Type
REMARK                         _______ _______ _______ _____ _____    ______ ____
ROOT
ATOM      1  C   UNL     1      47.935   8.356  14.324  0.00  0.00    +0.000 C 
ATOM      2  C   UNL     1      48.243   9.145  15.599  0.00  0.00    +0.000 C 
ENDROOT
BRANCH   1   3
ATOM      3  C   UNL     1      48.511   9.060  13.095  0.00  0.00    +0.000 A 
ATOM      4  C   UNL     1      47.867  10.176  12.539  0.00  0.00    +0.000 A 
ATOM      5  C   UNL     1      48.436  10.861  11.473  0.00  0.00    +0.000 A 
ATOM      6  C   UNL     1      49.661  10.450  10.952  0.00  0.00    +0.000 A 
ATOM      7  C   UNL     1      50.354   9.349  11.485  0.00  0.00    +0.000 A 
ATOM      8  C   UNL     1      49.740   8.648  12.547  0.00  0.00    +0.000 A 
BRANCH   7   9
ATOM      9  C   UNL     1      51.760   8.951  10.983  0.00  0.00    +0.000 C 
ATOM     10  C   UNL     1      51.785   7.552  10.319  0.00  0.00    +0.000 C 
ATOM     11  C   UNL     1      52.214   9.967   9.908  0.00  0.00    +0.000 C 
BRANCH   9  12
ATOM     12  C   UNL     1      52.806   8.965  12.130  0.00  0.00    +0.000 C 
BRANCH  12  13
ATOM     13  O   UNL     1      53.343   7.674  12.397  0.00  0.00    +0.000 OA
ATOM     14  H   UNL     1      52.589   7.062  12.461  0.00  0.00    +0.000 HD
ENDBRANCH  12  13
ENDBRANCH   9  12
ENDBRANCH   7   9
ENDBRANCH   1   3
BRANCH   1  15
ATOM     15  C   UNL     1      48.486   6.919  14.372  0.00  0.00    +0.000 C 
BRANCH  15  20
ATOM     16  C   UNL     1      44.886   4.548  11.637  0.00  0.00    +0.000 A 
ATOM     17  C   UNL     1      45.836   5.507  11.295  0.00  0.00    +0.000 A 
ATOM     18  C   UNL     1      46.716   5.967  12.271  0.00  0.00    +0.000 A 
ATOM     19  C   UNL     1      46.649   5.467  13.570  0.00  0.00    +0.000 A 
ATOM     20  N   UNL     1      47.477   5.899  14.578  0.00  0.00    +0.000 N 
ATOM     21  N   UNL     1      45.746   4.526  13.907  0.00  0.00    +0.000 NA
ATOM     22  C   UNL     1      44.884   4.092  12.945  0.00  0.00    +0.000 A 
ATOM     23  H   UNL     1      47.354   5.426  15.463  0.00  0.00    +0.000 HD
BRANCH  16  24
ATOM     24  C   UNL     1      43.892   4.022  10.679  0.00  0.00    +0.000 C 
ATOM     25  O   UNL     1      42.959   3.315  11.001  0.00  0.00    +0.000 OA
BRANCH  24  27
ATOM     26  C   UNL     1      44.629   3.431   8.537  0.00  0.00    +0.000 C 
ATOM     27  O   UNL     1      44.175   4.456   9.426  0.00  0.00    +0.000 OA
ENDBRANCH  24  27
ENDBRANCH  16  24
ENDBRANCH  15  20
ENDBRANCH   1  15
TORSDOF 8
ENDMDL
MODEL 9
REMARK VINA RESULT:    -5.743      4.047      7.807
REMARK INTER + INTRA:          -8.639
REMARK INTER:                  -7.383
REMARK INTRA:                  -1.256
REMARK UNBOUND:                -0.378
REMARK  Name = 
REMARK  12 active torsions:
REMARK  status: ('A' for Active; 'I' for Inactive)
REMARK    1  A    between atoms: C_1  and  O_2
REMARK    2  A    between atoms: O_2  and  C_3
REMARK    3  A    between atoms: C_3  and  C_5
REMARK    4  A    between atoms: N_9  and  C_10
REMARK    5  A    between atoms: C_10  and  C_11
REMARK    6  A    between atoms: C_11  and  C_12
REMARK    7  A    between atoms: C_11  and  C_13
REMARK    8  A    between atoms: C_17  and  C_18
REMARK    9  A    between atoms: C_18  and  C_19
REMARK   10  A    between atoms: C_18  and  C_20
REMARK   11  A    between atoms: C_18  and  C_21
REMARK   12  A    between atoms: C_21  and  O_22
REMARK                            x       y       z     vdW  Elec       q    Type
REMARK                         _______ _______ _______ _____ _____    ______ ____
ROOT
ATOM      1  C   UNL     1      49.039   8.619  12.234  0.00  0.00    +0.000 C 
ATOM      2  C   UNL     1      49.817   7.370  11.811  0.00  0.00    +0.000 C 
ENDROOT
BRANCH   1   3
ATOM      3  C   UNL     1      47.537   8.335  12.286  0.00  0.00    +0.000 A 
ATOM      4  C   UNL     1      46.605   9.376  12.158  0.00  0.00    +0.000 A 
ATOM      5  C   UNL     1      45.243   9.104  12.124  0.00  0.00    +0.000 A 
ATOM      6  C   UNL     1      44.791   7.789  12.207  0.00  0.00    +0.000 A 
ATOM      7  C   UNL     1      45.686   6.709  12.318  0.00  0.00    +0.000 A 
ATOM      8  C   UNL     1      47.063   7.013  12.384  0.00  0.00    +0.000 A 
BRANCH   7   9
ATOM      9  C   UNL     1      45.198   5.244  12.305  0.00  0.00    +0.000 C 
ATOM     10  C   UNL     1      43.755   5.088  12.844  0.00  0.00    +0.000 C 
ATOM     11  C   UNL     1      45.191   4.731  10.846  0.00  0.00    +0.000 C 
BRANCH   9  12
ATOM     12  C   UNL     1      46.131   4.320  13.135  0.00  0.00    +0.000 C 
BRANCH  12  13
ATOM     13  O   UNL     1      45.937   2.941  12.842  0.00  0.00    +0.000 OA
ATOM     14  H   UNL     1      45.202   2.888  12.207  0.00  0.00    +0.000 HD
ENDBRANCH  12  13
ENDBRANCH   9  12
ENDBRANCH   7   9
ENDBRANCH   1   3
BRANCH   1  15
ATOM     15  C   UNL     1      49.487   9.155  13.608  0.00  0.00    +0.000 C 
BRANCH  15  20
ATOM     16  C   UNL     1      49.762   5.519  17.180  0.00  0.00    +0.000 A 
ATOM     17  C   UNL     1      48.681   6.189  16.614  0.00  0.00    +0.000 A 
ATOM     18  C   UNL     1      48.917   7.142  15.626  0.00  0.00    +0.000 A 
ATOM     19  C   UNL     1      50.218   7.413  15.208  0.00  0.00    +0.000 A 
ATOM     20  N   UNL     1      50.511   8.358  14.254  0.00  0.00    +0.000 N 
ATOM     21  N   UNL     1      51.269   6.759  15.737  0.00  0.00    +0.000 NA
ATOM     22  C   UNL     1      51.026   5.837  16.709  0.00  0.00    +0.000 A 
ATOM     23  H   UNL     1      51.490   8.428  14.010  0.00  0.00    +0.000 HD
BRANCH  16  24
ATOM     24  C   UNL     1      49.614   4.515  18.254  0.00  0.00    +0.000 C 
ATOM     25  O   UNL     1      48.973   4.706  19.267  0.00  0.00    +0.000 OA
BRANCH  24  27
ATOM     26  C   UNL     1      49.507   2.445  17.164  0.00  0.00    +0.000 C 
ATOM     27  O   UNL     1      50.278   3.378  17.926  0.00  0.00    +0.000 OA
ENDBRANCH  24  27
ENDBRANCH  16  24
ENDBRANCH  15  20
ENDBRANCH   1  15
TORSDOF 8
ENDMDL
