MODEL 1
REMARK VINA RESULT:    -8.083      0.000      0.000
REMARK INTER + INTRA:         -11.164
REMARK INTER:                 -10.209
REMARK INTRA:                  -0.955
REMARK UNBOUND:                -0.955
REMARK  Name = 
REMARK  7 active torsions:
REMARK  status: ('A' for Active; 'I' for Inactive)
REMARK    1  A    between atoms: C_1  and  O_2
REMARK    2  A    between atoms: O_2  and  C_3
REMARK    3  A    between atoms: N_6  and  C_7
REMARK    4  A    between atoms: C_7  and  C_8
REMARK    5  A    between atoms: C_13  and  C_14
REMARK    6  A    between atoms: C_18  and  C_19
REMARK    7  A    between atoms: C_24  and  O_25
REMARK                            x       y       z     vdW  Elec       q    Type
REMARK                         _______ _______ _______ _____ _____    ______ ____
ROOT
ATOM      1  C   UNL     1      44.810   5.059  11.445  0.00  0.00    +0.000 A 
ATOM      2  C   UNL     1      44.990   4.205  12.539  0.00  0.00    +0.000 A 
ATOM      3  C   UNL     1      46.036   4.423  13.431  0.00  0.00    +0.000 A 
ATOM      4  C   UNL     1      46.898   5.503  13.245  0.00  0.00    +0.000 A 
ATOM      5  F   UNL     1      47.878   5.669  14.147  0.00  0.00    +0.000 F 
ATOM      6  C   UNL     1      46.757   6.398  12.170  0.00  0.00    +0.000 A 
ATOM      7  C   UNL     1      45.689   6.149  11.279  0.00  0.00    +0.000 A 
ENDROOT
BRANCH   6   8
ATOM      8  C   UNL     1      47.677   7.542  11.965  0.00  0.00    +0.000 A 
ATOM      9  C   UNL     1      47.281   8.871  12.150  0.00  0.00    +0.000 A 
ATOM     10  N   UNL     1      48.075   9.960  11.985  0.00  0.00    +0.000 NA
ATOM     11  C   UNL     1      49.351   9.730  11.615  0.00  0.00    +0.000 A 
ATOM     12  C   UNL     1      49.875   8.464  11.407  0.00  0.00    +0.000 A 
ATOM     13  C   UNL     1      51.306   8.261  11.019  0.00  0.00    +0.000 C 
ATOM     14  C   UNL     1      49.017   7.369  11.580  0.00  0.00    +0.000 A 
ENDBRANCH   6   8
BRANCH   1  15
ATOM     15  C   UNL     1      43.698   4.809  10.450  0.00  0.00    +0.000 C 
BRANCH  15  19
ATOM     16  C   UNL     1      46.722   2.684   7.577  0.00  0.00    +0.000 A 
ATOM     17  N   UNL     1      46.026   3.775   7.992  0.00  0.00    +0.000 NA
ATOM     18  C   UNL     1      44.935   3.577   8.755  0.00  0.00    +0.000 A 
ATOM     19  N   UNL     1      44.232   4.726   9.104  0.00  0.00    +0.000 N 
ATOM     20  C   UNL     1      44.517   2.297   9.114  0.00  0.00    +0.000 A 
ATOM     21  C   UNL     1      45.248   1.185   8.699  0.00  0.00    +0.000 A 
ATOM     22  C   UNL     1      46.374   1.378   7.915  0.00  0.00    +0.000 A 
ATOM     23  H   UNL     1      44.809   5.517   8.827  0.00  0.00    +0.000 HD
BRANCH  16  25
ATOM     24  C   UNL     1      47.558   2.829   5.394  0.00  0.00    +0.000 C 
ATOM     25  O   UNL     1      47.843   2.855   6.786  0.00  0.00    +0.000 OA
ENDBRANCH  16  25
BRANCH  22  26
ATOM     26  O   UNL     1      47.111   0.315   7.482  0.00  0.00    +0.000 OA
ATOM     27  H   UNL     1      46.892  -0.467   8.013  0.00  0.00    +0.000 HD
ENDBRANCH  22  26
ENDBRANCH  15  19
ENDBRANCH   1  15
TORSDOF 5
ENDMDL
MODEL 2
REMARK VINA RESULT:    -7.616      2.310      3.860
REMARK INTER + INTRA:         -10.574
REMARK INTER:                  -9.789
REMARK INTRA:                  -0.785
REMARK UNBOUND:                -0.955
REMARK  Name = 
REMARK  7 active torsions:
REMARK  status: ('A' for Active; 'I' for Inactive)
REMARK    1  A    between atoms: C_1  and  O_2
REMARK    2  A    between atoms: O_2  and  C_3
REMARK    3  A    between atoms: N_6  and  C_7
REMARK    4  A    between atoms: C_7  and  C_8
REMARK    5  A    between atoms: C_13  and  C_14
REMARK    6  A    between atoms: C_18  and  C_19
REMARK    7  A    between atoms: C_24  and  O_25
REMARK                            x       y       z     vdW  Elec       q    Type
REMARK                         _______ _______ _______ _____ _____    ______ ____
ROOT
ATOM      1  C   UNL     1      44.929   5.437  11.390  0.00  0.00    +0.000 A 
ATOM      2  C   UNL     1      45.472   6.680  11.043  0.00  0.00    +0.000 A 
ATOM      3  C   UNL     1      46.494   7.234  11.809  0.00  0.00    +0.000 A 
ATOM      4  C   UNL     1      46.988   6.545  12.915  0.00  0.00    +0.000 A 
ATOM      5  F   UNL     1      47.984   7.124  13.605  0.00  0.00    +0.000 F 
ATOM      6  C   UNL     1      46.488   5.289  13.302  0.00  0.00    +0.000 A 
ATOM      7  C   UNL     1      45.449   4.754  12.508  0.00  0.00    +0.000 A 
ENDROOT
BRANCH   6   8
ATOM      8  C   UNL     1      47.007   4.558  14.482  0.00  0.00    +0.000 A 
ATOM      9  C   UNL     1      47.467   3.239  14.410  0.00  0.00    +0.000 A 
ATOM     10  N   UNL     1      47.959   2.518  15.450  0.00  0.00    +0.000 NA
ATOM     11  C   UNL     1      48.007   3.136  16.647  0.00  0.00    +0.000 A 
ATOM     12  C   UNL     1      47.592   4.441  16.857  0.00  0.00    +0.000 A 
ATOM     13  C   UNL     1      47.687   5.089  18.202  0.00  0.00    +0.000 C 
ATOM     14  C   UNL     1      47.083   5.145  15.757  0.00  0.00    +0.000 A 
ENDBRANCH   6   8
BRANCH   1  15
ATOM     15  C   UNL     1      43.794   4.844  10.584  0.00  0.00    +0.000 C 
BRANCH  15  19
ATOM     16  C   UNL     1      46.599   2.834   7.421  0.00  0.00    +0.000 A 
ATOM     17  N   UNL     1      45.875   3.887   7.886  0.00  0.00    +0.000 NA
ATOM     18  C   UNL     1      44.905   3.640   8.787  0.00  0.00    +0.000 A 
ATOM     19  N   UNL     1      44.163   4.746   9.185  0.00  0.00    +0.000 N 
ATOM     20  C   UNL     1      44.638   2.348   9.235  0.00  0.00    +0.000 A 
ATOM     21  C   UNL     1      45.397   1.277   8.766  0.00  0.00    +0.000 A 
ATOM     22  C   UNL     1      46.399   1.521   7.840  0.00  0.00    +0.000 A 
ATOM     23  H   UNL     1      44.636   5.566   8.812  0.00  0.00    +0.000 HD
BRANCH  16  25
ATOM     24  C   UNL     1      47.147   2.941   5.146  0.00  0.00    +0.000 C 
ATOM     25  O   UNL     1      47.596   3.056   6.490  0.00  0.00    +0.000 OA
ENDBRANCH  16  25
BRANCH  22  26
ATOM     26  O   UNL     1      47.159   0.499   7.352  0.00  0.00    +0.000 OA
ATOM     27  H   UNL     1      47.255  -0.185   8.033  0.00  0.00    +0.000 HD
ENDBRANCH  22  26
ENDBRANCH  15  19
ENDBRANCH   1  15
TORSDOF 5
ENDMDL
MODEL 3
REMARK VINA RESULT:    -7.608      3.418      7.121
REMARK INTER + INTRA:         -10.564
REMARK INTER:                  -9.957
REMARK INTRA:                  -0.608
REMARK UNBOUND:                -0.955
REMARK  Name = 
REMARK  7 active torsions:
REMARK  status: ('A' for Active; 'I' for Inactive)
REMARK    1  A    between atoms: C_1  and  O_2
REMARK    2  A    between atoms: O_2  and  C_3
REMARK    3  A    between atoms: N_6  and  C_7
REMARK    4  A    between atoms: C_7  and  C_8
REMARK    5  A    between atoms: C_13  and  C_14
REMARK    6  A    between atoms: C_18  and  C_19
REMARK    7  A    between atoms: C_24  and  O_25
REMARK                            x       y       z     vdW  Elec       q    Type
REMARK                         _______ _______ _______ _____ _____    ______ ____
ROOT
ATOM      1  C   UNL     1      44.579   6.090  11.419  0.00  0.00    +0.000 A 
ATOM      2  C   UNL     1      43.663   5.368  12.193  0.00  0.00    +0.000 A 
ATOM      3  C   UNL     1      43.362   4.048  11.867  0.00  0.00    +0.000 A 
ATOM      4  C   UNL     1      43.984   3.438  10.779  0.00  0.00    +0.000 A 
ATOM      5  F   UNL     1      43.663   2.160  10.526  0.00  0.00    +0.000 F 
ATOM      6  C   UNL     1      44.920   4.113   9.976  0.00  0.00    +0.000 A 
ATOM      7  C   UNL     1      45.202   5.452  10.327  0.00  0.00    +0.000 A 
ENDROOT
BRANCH   6   8
ATOM      8  C   UNL     1      45.577   3.470   8.812  0.00  0.00    +0.000 A 
ATOM      9  C   UNL     1      46.003   4.191   7.693  0.00  0.00    +0.000 A 
ATOM     10  N   UNL     1      46.615   3.664   6.602  0.00  0.00    +0.000 NA
ATOM     11  C   UNL     1      46.828   2.332   6.610  0.00  0.00    +0.000 A 
ATOM     12  C   UNL     1      46.464   1.502   7.658  0.00  0.00    +0.000 A 
ATOM     13  C   UNL     1      46.743   0.032   7.628  0.00  0.00    +0.000 C 
ATOM     14  C   UNL     1      45.827   2.088   8.760  0.00  0.00    +0.000 A 
ENDBRANCH   6   8
BRANCH   1  15
ATOM     15  C   UNL     1      44.886   7.536  11.743  0.00  0.00    +0.000 C 
BRANCH  15  19
ATOM     16  C   UNL     1      48.879   7.024  14.132  0.00  0.00    +0.000 A 
ATOM     17  N   UNL     1      47.523   6.980  14.038  0.00  0.00    +0.000 NA
ATOM     18  C   UNL     1      46.935   7.676  13.046  0.00  0.00    +0.000 A 
ATOM     19  N   UNL     1      45.545   7.638  13.031  0.00  0.00    +0.000 N 
ATOM     20  C   UNL     1      47.681   8.426  12.139  0.00  0.00    +0.000 A 
ATOM     21  C   UNL     1      49.072   8.451  12.234  0.00  0.00    +0.000 A 
ATOM     22  C   UNL     1      49.687   7.737  13.249  0.00  0.00    +0.000 A 
ATOM     23  H   UNL     1      45.264   6.932  13.709  0.00  0.00    +0.000 HD
BRANCH  16  25
ATOM     24  C   UNL     1      48.635   5.946  16.197  0.00  0.00    +0.000 C 
ATOM     25  O   UNL     1      49.511   6.326  15.144  0.00  0.00    +0.000 OA
ENDBRANCH  16  25
BRANCH  22  26
ATOM     26  O   UNL     1      51.045   7.742  13.380  0.00  0.00    +0.000 OA
ATOM     27  H   UNL     1      51.410   8.515  12.922  0.00  0.00    +0.000 HD
ENDBRANCH  22  26
ENDBRANCH  15  19
ENDBRANCH   1  15
TORSDOF 5
ENDMDL
MODEL 4
REMARK VINA RESULT:    -6.953      3.210      4.859
REMARK INTER + INTRA:          -9.737
REMARK INTER:                  -8.963
REMARK INTRA:                  -0.773
REMARK UNBOUND:                -0.955
REMARK  Name = 
REMARK  7 active torsions:
REMARK  status: ('A' for Active; 'I' for Inactive)
REMARK    1  A    between atoms: C_1  and  O_2
REMARK    2  A    between atoms: O_2  and  C_3
REMARK    3  A    between atoms: N_6  and  C_7
REMARK    4  A    between atoms: C_7  and  C_8
REMARK    5  A    between atoms: C_13  and  C_14
REMARK    6  A    between atoms: C_18  and  C_19
REMARK    7  A    between atoms: C_24  and  O_25
REMARK                            x       y       z     vdW  Elec       q    Type
REMARK                         _______ _______ _______ _____ _____    ______ ____
ROOT
ATOM      1  C   UNL     1      46.492   7.579  12.355  0.00  0.00    +0.000 A 
ATOM      2  C   UNL     1      47.644   8.241  11.914  0.00  0.00    +0.000 A 
ATOM      3  C   UNL     1      48.862   8.027  12.555  0.00  0.00    +0.000 A 
ATOM      4  C   UNL     1      48.939   7.139  13.627  0.00  0.00    +0.000 A 
ATOM      5  F   UNL     1      50.143   6.963  14.193  0.00  0.00    +0.000 F 
ATOM      6  C   UNL     1      47.816   6.440  14.104  0.00  0.00    +0.000 A 
ATOM      7  C   UNL     1      46.594   6.682  13.437  0.00  0.00    +0.000 A 
ENDROOT
BRANCH   6   8
ATOM      8  C   UNL     1      47.894   5.502  15.250  0.00  0.00    +0.000 A 
ATOM      9  C   UNL     1      47.250   4.260  15.252  0.00  0.00    +0.000 A 
ATOM     10  N   UNL     1      47.288   3.356  16.264  0.00  0.00    +0.000 NA
ATOM     11  C   UNL     1      48.010   3.691  17.351  0.00  0.00    +0.000 A 
ATOM     12  C   UNL     1      48.704   4.885  17.476  0.00  0.00    +0.000 A 
ATOM     13  C   UNL     1      49.511   5.200  18.695  0.00  0.00    +0.000 C 
ATOM     14  C   UNL     1      48.630   5.792  16.410  0.00  0.00    +0.000 A 
ENDBRANCH   6   8
BRANCH   1  15
ATOM     15  C   UNL     1      45.158   7.834  11.689  0.00  0.00    +0.000 C 
BRANCH  15  19
ATOM     16  C   UNL     1      44.538   3.358  10.468  0.00  0.00    +0.000 A 
ATOM     17  N   UNL     1      45.008   4.612  10.232  0.00  0.00    +0.000 NA
ATOM     18  C   UNL     1      44.465   5.631  10.925  0.00  0.00    +0.000 A 
ATOM     19  N   UNL     1      44.946   6.896  10.603  0.00  0.00    +0.000 N 
ATOM     20  C   UNL     1      43.450   5.423  11.856  0.00  0.00    +0.000 A 
ATOM     21  C   UNL     1      42.988   4.131  12.103  0.00  0.00    +0.000 A 
ATOM     22  C   UNL     1      43.541   3.075  11.397  0.00  0.00    +0.000 A 
ATOM     23  H   UNL     1      45.753   6.757   9.999  0.00  0.00    +0.000 HD
BRANCH  16  25
ATOM     24  C   UNL     1      45.540   2.649   8.473  0.00  0.00    +0.000 C 
ATOM     25  O   UNL     1      45.070   2.292   9.766  0.00  0.00    +0.000 OA
ENDBRANCH  16  25
BRANCH  22  26
ATOM     26  O   UNL     1      43.110   1.797  11.605  0.00  0.00    +0.000 OA
ATOM     27  H   UNL     1      43.701   1.356  12.235  0.00  0.00    +0.000 HD
ENDBRANCH  22  26
ENDBRANCH  15  19
ENDBRANCH   1  15
TORSDOF 5
ENDMDL
MODEL 5
REMARK VINA RESULT:    -6.739      4.799      8.035
REMARK INTER + INTRA:          -9.466
REMARK INTER:                  -8.816
REMARK INTRA:                  -0.650
REMARK UNBOUND:                -0.955
REMARK  Name = 
REMARK  7 active torsions:
REMARK  status: ('A' for Active; 'I' for Inactive)
REMARK    1  A    between atoms: C_1  and  O_2
REMARK    2  A    between atoms: O_2  and  C_3
REMARK    3  A    between atoms: N_6  and  C_7
REMARK    4  A    between atoms: C_7  and  C_8
REMARK    5  A    between atoms: C_13  and  C_14
REMARK    6  A    between atoms: C_18  and  C_19
REMARK    7  A    between atoms: C_24  and  O_25
REMARK                            x       y       z     vdW  Elec       q    Type
REMARK                         _______ _______ _______ _____ _____    ______ ____
ROOT
ATOM      1  C   UNL     1      47.209   7.466  13.139  0.00  0.00    +0.000 A 
ATOM      2  C   UNL     1      46.408   8.613  13.181  0.00  0.00    +0.000 A 
ATOM      3  C   UNL     1      45.217   8.659  12.462  0.00  0.00    +0.000 A 
ATOM      4  C   UNL     1      44.812   7.556  11.712  0.00  0.00    +0.000 A 
ATOM      5  F   UNL     1      43.646   7.656  11.053  0.00  0.00    +0.000 F 
ATOM      6  C   UNL     1      45.572   6.375  11.644  0.00  0.00    +0.000 A 
ATOM      7  C   UNL     1      46.778   6.360  12.380  0.00  0.00    +0.000 A 
ENDROOT
BRANCH   6   8
ATOM      8  C   UNL     1      45.148   5.204  10.840  0.00  0.00    +0.000 A 
ATOM      9  C   UNL     1      44.205   4.278  11.297  0.00  0.00    +0.000 A 
ATOM     10  N   UNL     1      43.770   3.191  10.608  0.00  0.00    +0.000 NA
ATOM     11  C   UNL     1      44.296   3.000   9.382  0.00  0.00    +0.000 A 
ATOM     12  C   UNL     1      45.233   3.844   8.806  0.00  0.00    +0.000 A 
ATOM     13  C   UNL     1      45.769   3.599   7.431  0.00  0.00    +0.000 C 
ATOM     14  C   UNL     1      45.658   4.949   9.556  0.00  0.00    +0.000 A 
ENDBRANCH   6   8
BRANCH   1  15
ATOM     15  C   UNL     1      48.524   7.421  13.888  0.00  0.00    +0.000 C 
BRANCH  15  19
ATOM     16  C   UNL     1      50.272   4.760  17.319  0.00  0.00    +0.000 A 
ATOM     17  N   UNL     1      49.232   5.266  16.605  0.00  0.00    +0.000 NA
ATOM     18  C   UNL     1      49.442   6.387  15.889  0.00  0.00    +0.000 A 
ATOM     19  N   UNL     1      48.329   6.888  15.222  0.00  0.00    +0.000 N 
ATOM     20  C   UNL     1      50.681   7.023  15.875  0.00  0.00    +0.000 A 
ATOM     21  C   UNL     1      51.747   6.486  16.597  0.00  0.00    +0.000 A 
ATOM     22  C   UNL     1      51.542   5.332  17.335  0.00  0.00    +0.000 A 
ATOM     23  H   UNL     1      47.601   6.180  15.295  0.00  0.00    +0.000 HD
BRANCH  16  25
ATOM     24  C   UNL     1      49.612   2.513  17.307  0.00  0.00    +0.000 C 
ATOM     25  O   UNL     1      50.085   3.615  18.070  0.00  0.00    +0.000 OA
ENDBRANCH  16  25
BRANCH  22  26
ATOM     26  O   UNL     1      52.557   4.781  18.061  0.00  0.00    +0.000 OA
ATOM     27  H   UNL     1      53.206   5.468  18.280  0.00  0.00    +0.000 HD
ENDBRANCH  22  26
ENDBRANCH  15  19
ENDBRANCH   1  15
TORSDOF 5
ENDMDL
MODEL 6
REMARK VINA RESULT:    -6.578      5.323      8.698
REMARK INTER + INTRA:          -9.263
REMARK INTER:                  -8.390
REMARK INTRA:                  -0.873
REMARK UNBOUND:                -0.955
REMARK  Name = 
REMARK  7 active torsions:
REMARK  status: ('A' for Active; 'I' for Inactive)
REMARK    1  A    between atoms: C_1  and  O_2
REMARK    2  A    between atoms: O_2  and  C_3
REMARK    3  A    between atoms: N_6  and  C_7
REMARK    4  A    between atoms: C_7  and  C_8
REMARK    5  A    between atoms: C_13  and  C_14
REMARK    6  A    between atoms: C_18  and  C_19
REMARK    7  A    between atoms: C_24  and  O_25
REMARK                            x       y       z     vdW  Elec       q    Type
REMARK                         _______ _______ _______ _____ _____    ______ ____
ROOT
ATOM      1  C   UNL     1      47.975   7.197  13.957  0.00  0.00    +0.000 A 
ATOM      2  C   UNL     1      47.553   8.498  13.659  0.00  0.00    +0.000 A 
ATOM      3  C   UNL     1      46.382   8.704  12.935  0.00  0.00    +0.000 A 
ATOM      4  C   UNL     1      45.618   7.614  12.519  0.00  0.00    +0.000 A 
ATOM      5  F   UNL     1      44.492   7.879  11.839  0.00  0.00    +0.000 F 
ATOM      6  C   UNL     1      45.989   6.288  12.801  0.00  0.00    +0.000 A 
ATOM      7  C   UNL     1      47.184   6.110  13.532  0.00  0.00    +0.000 A 
ENDROOT
BRANCH   6   8
ATOM      8  C   UNL     1      45.182   5.127  12.352  0.00  0.00    +0.000 A 
ATOM      9  C   UNL     1      44.311   4.440  13.204  0.00  0.00    +0.000 A 
ATOM     10  N   UNL     1      43.542   3.377  12.854  0.00  0.00    +0.000 NA
ATOM     11  C   UNL     1      43.632   2.959  11.575  0.00  0.00    +0.000 A 
ATOM     12  C   UNL     1      44.448   3.554  10.626  0.00  0.00    +0.000 A 
ATOM     13  C   UNL     1      44.494   3.065   9.213  0.00  0.00    +0.000 C 
ATOM     14  C   UNL     1      45.230   4.643  11.034  0.00  0.00    +0.000 A 
ENDBRANCH   6   8
BRANCH   1  15
ATOM     15  C   UNL     1      49.265   6.962  14.711  0.00  0.00    +0.000 C 
BRANCH  15  19
ATOM     16  C   UNL     1      47.972   5.688  19.026  0.00  0.00    +0.000 A 
ATOM     17  N   UNL     1      48.106   6.611  18.037  0.00  0.00    +0.000 NA
ATOM     18  C   UNL     1      48.988   6.359  17.051  0.00  0.00    +0.000 A 
ATOM     19  N   UNL     1      49.122   7.363  16.098  0.00  0.00    +0.000 N 
ATOM     20  C   UNL     1      49.751   5.193  17.034  0.00  0.00    +0.000 A 
ATOM     21  C   UNL     1      49.593   4.244  18.044  0.00  0.00    +0.000 A 
ATOM     22  C   UNL     1      48.686   4.493  19.061  0.00  0.00    +0.000 A 
ATOM     23  H   UNL     1      48.376   8.033  16.271  0.00  0.00    +0.000 HD
BRANCH  16  25
ATOM     24  C   UNL     1      47.513   6.931  20.957  0.00  0.00    +0.000 C 
ATOM     25  O   UNL     1      47.080   5.922  20.055  0.00  0.00    +0.000 OA
ENDBRANCH  16  25
BRANCH  22  26
ATOM     26  O   UNL     1      48.509   3.592  20.071  0.00  0.00    +0.000 OA
ATOM     27  H   UNL     1      49.011   3.878  20.850  0.00  0.00    +0.000 HD
ENDBRANCH  22  26
ENDBRANCH  15  19
ENDBRANCH   1  15
TORSDOF 5
ENDMDL
MODEL 7
REMARK VINA RESULT:    -6.293      3.833      7.162
REMARK INTER + INTRA:          -8.903
REMARK INTER:                  -8.788
REMARK INTRA:                  -0.115
REMARK UNBOUND:                -0.955
REMARK  Name = 
REMARK  7 active torsions:
REMARK  status: ('A' for Active; 'I' for Inactive)
REMARK    1  A    between atoms: C_1  and  O_2
REMARK    2  A    between atoms: O_2  and  C_3
REMARK    3  A    between atoms: N_6  and  C_7
REMARK    4  A    between atoms: C_7  and  C_8
REMARK    5  A    between atoms: C_13  and  C_14
REMARK    6  A    between atoms: C_18  and  C_19
REMARK    7  A    between atoms: C_24  and  O_25
REMARK                            x       y       z     vdW  Elec       q    Type
REMARK                         _______ _______ _______ _____ _____    ______ ____
ROOT
ATOM      1  C   UNL     1      44.637   5.754  11.291  0.00  0.00    +0.000 A 
ATOM      2  C   UNL     1      43.581   5.178  12.006  0.00  0.00    +0.000 A 
ATOM      3  C   UNL     1      43.150   3.890  11.700  0.00  0.00    +0.000 A 
ATOM      4  C   UNL     1      43.781   3.165  10.689  0.00  0.00    +0.000 A 
ATOM      5  F   UNL     1      43.330   1.924  10.451  0.00  0.00    +0.000 F 
ATOM      6  C   UNL     1      44.853   3.691   9.947  0.00  0.00    +0.000 A 
ATOM      7  C   UNL     1      45.265   5.001  10.278  0.00  0.00    +0.000 A 
ENDROOT
BRANCH   6   8
ATOM      8  C   UNL     1      45.520   2.926   8.866  0.00  0.00    +0.000 A 
ATOM      9  C   UNL     1      45.768   1.553   8.958  0.00  0.00    +0.000 A 
ATOM     10  N   UNL     1      46.367   0.795   8.003  0.00  0.00    +0.000 NA
ATOM     11  C   UNL     1      46.748   1.429   6.876  0.00  0.00    +0.000 A 
ATOM     12  C   UNL     1      46.555   2.784   6.653  0.00  0.00    +0.000 A 
ATOM     13  C   UNL     1      46.976   3.435   5.373  0.00  0.00    +0.000 C 
ATOM     14  C   UNL     1      45.940   3.528   7.668  0.00  0.00    +0.000 A 
ENDBRANCH   6   8
BRANCH   1  15
ATOM     15  C   UNL     1      45.088   7.166  11.592  0.00  0.00    +0.000 C 
BRANCH  15  19
ATOM     16  C   UNL     1      48.697   6.960  14.566  0.00  0.00    +0.000 A 
ATOM     17  N   UNL     1      48.095   7.427  13.440  0.00  0.00    +0.000 NA
ATOM     18  C   UNL     1      47.069   6.720  12.931  0.00  0.00    +0.000 A 
ATOM     19  N   UNL     1      46.529   7.216  11.749  0.00  0.00    +0.000 N 
ATOM     20  C   UNL     1      46.627   5.541  13.528  0.00  0.00    +0.000 A 
ATOM     21  C   UNL     1      47.239   5.080  14.693  0.00  0.00    +0.000 A 
ATOM     22  C   UNL     1      48.295   5.801  15.226  0.00  0.00    +0.000 A 
ATOM     23  H   UNL     1      46.941   8.134  11.602  0.00  0.00    +0.000 HD
BRANCH  16  25
ATOM     24  C   UNL     1      49.355   8.752  15.923  0.00  0.00    +0.000 C 
ATOM     25  O   UNL     1      49.758   7.660  15.108  0.00  0.00    +0.000 OA
ENDBRANCH  16  25
BRANCH  22  26
ATOM     26  O   UNL     1      48.924   5.379  16.360  0.00  0.00    +0.000 OA
ATOM     27  H   UNL     1      48.531   4.542  16.655  0.00  0.00    +0.000 HD
ENDBRANCH  22  26
ENDBRANCH  15  19
ENDBRANCH   1  15
TORSDOF 5
ENDMDL
MODEL 8
REMARK VINA RESULT:    -6.270      5.224      6.569
REMARK INTER + INTRA:          -8.875
REMARK INTER:                  -8.213
REMARK INTRA:                  -0.662
REMARK UNBOUND:                -0.955
REMARK  Name = 
REMARK  7 active torsions:
REMARK  status: ('A' for Active; 'I' for Inactive)
REMARK    1  A    between atoms: C_1  and  O_2
REMARK    2  A    between atoms: O_2  and  C_3
REMARK    3  A    between atoms: N_6  and  C_7
REMARK    4  A    between atoms: C_7  and  C_8
REMARK    5  A    between atoms: C_13  and  C_14
REMARK    6  A    between atoms: C_18  and  C_19
REMARK    7  A    between atoms: C_24  and  O_25
REMARK                            x       y       z     vdW  Elec       q    Type
REMARK                         _______ _______ _______ _____ _____    ______ ____
ROOT
ATOM      1  C   UNL     1      47.698   4.031  16.190  0.00  0.00    +0.000 A 
ATOM      2  C   UNL     1      47.907   2.876  16.951  0.00  0.00    +0.000 A 
ATOM      3  C   UNL     1      48.369   2.976  18.260  0.00  0.00    +0.000 A 
ATOM      4  C   UNL     1      48.610   4.229  18.821  0.00  0.00    +0.000 A 
ATOM      5  F   UNL     1      49.040   4.260  20.092  0.00  0.00    +0.000 F 
ATOM      6  C   UNL     1      48.406   5.422  18.106  0.00  0.00    +0.000 A 
ATOM      7  C   UNL     1      47.942   5.289  16.778  0.00  0.00    +0.000 A 
ENDROOT
BRANCH   6   8
ATOM      8  C   UNL     1      48.670   6.756  18.697  0.00  0.00    +0.000 A 
ATOM      9  C   UNL     1      49.960   7.272  18.848  0.00  0.00    +0.000 A 
ATOM     10  N   UNL     1      50.267   8.486  19.374  0.00  0.00    +0.000 NA
ATOM     11  C   UNL     1      49.233   9.250  19.779  0.00  0.00    +0.000 A 
ATOM     12  C   UNL     1      47.905   8.864  19.679  0.00  0.00    +0.000 A 
ATOM     13  C   UNL     1      46.793   9.760  20.123  0.00  0.00    +0.000 C 
ATOM     14  C   UNL     1      47.636   7.600  19.137  0.00  0.00    +0.000 A 
ENDBRANCH   6   8
BRANCH   1  15
ATOM     15  C   UNL     1      47.231   3.931  14.754  0.00  0.00    +0.000 C 
BRANCH  15  19
ATOM     16  C   UNL     1      44.290   5.924  11.706  0.00  0.00    +0.000 A 
ATOM     17  N   UNL     1      44.897   5.860  12.920  0.00  0.00    +0.000 NA
ATOM     18  C   UNL     1      45.433   4.684  13.299  0.00  0.00    +0.000 A 
ATOM     19  N   UNL     1      45.992   4.664  14.572  0.00  0.00    +0.000 N 
ATOM     20  C   UNL     1      45.371   3.557  12.482  0.00  0.00    +0.000 A 
ATOM     21  C   UNL     1      44.761   3.637  11.230  0.00  0.00    +0.000 A 
ATOM     22  C   UNL     1      44.209   4.844  10.831  0.00  0.00    +0.000 A 
ATOM     23  H   UNL     1      46.018   5.628  14.896  0.00  0.00    +0.000 HD
BRANCH  16  25
ATOM     24  C   UNL     1      44.596   8.229  11.427  0.00  0.00    +0.000 C 
ATOM     25  O   UNL     1      43.724   7.115  11.293  0.00  0.00    +0.000 OA
ENDBRANCH  16  25
BRANCH  22  26
ATOM     26  O   UNL     1      43.597   4.960   9.617  0.00  0.00    +0.000 OA
ATOM     27  H   UNL     1      43.816   5.821   9.227  0.00  0.00    +0.000 HD
ENDBRANCH  22  26
ENDBRANCH  15  19
ENDBRANCH   1  15
TORSDOF 5
ENDMDL
MODEL 9
REMARK VINA RESULT:    -6.205      4.802      8.138
REMARK INTER + INTRA:          -8.792
REMARK INTER:                  -7.877
REMARK INTRA:                  -0.915
REMARK UNBOUND:                -0.955
REMARK  Name = 
REMARK  7 active torsions:
REMARK  status: ('A' for Active; 'I' for Inactive)
REMARK    1  A    between atoms: C_1  and  O_2
REMARK    2  A    between atoms: O_2  and  C_3
REMARK    3  A    between atoms: N_6  and  C_7
REMARK    4  A    between atoms: C_7  and  C_8
REMARK    5  A    between atoms: C_13  and  C_14
REMARK    6  A    between atoms: C_18  and  C_19
REMARK    7  A    between atoms: C_24  and  O_25
REMARK                            x       y       z     vdW  Elec       q    Type
REMARK                         _______ _______ _______ _____ _____    ______ ____
ROOT
ATOM      1  C   UNL     1      48.692   7.802  14.143  0.00  0.00    +0.000 A 
ATOM      2  C   UNL     1      49.293   8.264  12.967  0.00  0.00    +0.000 A 
ATOM      3  C   UNL     1      48.811   7.851  11.727  0.00  0.00    +0.000 A 
ATOM      4  C   UNL     1      47.720   6.987  11.656  0.00  0.00    +0.000 A 
ATOM      5  F   UNL     1      47.292   6.637  10.433  0.00  0.00    +0.000 F 
ATOM      6  C   UNL     1      47.072   6.501  12.806  0.00  0.00    +0.000 A 
ATOM      7  C   UNL     1      47.585   6.934  14.048  0.00  0.00    +0.000 A 
ENDROOT
BRANCH   6   8
ATOM      8  C   UNL     1      45.915   5.576  12.733  0.00  0.00    +0.000 A 
ATOM      9  C   UNL     1      46.003   4.229  13.100  0.00  0.00    +0.000 A 
ATOM     10  N   UNL     1      44.982   3.335  13.063  0.00  0.00    +0.000 NA
ATOM     11  C   UNL     1      43.788   3.794  12.638  0.00  0.00    +0.000 A 
ATOM     12  C   UNL     1      43.561   5.106  12.253  0.00  0.00    +0.000 A 
ATOM     13  C   UNL     1      42.210   5.571  11.810  0.00  0.00    +0.000 C 
ATOM     14  C   UNL     1      44.645   5.993  12.299  0.00  0.00    +0.000 A 
ENDBRANCH   6   8
BRANCH   1  15
ATOM     15  C   UNL     1      49.231   8.217  15.495  0.00  0.00    +0.000 C 
BRANCH  15  19
ATOM     16  C   UNL     1      49.378   4.006  17.534  0.00  0.00    +0.000 A 
ATOM     17  N   UNL     1      48.714   5.124  17.137  0.00  0.00    +0.000 NA
ATOM     18  C   UNL     1      49.436   6.233  16.888  0.00  0.00    +0.000 A 
ATOM     19  N   UNL     1      48.700   7.360  16.537  0.00  0.00    +0.000 N 
ATOM     20  C   UNL     1      50.822   6.251  17.032  0.00  0.00    +0.000 A 
ATOM     21  C   UNL     1      51.495   5.094  17.424  0.00  0.00    +0.000 A 
ATOM     22  C   UNL     1      50.761   3.947  17.681  0.00  0.00    +0.000 A 
ATOM     23  H   UNL     1      47.743   7.049  16.384  0.00  0.00    +0.000 HD
BRANCH  16  25
ATOM     24  C   UNL     1      47.287   2.952  17.462  0.00  0.00    +0.000 C 
ATOM     25  O   UNL     1      48.663   2.855  17.805  0.00  0.00    +0.000 OA
ENDBRANCH  16  25
BRANCH  22  26
ATOM     26  O   UNL     1      51.382   2.797  18.073  0.00  0.00    +0.000 OA
ATOM     27  H   UNL     1      50.781   2.046  17.946  0.00  0.00    +0.000 HD
ENDBRANCH  22  26
ENDBRANCH  15  19
ENDBRANCH   1  15
TORSDOF 5
ENDMDL
