MODEL 1
REMARK VINA RESULT:    -8.959      0.000      0.000
REMARK INTER + INTRA:         -12.209
REMARK INTER:                 -11.054
REMARK INTRA:                  -1.154
REMARK UNBOUND:                -1.154
REMARK  Name = 
REMARK  4 active torsions:
REMARK  status: ('A' for Active; 'I' for Inactive)
REMARK    1  A    between atoms: C_2  and  C_4
REMARK    2  A    between atoms: N_8  and  C_9
REMARK    3  A    between atoms: C_9  and  C_10
REMARK    4  A    between atoms: C_15  and  C_16
REMARK                            x       y       z     vdW  Elec       q    Type
REMARK                         _______ _______ _______ _____ _____    ______ ____
ROOT
ATOM      1  C   UNL     1      43.783   4.942  11.365  0.00  0.00    +0.000 C 
ATOM      2  C   UNL     1      42.428   5.150  12.030  0.00  0.00    +0.000 C 
ATOM      3  C   UNL     1      42.916   6.142  11.031  0.00  0.00    +0.000 C 
ENDROOT
BRANCH   1   8
ATOM      4  C   UNL     1      46.529   2.745   7.521  0.00  0.00    +0.000 A 
ATOM      5  C   UNL     1      46.120   4.070   7.647  0.00  0.00    +0.000 A 
ATOM      6  C   UNL     1      45.243   4.423   8.671  0.00  0.00    +0.000 A 
ATOM      7  C   UNL     1      44.795   3.453   9.557  0.00  0.00    +0.000 A 
ATOM      8  N   UNL     1      43.857   3.709  10.562  0.00  0.00    +0.000 N 
ATOM      9  N   UNL     1      45.171   2.161   9.437  0.00  0.00    +0.000 NA
ATOM     10  C   UNL     1      46.016   1.828   8.424  0.00  0.00    +0.000 A 
ATOM     11  H   UNL     1      43.779   2.837  11.084  0.00  0.00    +0.000 HD
BRANCH   4  13
ATOM     12  N   UNL     1      47.345   2.944   5.249  0.00  0.00    +0.000 N 
ATOM     13  C   UNL     1      47.439   2.294   6.449  0.00  0.00    +0.000 C 
ATOM     14  O   UNL     1      48.253   1.401   6.632  0.00  0.00    +0.000 OA
ATOM     15  H   UNL     1      48.013   2.687   4.533  0.00  0.00    +0.000 HD
ATOM     16  H   UNL     1      46.864   3.826   5.141  0.00  0.00    +0.000 HD
ENDBRANCH   4  13
ENDBRANCH   1   8
BRANCH   1  17
ATOM     17  C   UNL     1      45.053   5.211  12.167  0.00  0.00    +0.000 A 
ATOM     18  C   UNL     1      45.515   4.316  13.144  0.00  0.00    +0.000 A 
ATOM     19  C   UNL     1      46.724   4.533  13.801  0.00  0.00    +0.000 A 
ATOM     20  C   UNL     1      47.488   5.657  13.495  0.00  0.00    +0.000 A 
ATOM     21  F   UNL     1      48.648   5.804  14.153  0.00  0.00    +0.000 F 
ATOM     22  C   UNL     1      47.075   6.599  12.542  0.00  0.00    +0.000 A 
ATOM     23  C   UNL     1      45.845   6.347  11.898  0.00  0.00    +0.000 A 
BRANCH  22  24
ATOM     24  C   UNL     1      47.885   7.788  12.195  0.00  0.00    +0.000 A 
ATOM     25  C   UNL     1      49.217   7.691  11.772  0.00  0.00    +0.000 A 
ATOM     26  C   UNL     1      49.951   8.831  11.444  0.00  0.00    +0.000 A 
ATOM     27  C   UNL     1      49.328  10.059  11.530  0.00  0.00    +0.000 A 
ATOM     28  N   UNL     1      48.047  10.218  11.919  0.00  0.00    +0.000 NA
ATOM     29  C   UNL     1      47.371   9.087  12.246  0.00  0.00    +0.000 A 
ENDBRANCH  22  24
ENDBRANCH   1  17
TORSDOF 4
ENDMDL
MODEL 2
REMARK VINA RESULT:    -8.891      2.089      3.626
REMARK INTER + INTRA:         -12.125
REMARK INTER:                 -11.189
REMARK INTRA:                  -0.936
REMARK UNBOUND:                -1.154
REMARK  Name = 
REMARK  4 active torsions:
REMARK  status: ('A' for Active; 'I' for Inactive)
REMARK    1  A    between atoms: C_2  and  C_4
REMARK    2  A    between atoms: N_8  and  C_9
REMARK    3  A    between atoms: C_9  and  C_10
REMARK    4  A    between atoms: C_15  and  C_16
REMARK                            x       y       z     vdW  Elec       q    Type
REMARK                         _______ _______ _______ _____ _____    ______ ____
ROOT
ATOM      1  C   UNL     1      43.928   4.867  11.477  0.00  0.00    +0.000 C 
ATOM      2  C   UNL     1      42.658   4.980  12.310  0.00  0.00    +0.000 C 
ATOM      3  C   UNL     1      42.941   5.998  11.260  0.00  0.00    +0.000 C 
ENDROOT
BRANCH   1   8
ATOM      4  C   UNL     1      46.523   2.738   7.492  0.00  0.00    +0.000 A 
ATOM      5  C   UNL     1      46.093   4.054   7.643  0.00  0.00    +0.000 A 
ATOM      6  C   UNL     1      45.262   4.385   8.710  0.00  0.00    +0.000 A 
ATOM      7  C   UNL     1      44.880   3.404   9.614  0.00  0.00    +0.000 A 
ATOM      8  N   UNL     1      43.988   3.638  10.667  0.00  0.00    +0.000 N 
ATOM      9  N   UNL     1      45.277   2.120   9.472  0.00  0.00    +0.000 NA
ATOM     10  C   UNL     1      46.077   1.808   8.417  0.00  0.00    +0.000 A 
ATOM     11  H   UNL     1      43.954   2.763  11.188  0.00  0.00    +0.000 HD
BRANCH   4  13
ATOM     12  N   UNL     1      47.280   3.014   5.207  0.00  0.00    +0.000 N 
ATOM     13  C   UNL     1      47.388   2.309   6.375  0.00  0.00    +0.000 C 
ATOM     14  O   UNL     1      48.179   1.385   6.493  0.00  0.00    +0.000 OA
ATOM     15  H   UNL     1      47.919   2.770   4.461  0.00  0.00    +0.000 HD
ATOM     16  H   UNL     1      46.824   3.914   5.153  0.00  0.00    +0.000 HD
ENDBRANCH   4  13
ENDBRANCH   1   8
BRANCH   1  17
ATOM     17  C   UNL     1      45.268   5.232  12.109  0.00  0.00    +0.000 A 
ATOM     18  C   UNL     1      46.089   6.235  11.575  0.00  0.00    +0.000 A 
ATOM     19  C   UNL     1      47.264   6.617  12.217  0.00  0.00    +0.000 A 
ATOM     20  C   UNL     1      47.641   5.994  13.404  0.00  0.00    +0.000 A 
ATOM     21  F   UNL     1      48.777   6.415  13.981  0.00  0.00    +0.000 F 
ATOM     22  C   UNL     1      46.875   4.972  13.982  0.00  0.00    +0.000 A 
ATOM     23  C   UNL     1      45.692   4.610  13.303  0.00  0.00    +0.000 A 
BRANCH  22  24
ATOM     24  C   UNL     1      47.254   4.313  15.251  0.00  0.00    +0.000 A 
ATOM     25  C   UNL     1      47.857   3.049  15.290  0.00  0.00    +0.000 A 
ATOM     26  C   UNL     1      48.211   2.460  16.503  0.00  0.00    +0.000 A 
ATOM     27  C   UNL     1      47.968   3.158  17.668  0.00  0.00    +0.000 A 
ATOM     28  N   UNL     1      47.401   4.381  17.697  0.00  0.00    +0.000 NA
ATOM     29  C   UNL     1      47.055   4.915  16.498  0.00  0.00    +0.000 A 
ENDBRANCH  22  24
ENDBRANCH   1  17
TORSDOF 4
ENDMDL
MODEL 3
REMARK VINA RESULT:    -6.984      4.446      8.213
REMARK INTER + INTRA:          -9.772
REMARK INTER:                  -8.662
REMARK INTRA:                  -1.110
REMARK UNBOUND:                -1.154
REMARK  Name = 
REMARK  4 active torsions:
REMARK  status: ('A' for Active; 'I' for Inactive)
REMARK    1  A    between atoms: C_2  and  C_4
REMARK    2  A    between atoms: N_8  and  C_9
REMARK    3  A    between atoms: C_9  and  C_10
REMARK    4  A    between atoms: C_15  and  C_16
REMARK                            x       y       z     vdW  Elec       q    Type
REMARK                         _______ _______ _______ _____ _____    ______ ____
ROOT
ATOM      1  C   UNL     1      49.033   7.944  12.796  0.00  0.00    +0.000 C 
ATOM      2  C   UNL     1      50.029   8.138  11.659  0.00  0.00    +0.000 C 
ATOM      3  C   UNL     1      49.643   9.303  12.504  0.00  0.00    +0.000 C 
ENDROOT
BRANCH   1   8
ATOM      4  C   UNL     1      48.365   6.786  17.832  0.00  0.00    +0.000 A 
ATOM      5  C   UNL     1      48.419   8.041  17.230  0.00  0.00    +0.000 A 
ATOM      6  C   UNL     1      48.777   8.143  15.888  0.00  0.00    +0.000 A 
ATOM      7  C   UNL     1      49.067   6.995  15.164  0.00  0.00    +0.000 A 
ATOM      8  N   UNL     1      49.507   7.017  13.837  0.00  0.00    +0.000 N 
ATOM      9  N   UNL     1      49.034   5.772  15.739  0.00  0.00    +0.000 NA
ATOM     10  C   UNL     1      48.696   5.688  17.054  0.00  0.00    +0.000 A 
ATOM     11  H   UNL     1      49.572   6.038  13.560  0.00  0.00    +0.000 HD
BRANCH   4  13
ATOM     12  N   UNL     1      47.151   5.582  19.547  0.00  0.00    +0.000 N 
ATOM     13  C   UNL     1      48.013   6.602  19.254  0.00  0.00    +0.000 C 
ATOM     14  O   UNL     1      48.485   7.312  20.129  0.00  0.00    +0.000 OA
ATOM     15  H   UNL     1      46.960   5.407  20.525  0.00  0.00    +0.000 HD
ATOM     16  H   UNL     1      46.936   4.842  18.892  0.00  0.00    +0.000 HD
ENDBRANCH   4  13
ENDBRANCH   1   8
BRANCH   1  17
ATOM     17  C   UNL     1      47.553   7.769  12.467  0.00  0.00    +0.000 A 
ATOM     18  C   UNL     1      46.602   8.749  12.788  0.00  0.00    +0.000 A 
ATOM     19  C   UNL     1      45.272   8.612  12.398  0.00  0.00    +0.000 A 
ATOM     20  C   UNL     1      44.870   7.484  11.688  0.00  0.00    +0.000 A 
ATOM     21  F   UNL     1      43.578   7.415  11.331  0.00  0.00    +0.000 F 
ATOM     22  C   UNL     1      45.766   6.459  11.351  0.00  0.00    +0.000 A 
ATOM     23  C   UNL     1      47.104   6.631  11.762  0.00  0.00    +0.000 A 
BRANCH  22  24
ATOM     24  C   UNL     1      45.355   5.264  10.581  0.00  0.00    +0.000 A 
ATOM     25  C   UNL     1      45.655   5.107   9.222  0.00  0.00    +0.000 A 
ATOM     26  C   UNL     1      45.261   3.964   8.527  0.00  0.00    +0.000 A 
ATOM     27  C   UNL     1      44.582   2.979   9.215  0.00  0.00    +0.000 A 
ATOM     28  N   UNL     1      44.273   3.065  10.524  0.00  0.00    +0.000 NA
ATOM     29  C   UNL     1      44.658   4.200  11.163  0.00  0.00    +0.000 A 
ENDBRANCH  22  24
ENDBRANCH   1  17
TORSDOF 4
ENDMDL
MODEL 4
REMARK VINA RESULT:    -6.512      1.807      2.365
REMARK INTER + INTRA:          -9.189
REMARK INTER:                  -9.018
REMARK INTRA:                  -0.171
REMARK UNBOUND:                -1.154
REMARK  Name = 
REMARK  4 active torsions:
REMARK  status: ('A' for Active; 'I' for Inactive)
REMARK    1  A    between atoms: C_2  and  C_4
REMARK    2  A    between atoms: N_8  and  C_9
REMARK    3  A    between atoms: C_9  and  C_10
REMARK    4  A    between atoms: C_15  and  C_16
REMARK                            x       y       z     vdW  Elec       q    Type
REMARK                         _______ _______ _______ _____ _____    ______ ____
ROOT
ATOM      1  C   UNL     1      44.034   4.633  11.791  0.00  0.00    +0.000 C 
ATOM      2  C   UNL     1      44.634   3.646  12.784  0.00  0.00    +0.000 C 
ATOM      3  C   UNL     1      43.317   4.276  13.080  0.00  0.00    +0.000 C 
ENDROOT
BRANCH   1   8
ATOM      4  C   UNL     1      46.360   3.303   7.322  0.00  0.00    +0.000 A 
ATOM      5  C   UNL     1      46.567   4.436   8.105  0.00  0.00    +0.000 A 
ATOM      6  C   UNL     1      45.720   4.693   9.180  0.00  0.00    +0.000 A 
ATOM      7  C   UNL     1      44.685   3.812   9.464  0.00  0.00    +0.000 A 
ATOM      8  N   UNL     1      43.745   4.036  10.476  0.00  0.00    +0.000 N 
ATOM      9  N   UNL     1      44.462   2.717   8.705  0.00  0.00    +0.000 NA
ATOM     10  C   UNL     1      45.289   2.486   7.649  0.00  0.00    +0.000 A 
ATOM     11  H   UNL     1      43.161   3.201  10.489  0.00  0.00    +0.000 HD
BRANCH   4  13
ATOM     12  N   UNL     1      48.498   2.615   6.417  0.00  0.00    +0.000 N 
ATOM     13  C   UNL     1      47.205   2.978   6.157  0.00  0.00    +0.000 C 
ATOM     14  O   UNL     1      46.767   3.009   5.017  0.00  0.00    +0.000 OA
ATOM     15  H   UNL     1      49.062   2.324   5.628  0.00  0.00    +0.000 HD
ATOM     16  H   UNL     1      48.816   2.350   7.338  0.00  0.00    +0.000 HD
ENDBRANCH   4  13
ENDBRANCH   1   8
BRANCH   1  17
ATOM     17  C   UNL     1      44.619   6.039  11.695  0.00  0.00    +0.000 A 
ATOM     18  C   UNL     1      43.837   7.142  11.320  0.00  0.00    +0.000 A 
ATOM     19  C   UNL     1      44.365   8.430  11.326  0.00  0.00    +0.000 A 
ATOM     20  C   UNL     1      45.690   8.636  11.699  0.00  0.00    +0.000 A 
ATOM     21  F   UNL     1      46.137   9.901  11.696  0.00  0.00    +0.000 F 
ATOM     22  C   UNL     1      46.532   7.575  12.068  0.00  0.00    +0.000 A 
ATOM     23  C   UNL     1      45.963   6.284  12.049  0.00  0.00    +0.000 A 
BRANCH  22  24
ATOM     24  C   UNL     1      47.936   7.781  12.483  0.00  0.00    +0.000 A 
ATOM     25  C   UNL     1      48.992   7.826  11.564  0.00  0.00    +0.000 A 
ATOM     26  C   UNL     1      50.305   8.031  11.988  0.00  0.00    +0.000 A 
ATOM     27  C   UNL     1      50.539   8.205  13.336  0.00  0.00    +0.000 A 
ATOM     28  N   UNL     1      49.567   8.182  14.269  0.00  0.00    +0.000 NA
ATOM     29  C   UNL     1      48.304   7.964  13.820  0.00  0.00    +0.000 A 
ENDBRANCH  22  24
ENDBRANCH   1  17
TORSDOF 4
ENDMDL
MODEL 5
REMARK VINA RESULT:    -6.361      3.673      6.539
REMARK INTER + INTRA:          -9.002
REMARK INTER:                  -7.863
REMARK INTRA:                  -1.139
REMARK UNBOUND:                -1.154
REMARK  Name = 
REMARK  4 active torsions:
REMARK  status: ('A' for Active; 'I' for Inactive)
REMARK    1  A    between atoms: C_2  and  C_4
REMARK    2  A    between atoms: N_8  and  C_9
REMARK    3  A    between atoms: C_9  and  C_10
REMARK    4  A    between atoms: C_15  and  C_16
REMARK                            x       y       z     vdW  Elec       q    Type
REMARK                         _______ _______ _______ _____ _____    ______ ____
ROOT
ATOM      1  C   UNL     1      49.194   8.503  12.650  0.00  0.00    +0.000 C 
ATOM      2  C   UNL     1      50.365   9.313  12.109  0.00  0.00    +0.000 C 
ATOM      3  C   UNL     1      50.364   7.831  11.955  0.00  0.00    +0.000 C 
ENDROOT
BRANCH   1   8
ATOM      4  C   UNL     1      44.563   6.410  11.498  0.00  0.00    +0.000 A 
ATOM      5  C   UNL     1      45.824   5.820  11.428  0.00  0.00    +0.000 A 
ATOM      6  C   UNL     1      46.959   6.605  11.617  0.00  0.00    +0.000 A 
ATOM      7  C   UNL     1      46.822   7.960  11.880  0.00  0.00    +0.000 A 
ATOM      8  N   UNL     1      47.910   8.831  12.006  0.00  0.00    +0.000 N 
ATOM      9  N   UNL     1      45.606   8.549  11.936  0.00  0.00    +0.000 NA
ATOM     10  C   UNL     1      44.507   7.774  11.736  0.00  0.00    +0.000 A 
ATOM     11  H   UNL     1      47.505   9.731  12.260  0.00  0.00    +0.000 HD
BRANCH   4  13
ATOM     12  N   UNL     1      42.160   6.224  11.731  0.00  0.00    +0.000 N 
ATOM     13  C   UNL     1      43.318   5.645  11.289  0.00  0.00    +0.000 C 
ATOM     14  O   UNL     1      43.317   4.559  10.730  0.00  0.00    +0.000 OA
ATOM     15  H   UNL     1      41.296   5.738  11.529  0.00  0.00    +0.000 HD
ATOM     16  H   UNL     1      42.096   7.203  11.973  0.00  0.00    +0.000 HD
ENDBRANCH   4  13
ENDBRANCH   1   8
BRANCH   1  17
ATOM     17  C   UNL     1      49.070   8.289  14.155  0.00  0.00    +0.000 A 
ATOM     18  C   UNL     1      48.987   9.364  15.052  0.00  0.00    +0.000 A 
ATOM     19  C   UNL     1      48.783   9.150  16.412  0.00  0.00    +0.000 A 
ATOM     20  C   UNL     1      48.666   7.851  16.901  0.00  0.00    +0.000 A 
ATOM     21  F   UNL     1      48.459   7.710  18.219  0.00  0.00    +0.000 F 
ATOM     22  C   UNL     1      48.758   6.730  16.061  0.00  0.00    +0.000 A 
ATOM     23  C   UNL     1      48.966   6.987  14.689  0.00  0.00    +0.000 A 
BRANCH  22  24
ATOM     24  C   UNL     1      48.619   5.346  16.564  0.00  0.00    +0.000 A 
ATOM     25  C   UNL     1      49.585   4.743  17.380  0.00  0.00    +0.000 A 
ATOM     26  C   UNL     1      49.419   3.439  17.844  0.00  0.00    +0.000 A 
ATOM     27  C   UNL     1      48.271   2.758  17.494  0.00  0.00    +0.000 A 
ATOM     28  N   UNL     1      47.300   3.286  16.722  0.00  0.00    +0.000 NA
ATOM     29  C   UNL     1      47.504   4.552  16.275  0.00  0.00    +0.000 A 
ENDBRANCH  22  24
ENDBRANCH   1  17
TORSDOF 4
ENDMDL
MODEL 6
REMARK VINA RESULT:    -6.179      4.185      7.013
REMARK INTER + INTRA:          -8.779
REMARK INTER:                  -7.630
REMARK INTRA:                  -1.149
REMARK UNBOUND:                -1.154
REMARK  Name = 
REMARK  4 active torsions:
REMARK  status: ('A' for Active; 'I' for Inactive)
REMARK    1  A    between atoms: C_2  and  C_4
REMARK    2  A    between atoms: N_8  and  C_9
REMARK    3  A    between atoms: C_9  and  C_10
REMARK    4  A    between atoms: C_15  and  C_16
REMARK                            x       y       z     vdW  Elec       q    Type
REMARK                         _______ _______ _______ _____ _____    ______ ____
ROOT
ATOM      1  C   UNL     1      49.051   9.392  14.866  0.00  0.00    +0.000 C 
ATOM      2  C   UNL     1      49.883  10.665  14.970  0.00  0.00    +0.000 C 
ATOM      3  C   UNL     1      50.469   9.454  14.329  0.00  0.00    +0.000 C 
ENDROOT
BRANCH   1   8
ATOM      4  C   UNL     1      45.882   6.724  11.707  0.00  0.00    +0.000 A 
ATOM      5  C   UNL     1      47.271   6.669  11.790  0.00  0.00    +0.000 A 
ATOM      6  C   UNL     1      47.947   7.591  12.586  0.00  0.00    +0.000 A 
ATOM      7  C   UNL     1      47.230   8.547  13.292  0.00  0.00    +0.000 A 
ATOM      8  N   UNL     1      47.836   9.554  14.050  0.00  0.00    +0.000 N 
ATOM      9  N   UNL     1      45.883   8.621  13.208  0.00  0.00    +0.000 NA
ATOM     10  C   UNL     1      45.236   7.724  12.417  0.00  0.00    +0.000 A 
ATOM     11  H   UNL     1      47.067  10.052  14.497  0.00  0.00    +0.000 HD
BRANCH   4  13
ATOM     12  N   UNL     1      45.604   5.510   9.630  0.00  0.00    +0.000 N 
ATOM     13  C   UNL     1      45.100   5.792  10.870  0.00  0.00    +0.000 C 
ATOM     14  O   UNL     1      44.066   5.281  11.272  0.00  0.00    +0.000 OA
ATOM     15  H   UNL     1      45.110   4.820   9.078  0.00  0.00    +0.000 HD
ATOM     16  H   UNL     1      46.556   5.720   9.366  0.00  0.00    +0.000 HD
ENDBRANCH   4  13
ENDBRANCH   1   8
BRANCH   1  17
ATOM     17  C   UNL     1      48.824   8.548  16.117  0.00  0.00    +0.000 A 
ATOM     18  C   UNL     1      48.220   9.077  17.267  0.00  0.00    +0.000 A 
ATOM     19  C   UNL     1      47.938   8.268  18.365  0.00  0.00    +0.000 A 
ATOM     20  C   UNL     1      48.265   6.915  18.333  0.00  0.00    +0.000 A 
ATOM     21  F   UNL     1      47.958   6.186  19.417  0.00  0.00    +0.000 F 
ATOM     22  C   UNL     1      48.887   6.327  17.222  0.00  0.00    +0.000 A 
ATOM     23  C   UNL     1      49.158   7.177  16.129  0.00  0.00    +0.000 A 
BRANCH  22  24
ATOM     24  C   UNL     1      49.224   4.888  17.167  0.00  0.00    +0.000 A 
ATOM     25  C   UNL     1      48.280   3.907  16.838  0.00  0.00    +0.000 A 
ATOM     26  C   UNL     1      48.633   2.559  16.787  0.00  0.00    +0.000 A 
ATOM     27  C   UNL     1      49.942   2.213  17.052  0.00  0.00    +0.000 A 
ATOM     28  N   UNL     1      50.899   3.109  17.364  0.00  0.00    +0.000 NA
ATOM     29  C   UNL     1      50.514   4.410  17.420  0.00  0.00    +0.000 A 
ENDBRANCH  22  24
ENDBRANCH   1  17
TORSDOF 4
ENDMDL
MODEL 7
REMARK VINA RESULT:    -6.138      3.921      5.997
REMARK INTER + INTRA:          -8.728
REMARK INTER:                  -8.135
REMARK INTRA:                  -0.593
REMARK UNBOUND:                -1.154
REMARK  Name = 
REMARK  4 active torsions:
REMARK  status: ('A' for Active; 'I' for Inactive)
REMARK    1  A    between atoms: C_2  and  C_4
REMARK    2  A    between atoms: N_8  and  C_9
REMARK    3  A    between atoms: C_9  and  C_10
REMARK    4  A    between atoms: C_15  and  C_16
REMARK                            x       y       z     vdW  Elec       q    Type
REMARK                         _______ _______ _______ _____ _____    ______ ____
ROOT
ATOM      1  C   UNL     1      47.785   8.033  13.145  0.00  0.00    +0.000 C 
ATOM      2  C   UNL     1      47.619   9.503  12.782  0.00  0.00    +0.000 C 
ATOM      3  C   UNL     1      48.186   8.558  11.779  0.00  0.00    +0.000 C 
ENDROOT
BRANCH   1   8
ATOM      4  C   UNL     1      44.628   4.302  11.336  0.00  0.00    +0.000 A 
ATOM      5  C   UNL     1      45.335   5.264  10.618  0.00  0.00    +0.000 A 
ATOM      6  C   UNL     1      45.993   6.284  11.302  0.00  0.00    +0.000 A 
ATOM      7  C   UNL     1      45.943   6.326  12.688  0.00  0.00    +0.000 A 
ATOM      8  N   UNL     1      46.510   7.357  13.444  0.00  0.00    +0.000 N 
ATOM      9  N   UNL     1      45.248   5.409  13.397  0.00  0.00    +0.000 NA
ATOM     10  C   UNL     1      44.599   4.426  12.716  0.00  0.00    +0.000 A 
ATOM     11  H   UNL     1      46.374   7.083  14.416  0.00  0.00    +0.000 HD
BRANCH   4  13
ATOM     12  N   UNL     1      44.201   2.954   9.370  0.00  0.00    +0.000 N 
ATOM     13  C   UNL     1      43.892   3.205  10.679  0.00  0.00    +0.000 C 
ATOM     14  O   UNL     1      43.064   2.537  11.280  0.00  0.00    +0.000 OA
ATOM     15  H   UNL     1      43.750   2.159   8.935  0.00  0.00    +0.000 HD
ATOM     16  H   UNL     1      45.032   3.318   8.926  0.00  0.00    +0.000 HD
ENDBRANCH   4  13
ENDBRANCH   1   8
BRANCH   1  17
ATOM     17  C   UNL     1      48.915   7.621  14.084  0.00  0.00    +0.000 A 
ATOM     18  C   UNL     1      50.237   8.042  13.880  0.00  0.00    +0.000 A 
ATOM     19  C   UNL     1      51.238   7.732  14.797  0.00  0.00    +0.000 A 
ATOM     20  C   UNL     1      50.933   6.988  15.933  0.00  0.00    +0.000 A 
ATOM     21  F   UNL     1      51.937   6.732  16.785  0.00  0.00    +0.000 F 
ATOM     22  C   UNL     1      49.635   6.521  16.189  0.00  0.00    +0.000 A 
ATOM     23  C   UNL     1      48.647   6.853  15.237  0.00  0.00    +0.000 A 
BRANCH  22  24
ATOM     24  C   UNL     1      49.292   5.744  17.400  0.00  0.00    +0.000 A 
ATOM     25  C   UNL     1      48.919   6.356  18.604  0.00  0.00    +0.000 A 
ATOM     26  C   UNL     1      48.594   5.593  19.726  0.00  0.00    +0.000 A 
ATOM     27  C   UNL     1      48.631   4.218  19.618  0.00  0.00    +0.000 A 
ATOM     28  N   UNL     1      48.971   3.570  18.486  0.00  0.00    +0.000 NA
ATOM     29  C   UNL     1      49.298   4.345  17.421  0.00  0.00    +0.000 A 
ENDBRANCH  22  24
ENDBRANCH   1  17
TORSDOF 4
ENDMDL
MODEL 8
REMARK VINA RESULT:    -6.062      5.487      8.549
REMARK INTER + INTRA:          -8.634
REMARK INTER:                  -7.486
REMARK INTRA:                  -1.148
REMARK UNBOUND:                -1.154
REMARK  Name = 
REMARK  4 active torsions:
REMARK  status: ('A' for Active; 'I' for Inactive)
REMARK    1  A    between atoms: C_2  and  C_4
REMARK    2  A    between atoms: N_8  and  C_9
REMARK    3  A    between atoms: C_9  and  C_10
REMARK    4  A    between atoms: C_15  and  C_16
REMARK                            x       y       z     vdW  Elec       q    Type
REMARK                         _______ _______ _______ _____ _____    ______ ____
ROOT
ATOM      1  C   UNL     1      49.262   7.179  17.634  0.00  0.00    +0.000 C 
ATOM      2  C   UNL     1      48.844   8.432  18.392  0.00  0.00    +0.000 C 
ATOM      3  C   UNL     1      47.949   7.242  18.392  0.00  0.00    +0.000 C 
ENDROOT
BRANCH   1   8
ATOM      4  C   UNL     1      51.839   2.651  17.733  0.00  0.00    +0.000 A 
ATOM      5  C   UNL     1      50.470   2.873  17.861  0.00  0.00    +0.000 A 
ATOM      6  C   UNL     1      49.994   4.177  17.979  0.00  0.00    +0.000 A 
ATOM      7  C   UNL     1      50.888   5.239  17.959  0.00  0.00    +0.000 A 
ATOM      8  N   UNL     1      50.501   6.570  18.148  0.00  0.00    +0.000 N 
ATOM      9  N   UNL     1      52.220   5.038  17.851  0.00  0.00    +0.000 NA
ATOM     10  C   UNL     1      52.672   3.759  17.751  0.00  0.00    +0.000 A 
ATOM     11  H   UNL     1      51.350   7.117  18.015  0.00  0.00    +0.000 HD
BRANCH   4  13
ATOM     12  N   UNL     1      51.643   0.261  18.072  0.00  0.00    +0.000 N 
ATOM     13  C   UNL     1      52.416   1.297  17.624  0.00  0.00    +0.000 C 
ATOM     14  O   UNL     1      53.520   1.106  17.136  0.00  0.00    +0.000 OA
ATOM     15  H   UNL     1      52.004  -0.675  17.937  0.00  0.00    +0.000 HD
ATOM     16  H   UNL     1      50.654   0.356  18.253  0.00  0.00    +0.000 HD
ENDBRANCH   4  13
ENDBRANCH   1   8
BRANCH   1  17
ATOM     17  C   UNL     1      49.178   7.168  16.110  0.00  0.00    +0.000 A 
ATOM     18  C   UNL     1      50.108   7.853  15.313  0.00  0.00    +0.000 A 
ATOM     19  C   UNL     1      50.070   7.757  13.925  0.00  0.00    +0.000 A 
ATOM     20  C   UNL     1      49.092   6.980  13.309  0.00  0.00    +0.000 A 
ATOM     21  F   UNL     1      49.115   6.919  11.969  0.00  0.00    +0.000 F 
ATOM     22  C   UNL     1      48.122   6.285  14.046  0.00  0.00    +0.000 A 
ATOM     23  C   UNL     1      48.191   6.406  15.450  0.00  0.00    +0.000 A 
BRANCH  22  24
ATOM     24  C   UNL     1      47.088   5.442  13.405  0.00  0.00    +0.000 A 
ATOM     25  C   UNL     1      46.216   5.937  12.427  0.00  0.00    +0.000 A 
ATOM     26  C   UNL     1      45.258   5.114  11.837  0.00  0.00    +0.000 A 
ATOM     27  C   UNL     1      45.200   3.791  12.227  0.00  0.00    +0.000 A 
ATOM     28  N   UNL     1      46.017   3.252  13.153  0.00  0.00    +0.000 NA
ATOM     29  C   UNL     1      46.925   4.089  13.718  0.00  0.00    +0.000 A 
ENDBRANCH  22  24
ENDBRANCH   1  17
TORSDOF 4
ENDMDL
