MODEL 1
REMARK VINA RESULT:    -8.045      0.000      0.000
REMARK INTER + INTRA:         -11.542
REMARK INTER:                 -10.397
REMARK INTRA:                  -1.145
REMARK UNBOUND:                -1.145
REMARK  Name = 
REMARK  5 active torsions:
REMARK  status: ('A' for Active; 'I' for Inactive)
REMARK    1  A    between atoms: N_3  and  C_4
REMARK    2  A    between atoms: C_4  and  C_5
REMARK    3  A    between atoms: C_8  and  C_25
REMARK    4  A    between atoms: C_9  and  N_10
REMARK    5  A    between atoms: C_11  and  C_13
REMARK                            x       y       z     vdW  Elec       q    Type
REMARK                         _______ _______ _______ _____ _____    ______ ____
ROOT
ATOM      1  C   UNL     1      44.906   3.504  10.013  0.00  0.00    +0.000 C 
ATOM      2  C   UNL     1      45.561   4.591   9.547  0.00  0.00    +0.000 C 
ATOM      3  C   UNL     1      45.690   5.871  10.225  0.00  0.00    +0.000 C 
ATOM      4  C   UNL     1      45.909   6.025  11.551  0.00  0.00    +0.000 C 
ATOM      5  C   UNL     1      46.071   4.778  12.426  0.00  0.00    +0.000 C 
ATOM      6  C   UNL     1      44.792   3.984  12.443  0.00  0.00    +0.000 C 
ATOM      7  C   UNL     1      44.278   3.428  11.331  0.00  0.00    +0.000 C 
ENDROOT
BRANCH   4   8
ATOM      8  C   UNL     1      45.835   7.362  12.034  0.00  0.00    +0.000 A 
ATOM      9  C   UNL     1      46.757   8.273  12.501  0.00  0.00    +0.000 A 
ATOM     10  N   UNL     1      46.158   9.480  12.766  0.00  0.00    +0.000 NA
ATOM     11  C   UNL     1      44.891   9.307  12.470  0.00  0.00    +0.000 A 
ATOM     12  N   UNL     1      44.639   8.035  12.048  0.00  0.00    +0.000 N 
ATOM     13  H   UNL     1      43.740   7.661  11.767  0.00  0.00    +0.000 HD
ENDBRANCH   4   8
BRANCH   5  14
ATOM     14  N   UNL     1      46.435   5.126  13.777  0.00  0.00    +0.000 N 
ATOM     15  C   UNL     1      47.129   4.256  14.576  0.00  0.00    +0.000 C 
ATOM     16  O   UNL     1      47.462   3.138  14.188  0.00  0.00    +0.000 OA
ATOM     17  H   UNL     1      46.220   6.059  14.110  0.00  0.00    +0.000 HD
BRANCH  15  18
ATOM     18  C   UNL     1      47.518   4.739  15.906  0.00  0.00    +0.000 A 
ATOM     19  C   UNL     1      46.988   4.127  17.033  0.00  0.00    +0.000 A 
ATOM     20  S   UNL     1      47.522   4.811  18.498  0.00  0.00    +0.000 S 
ATOM     21  C   UNL     1      48.443   5.983  17.675  0.00  0.00    +0.000 A 
ATOM     22  N   UNL     1      49.124   6.938  18.361  0.00  0.00    +0.000 NA
ATOM     23  C   UNL     1      49.753   7.783  17.615  0.00  0.00    +0.000 A 
ATOM     24  N   UNL     1      49.777   7.748  16.244  0.00  0.00    +0.000 N 
ATOM     25  C   UNL     1      49.160   6.760  15.512  0.00  0.00    +0.000 A 
ATOM     26  O   UNL     1      49.303   6.687  14.295  0.00  0.00    +0.000 OA
ATOM     27  C   UNL     1      48.387   5.819  16.301  0.00  0.00    +0.000 A 
ATOM     28  H   UNL     1      50.322   8.417  15.721  0.00  0.00    +0.000 HD
ENDBRANCH  15  18
ENDBRANCH   5  14
BRANCH   1  29
ATOM     29  C   UNL     1      44.760   2.266   9.163  0.00  0.00    +0.000 C 
BRANCH  29  32
ATOM     30  O   UNL     1      46.431   0.209   8.160  0.00  0.00    +0.000 OA
ATOM     31  C   UNL     1      46.433   1.317   7.647  0.00  0.00    +0.000 C 
ATOM     32  N   UNL     1      45.664   2.377   8.042  0.00  0.00    +0.000 N 
ATOM     33  H   UNL     1      45.750   3.260   7.557  0.00  0.00    +0.000 HD
ENDBRANCH  29  32
ENDBRANCH   1  29
TORSDOF 5
ENDMDL
MODEL 2
REMARK VINA RESULT:    -7.842      1.500      1.717
REMARK INTER + INTRA:         -11.279
REMARK INTER:                  -9.839
REMARK INTRA:                  -1.439
REMARK UNBOUND:                -1.145
REMARK  Name = 
REMARK  5 active torsions:
REMARK  status: ('A' for Active; 'I' for Inactive)
REMARK    1  A    between atoms: N_3  and  C_4
REMARK    2  A    between atoms: C_4  and  C_5
REMARK    3  A    between atoms: C_8  and  C_25
REMARK    4  A    between atoms: C_9  and  N_10
REMARK    5  A    between atoms: C_11  and  C_13
REMARK                            x       y       z     vdW  Elec       q    Type
REMARK                         _______ _______ _______ _____ _____    ______ ____
ROOT
ATOM      1  C   UNL     1      44.608   4.715  10.826  0.00  0.00    +0.000 C 
ATOM      2  C   UNL     1      45.686   5.354  10.320  0.00  0.00    +0.000 C 
ATOM      3  C   UNL     1      46.443   6.409  10.974  0.00  0.00    +0.000 C 
ATOM      4  C   UNL     1      46.762   6.432  12.289  0.00  0.00    +0.000 C 
ATOM      5  C   UNL     1      46.338   5.257  13.175  0.00  0.00    +0.000 C 
ATOM      6  C   UNL     1      44.836   5.177  13.251  0.00  0.00    +0.000 C 
ATOM      7  C   UNL     1      44.074   4.944  12.167  0.00  0.00    +0.000 C 
ENDROOT
BRANCH   4   8
ATOM      8  C   UNL     1      47.360   7.636  12.755  0.00  0.00    +0.000 A 
ATOM      9  C   UNL     1      46.977   8.630  13.629  0.00  0.00    +0.000 A 
ATOM     10  N   UNL     1      47.985   9.549  13.794  0.00  0.00    +0.000 NA
ATOM     11  C   UNL     1      48.964   9.124  13.030  0.00  0.00    +0.000 A 
ATOM     12  N   UNL     1      48.627   7.986  12.361  0.00  0.00    +0.000 N 
ATOM     13  H   UNL     1      49.213   7.473  11.712  0.00  0.00    +0.000 HD
ENDBRANCH   4   8
BRANCH   5  14
ATOM     14  N   UNL     1      46.878   5.379  14.507  0.00  0.00    +0.000 N 
ATOM     15  C   UNL     1      47.403   4.299  15.165  0.00  0.00    +0.000 C 
ATOM     16  O   UNL     1      47.429   3.177  14.663  0.00  0.00    +0.000 OA
ATOM     17  H   UNL     1      46.917   6.300  14.928  0.00  0.00    +0.000 HD
BRANCH  15  18
ATOM     18  C   UNL     1      47.998   4.548  16.483  0.00  0.00    +0.000 A 
ATOM     19  C   UNL     1      47.566   3.808  17.574  0.00  0.00    +0.000 A 
ATOM     20  S   UNL     1      48.339   4.226  19.034  0.00  0.00    +0.000 S 
ATOM     21  C   UNL     1      49.242   5.448  18.266  0.00  0.00    +0.000 A 
ATOM     22  N   UNL     1      50.083   6.241  18.980  0.00  0.00    +0.000 NA
ATOM     23  C   UNL     1      50.680   7.149  18.281  0.00  0.00    +0.000 A 
ATOM     24  N   UNL     1      50.526   7.320  16.929  0.00  0.00    +0.000 N 
ATOM     25  C   UNL     1      49.740   6.497  16.157  0.00  0.00    +0.000 A 
ATOM     26  O   UNL     1      49.720   6.600  14.934  0.00  0.00    +0.000 OA
ATOM     27  C   UNL     1      48.998   5.498  16.904  0.00  0.00    +0.000 A 
ATOM     28  H   UNL     1      51.053   8.025  16.436  0.00  0.00    +0.000 HD
ENDBRANCH  15  18
ENDBRANCH   5  14
BRANCH   1  29
ATOM     29  C   UNL     1      43.850   3.705  10.000  0.00  0.00    +0.000 C 
BRANCH  29  32
ATOM     30  O   UNL     1      45.550   2.653   7.991  0.00  0.00    +0.000 OA
ATOM     31  C   UNL     1      45.349   2.033   9.024  0.00  0.00    +0.000 C 
ATOM     32  N   UNL     1      44.558   2.447  10.059  0.00  0.00    +0.000 N 
ATOM     33  H   UNL     1      44.445   1.850  10.868  0.00  0.00    +0.000 HD
ENDBRANCH  29  32
ENDBRANCH   1  29
TORSDOF 5
ENDMDL
MODEL 3
REMARK VINA RESULT:    -7.261      1.924      2.727
REMARK INTER + INTRA:         -10.529
REMARK INTER:                  -9.778
REMARK INTRA:                  -0.751
REMARK UNBOUND:                -1.145
REMARK  Name = 
REMARK  5 active torsions:
REMARK  status: ('A' for Active; 'I' for Inactive)
REMARK    1  A    between atoms: N_3  and  C_4
REMARK    2  A    between atoms: C_4  and  C_5
REMARK    3  A    between atoms: C_8  and  C_25
REMARK    4  A    between atoms: C_9  and  N_10
REMARK    5  A    between atoms: C_11  and  C_13
REMARK                            x       y       z     vdW  Elec       q    Type
REMARK                         _______ _______ _______ _____ _____    ______ ____
ROOT
ATOM      1  C   UNL     1      44.542   4.794  10.891  0.00  0.00    +0.000 C 
ATOM      2  C   UNL     1      45.553   5.399  10.227  0.00  0.00    +0.000 C 
ATOM      3  C   UNL     1      46.324   6.539  10.693  0.00  0.00    +0.000 C 
ATOM      4  C   UNL     1      46.749   6.718  11.966  0.00  0.00    +0.000 C 
ATOM      5  C   UNL     1      46.440   5.640  13.009  0.00  0.00    +0.000 C 
ATOM      6  C   UNL     1      44.953   5.533  13.221  0.00  0.00    +0.000 C 
ATOM      7  C   UNL     1      44.112   5.160  12.239  0.00  0.00    +0.000 C 
ENDROOT
BRANCH   4   8
ATOM      8  C   UNL     1      47.342   7.982  12.243  0.00  0.00    +0.000 A 
ATOM      9  C   UNL     1      46.872   9.185  12.722  0.00  0.00    +0.000 A 
ATOM     10  N   UNL     1      47.901  10.080  12.887  0.00  0.00    +0.000 NA
ATOM     11  C   UNL     1      48.980   9.434  12.510  0.00  0.00    +0.000 A 
ATOM     12  N   UNL     1      48.692   8.170  12.088  0.00  0.00    +0.000 N 
ATOM     13  H   UNL     1      49.355   7.483  11.748  0.00  0.00    +0.000 HD
ENDBRANCH   4   8
BRANCH   5  14
ATOM     14  N   UNL     1      47.083   5.925  14.268  0.00  0.00    +0.000 N 
ATOM     15  C   UNL     1      47.601   4.925  15.047  0.00  0.00    +0.000 C 
ATOM     16  O   UNL     1      47.533   3.741  14.721  0.00  0.00    +0.000 OA
ATOM     17  H   UNL     1      47.200   6.894  14.541  0.00  0.00    +0.000 HD
BRANCH  15  18
ATOM     18  C   UNL     1      48.304   5.330  16.269  0.00  0.00    +0.000 A 
ATOM     19  C   UNL     1      49.094   6.470  16.253  0.00  0.00    +0.000 A 
ATOM     20  S   UNL     1      49.855   6.796  17.742  0.00  0.00    +0.000 S 
ATOM     21  C   UNL     1      49.195   5.394  18.446  0.00  0.00    +0.000 A 
ATOM     22  N   UNL     1      49.503   5.049  19.724  0.00  0.00    +0.000 NA
ATOM     23  C   UNL     1      48.961   3.946  20.122  0.00  0.00    +0.000 A 
ATOM     24  N   UNL     1      48.124   3.169  19.363  0.00  0.00    +0.000 N 
ATOM     25  C   UNL     1      47.730   3.517  18.092  0.00  0.00    +0.000 A 
ATOM     26  O   UNL     1      46.884   2.864  17.487  0.00  0.00    +0.000 OA
ATOM     27  C   UNL     1      48.360   4.717  17.573  0.00  0.00    +0.000 A 
ATOM     28  H   UNL     1      47.701   2.337  19.749  0.00  0.00    +0.000 HD
ENDBRANCH  15  18
ENDBRANCH   5  14
BRANCH   1  29
ATOM     29  C   UNL     1      43.754   3.679  10.249  0.00  0.00    +0.000 C 
BRANCH  29  32
ATOM     30  O   UNL     1      45.243   2.655   8.067  0.00  0.00    +0.000 OA
ATOM     31  C   UNL     1      45.239   2.077   9.143  0.00  0.00    +0.000 C 
ATOM     32  N   UNL     1      44.566   2.484  10.261  0.00  0.00    +0.000 N 
ATOM     33  H   UNL     1      44.615   1.925  11.102  0.00  0.00    +0.000 HD
ENDBRANCH  29  32
ENDBRANCH   1  29
TORSDOF 5
ENDMDL
MODEL 4
REMARK VINA RESULT:    -6.880      2.960      8.207
REMARK INTER + INTRA:         -10.036
REMARK INTER:                  -8.559
REMARK INTRA:                  -1.477
REMARK UNBOUND:                -1.145
REMARK  Name = 
REMARK  5 active torsions:
REMARK  status: ('A' for Active; 'I' for Inactive)
REMARK    1  A    between atoms: N_3  and  C_4
REMARK    2  A    between atoms: C_4  and  C_5
REMARK    3  A    between atoms: C_8  and  C_25
REMARK    4  A    between atoms: C_9  and  N_10
REMARK    5  A    between atoms: C_11  and  C_13
REMARK                            x       y       z     vdW  Elec       q    Type
REMARK                         _______ _______ _______ _____ _____    ______ ____
ROOT
ATOM      1  C   UNL     1      51.129   8.162  17.593  0.00  0.00    +0.000 C 
ATOM      2  C   UNL     1      51.422   6.842  17.625  0.00  0.00    +0.000 C 
ATOM      3  C   UNL     1      50.463   5.750  17.586  0.00  0.00    +0.000 C 
ATOM      4  C   UNL     1      49.356   5.718  16.809  0.00  0.00    +0.000 C 
ATOM      5  C   UNL     1      49.082   6.890  15.862  0.00  0.00    +0.000 C 
ATOM      6  C   UNL     1      48.836   8.149  16.650  0.00  0.00    +0.000 C 
ATOM      7  C   UNL     1      49.778   8.698  17.439  0.00  0.00    +0.000 C 
ENDROOT
BRANCH   4   8
ATOM      8  C   UNL     1      48.468   4.633  17.050  0.00  0.00    +0.000 A 
ATOM      9  C   UNL     1      47.147   4.531  17.428  0.00  0.00    +0.000 A 
ATOM     10  N   UNL     1      46.741   3.219  17.435  0.00  0.00    +0.000 NA
ATOM     11  C   UNL     1      47.799   2.532  17.072  0.00  0.00    +0.000 A 
ATOM     12  N   UNL     1      48.876   3.338  16.853  0.00  0.00    +0.000 N 
ATOM     13  H   UNL     1      49.802   3.041  16.568  0.00  0.00    +0.000 HD
ENDBRANCH   4   8
BRANCH   5  14
ATOM     14  N   UNL     1      47.945   6.628  15.014  0.00  0.00    +0.000 N 
ATOM     15  C   UNL     1      48.017   6.786  13.656  0.00  0.00    +0.000 C 
ATOM     16  O   UNL     1      49.042   7.170  13.096  0.00  0.00    +0.000 OA
ATOM     17  H   UNL     1      47.101   6.261  15.439  0.00  0.00    +0.000 HD
BRANCH  15  18
ATOM     18  C   UNL     1      46.828   6.416  12.879  0.00  0.00    +0.000 A 
ATOM     19  C   UNL     1      46.130   7.400  12.194  0.00  0.00    +0.000 A 
ATOM     20  S   UNL     1      44.768   6.816  11.355  0.00  0.00    +0.000 S 
ATOM     21  C   UNL     1      45.034   5.232  11.921  0.00  0.00    +0.000 A 
ATOM     22  N   UNL     1      44.173   4.229  11.607  0.00  0.00    +0.000 NA
ATOM     23  C   UNL     1      44.475   3.087  12.128  0.00  0.00    +0.000 A 
ATOM     24  N   UNL     1      45.570   2.854  12.919  0.00  0.00    +0.000 N 
ATOM     25  C   UNL     1      46.504   3.822  13.205  0.00  0.00    +0.000 A 
ATOM     26  O   UNL     1      47.536   3.552  13.813  0.00  0.00    +0.000 OA
ATOM     27  C   UNL     1      46.180   5.141  12.694  0.00  0.00    +0.000 A 
ATOM     28  H   UNL     1      45.770   1.926  13.263  0.00  0.00    +0.000 HD
ENDBRANCH  15  18
ENDBRANCH   5  14
BRANCH   1  29
ATOM     29  C   UNL     1      52.216   9.198  17.741  0.00  0.00    +0.000 C 
BRANCH  29  32
ATOM     30  O   UNL     1      53.719   9.001  15.347  0.00  0.00    +0.000 OA
ATOM     31  C   UNL     1      52.921   9.912  15.507  0.00  0.00    +0.000 C 
ATOM     32  N   UNL     1      52.140  10.099  16.614  0.00  0.00    +0.000 N 
ATOM     33  H   UNL     1      51.520  10.896  16.655  0.00  0.00    +0.000 HD
ENDBRANCH  29  32
ENDBRANCH   1  29
TORSDOF 5
ENDMDL
MODEL 5
REMARK VINA RESULT:    -5.597      3.253      7.213
REMARK INTER + INTRA:          -8.378
REMARK INTER:                  -7.175
REMARK INTRA:                  -1.203
REMARK UNBOUND:                -1.145
REMARK  Name = 
REMARK  5 active torsions:
REMARK  status: ('A' for Active; 'I' for Inactive)
REMARK    1  A    between atoms: N_3  and  C_4
REMARK    2  A    between atoms: C_4  and  C_5
REMARK    3  A    between atoms: C_8  and  C_25
REMARK    4  A    between atoms: C_9  and  N_10
REMARK    5  A    between atoms: C_11  and  C_13
REMARK                            x       y       z     vdW  Elec       q    Type
REMARK                         _______ _______ _______ _____ _____    ______ ____
ROOT
ATOM      1  C   UNL     1      50.457  10.147  12.804  0.00  0.00    +0.000 C 
ATOM      2  C   UNL     1      49.508  10.942  13.347  0.00  0.00    +0.000 C 
ATOM      3  C   UNL     1      48.132  11.069  12.892  0.00  0.00    +0.000 C 
ATOM      4  C   UNL     1      47.357  10.041  12.476  0.00  0.00    +0.000 C 
ATOM      5  C   UNL     1      47.929   8.620  12.506  0.00  0.00    +0.000 C 
ATOM      6  C   UNL     1      49.086   8.505  11.550  0.00  0.00    +0.000 C 
ATOM      7  C   UNL     1      50.217   9.220  11.700  0.00  0.00    +0.000 C 
ENDROOT
BRANCH   4   8
ATOM      8  C   UNL     1      46.101  10.407  11.915  0.00  0.00    +0.000 A 
ATOM      9  C   UNL     1      45.709  11.060  10.767  0.00  0.00    +0.000 A 
ATOM     10  N   UNL     1      44.340  11.078  10.660  0.00  0.00    +0.000 NA
ATOM     11  C   UNL     1      43.904  10.451  11.728  0.00  0.00    +0.000 A 
ATOM     12  N   UNL     1      44.929  10.048  12.531  0.00  0.00    +0.000 N 
ATOM     13  H   UNL     1      44.845   9.548  13.409  0.00  0.00    +0.000 HD
ENDBRANCH   4   8
BRANCH   5  14
ATOM     14  N   UNL     1      46.928   7.641  12.165  0.00  0.00    +0.000 N 
ATOM     15  C   UNL     1      46.818   6.463  12.855  0.00  0.00    +0.000 C 
ATOM     16  O   UNL     1      47.570   6.178  13.785  0.00  0.00    +0.000 OA
ATOM     17  H   UNL     1      46.261   7.867  11.437  0.00  0.00    +0.000 HD
BRANCH  15  18
ATOM     18  C   UNL     1      45.715   5.572  12.479  0.00  0.00    +0.000 A 
ATOM     19  C   UNL     1      44.929   5.006  13.472  0.00  0.00    +0.000 A 
ATOM     20  S   UNL     1      43.703   3.984  12.876  0.00  0.00    +0.000 S 
ATOM     21  C   UNL     1      44.214   4.222  11.269  0.00  0.00    +0.000 A 
ATOM     22  N   UNL     1      43.604   3.573  10.244  0.00  0.00    +0.000 NA
ATOM     23  C   UNL     1      44.111   3.818   9.082  0.00  0.00    +0.000 A 
ATOM     24  N   UNL     1      45.161   4.669   8.852  0.00  0.00    +0.000 N 
ATOM     25  C   UNL     1      45.762   5.399   9.851  0.00  0.00    +0.000 A 
ATOM     26  O   UNL     1      46.616   6.244   9.596  0.00  0.00    +0.000 OA
ATOM     27  C   UNL     1      45.270   5.114  11.186  0.00  0.00    +0.000 A 
ATOM     28  H   UNL     1      45.485   4.847   7.913  0.00  0.00    +0.000 HD
ENDBRANCH  15  18
ENDBRANCH   5  14
BRANCH   1  29
ATOM     29  C   UNL     1      51.878  10.184  13.311  0.00  0.00    +0.000 C 
BRANCH  29  32
ATOM     30  O   UNL     1      51.751   8.759  15.757  0.00  0.00    +0.000 OA
ATOM     31  C   UNL     1      52.217   8.236  14.756  0.00  0.00    +0.000 C 
ATOM     32  N   UNL     1      52.319   8.826  13.526  0.00  0.00    +0.000 N 
ATOM     33  H   UNL     1      52.735   8.310  12.762  0.00  0.00    +0.000 HD
ENDBRANCH  29  32
ENDBRANCH   1  29
TORSDOF 5
ENDMDL
MODEL 6
REMARK VINA RESULT:    -5.584      2.658      7.055
REMARK INTER + INTRA:          -8.361
REMARK INTER:                  -7.668
REMARK INTRA:                  -0.693
REMARK UNBOUND:                -1.145
REMARK  Name = 
REMARK  5 active torsions:
REMARK  status: ('A' for Active; 'I' for Inactive)
REMARK    1  A    between atoms: N_3  and  C_4
REMARK    2  A    between atoms: C_4  and  C_5
REMARK    3  A    between atoms: C_8  and  C_25
REMARK    4  A    between atoms: C_9  and  N_10
REMARK    5  A    between atoms: C_11  and  C_13
REMARK                            x       y       z     vdW  Elec       q    Type
REMARK                         _______ _______ _______ _____ _____    ______ ____
ROOT
ATOM      1  C   UNL     1      49.789   8.089  15.651  0.00  0.00    +0.000 C 
ATOM      2  C   UNL     1      48.792   8.983  15.835  0.00  0.00    +0.000 C 
ATOM      3  C   UNL     1      47.797   9.373  14.848  0.00  0.00    +0.000 C 
ATOM      4  C   UNL     1      47.189   8.526  13.986  0.00  0.00    +0.000 C 
ATOM      5  C   UNL     1      47.524   7.033  14.052  0.00  0.00    +0.000 C 
ATOM      6  C   UNL     1      48.969   6.808  13.694  0.00  0.00    +0.000 C 
ATOM      7  C   UNL     1      49.978   7.310  14.429  0.00  0.00    +0.000 C 
ENDROOT
BRANCH   4   8
ATOM      8  C   UNL     1      46.374   9.141  12.994  0.00  0.00    +0.000 A 
ATOM      9  C   UNL     1      45.174   8.823  12.396  0.00  0.00    +0.000 A 
ATOM     10  N   UNL     1      44.776   9.822  11.542  0.00  0.00    +0.000 NA
ATOM     11  C   UNL     1      45.719  10.731  11.614  0.00  0.00    +0.000 A 
ATOM     12  N   UNL     1      46.721  10.355  12.459  0.00  0.00    +0.000 N 
ATOM     13  H   UNL     1      47.556  10.887  12.677  0.00  0.00    +0.000 HD
ENDBRANCH   4   8
BRANCH   5  14
ATOM     14  N   UNL     1      46.687   6.264  13.165  0.00  0.00    +0.000 N 
ATOM     15  C   UNL     1      46.186   5.045  13.534  0.00  0.00    +0.000 C 
ATOM     16  O   UNL     1      46.434   4.541  14.628  0.00  0.00    +0.000 OA
ATOM     17  H   UNL     1      46.422   6.674  12.276  0.00  0.00    +0.000 HD
BRANCH  15  18
ATOM     18  C   UNL     1      45.280   4.383  12.588  0.00  0.00    +0.000 A 
ATOM     19  C   UNL     1      44.382   3.435  13.057  0.00  0.00    +0.000 A 
ATOM     20  S   UNL     1      43.414   2.747  11.836  0.00  0.00    +0.000 S 
ATOM     21  C   UNL     1      44.198   3.656  10.629  0.00  0.00    +0.000 A 
ATOM     22  N   UNL     1      43.873   3.497   9.319  0.00  0.00    +0.000 NA
ATOM     23  C   UNL     1      44.567   4.222   8.507  0.00  0.00    +0.000 A 
ATOM     24  N   UNL     1      45.544   5.106   8.890  0.00  0.00    +0.000 N 
ATOM     25  C   UNL     1      45.856   5.349  10.207  0.00  0.00    +0.000 A 
ATOM     26  O   UNL     1      46.647   6.235  10.520  0.00  0.00    +0.000 OA
ATOM     27  C   UNL     1      45.148   4.514  11.159  0.00  0.00    +0.000 A 
ATOM     28  H   UNL     1      46.023   5.673   8.205  0.00  0.00    +0.000 HD
ENDBRANCH  15  18
ENDBRANCH   5  14
BRANCH   1  29
ATOM     29  C   UNL     1      50.818   7.848  16.728  0.00  0.00    +0.000 C 
BRANCH  29  32
ATOM     30  O   UNL     1      50.934   5.023  16.918  0.00  0.00    +0.000 OA
ATOM     31  C   UNL     1      50.326   5.678  17.751  0.00  0.00    +0.000 C 
ATOM     32  N   UNL     1      50.213   7.041  17.762  0.00  0.00    +0.000 N 
ATOM     33  H   UNL     1      49.674   7.488  18.491  0.00  0.00    +0.000 HD
ENDBRANCH  29  32
ENDBRANCH   1  29
TORSDOF 5
ENDMDL
MODEL 7
REMARK VINA RESULT:    -5.292      2.805      4.887
REMARK INTER + INTRA:          -7.984
REMARK INTER:                  -6.468
REMARK INTRA:                  -1.516
REMARK UNBOUND:                -1.145
REMARK  Name = 
REMARK  5 active torsions:
REMARK  status: ('A' for Active; 'I' for Inactive)
REMARK    1  A    between atoms: N_3  and  C_4
REMARK    2  A    between atoms: C_4  and  C_5
REMARK    3  A    between atoms: C_8  and  C_25
REMARK    4  A    between atoms: C_9  and  N_10
REMARK    5  A    between atoms: C_11  and  C_13
REMARK                            x       y       z     vdW  Elec       q    Type
REMARK                         _______ _______ _______ _____ _____    ______ ____
ROOT
ATOM      1  C   UNL     1      46.182   5.766  12.012  0.00  0.00    +0.000 C 
ATOM      2  C   UNL     1      45.480   5.018  12.893  0.00  0.00    +0.000 C 
ATOM      3  C   UNL     1      46.021   4.320  14.048  0.00  0.00    +0.000 C 
ATOM      4  C   UNL     1      46.972   4.813  14.876  0.00  0.00    +0.000 C 
ATOM      5  C   UNL     1      47.514   6.224  14.624  0.00  0.00    +0.000 C 
ATOM      6  C   UNL     1      48.236   6.276  13.304  0.00  0.00    +0.000 C 
ATOM      7  C   UNL     1      47.611   6.050  12.134  0.00  0.00    +0.000 C 
ENDROOT
BRANCH   4   8
ATOM      8  C   UNL     1      47.478   3.900  15.843  0.00  0.00    +0.000 A 
ATOM      9  C   UNL     1      48.577   3.072  15.907  0.00  0.00    +0.000 A 
ATOM     10  N   UNL     1      48.648   2.450  17.129  0.00  0.00    +0.000 NA
ATOM     11  C   UNL     1      47.606   2.887  17.797  0.00  0.00    +0.000 A 
ATOM     12  N   UNL     1      46.853   3.748  17.055  0.00  0.00    +0.000 N 
ATOM     13  H   UNL     1      46.003   4.213  17.351  0.00  0.00    +0.000 HD
ENDBRANCH   4   8
BRANCH   5  14
ATOM     14  N   UNL     1      48.409   6.640  15.675  0.00  0.00    +0.000 N 
ATOM     15  C   UNL     1      48.598   7.964  15.969  0.00  0.00    +0.000 C 
ATOM     16  O   UNL     1      48.030   8.859  15.346  0.00  0.00    +0.000 OA
ATOM     17  H   UNL     1      48.854   5.926  16.240  0.00  0.00    +0.000 HD
BRANCH  15  18
ATOM     18  C   UNL     1      49.469   8.275  17.108  0.00  0.00    +0.000 A 
ATOM     19  C   UNL     1      50.488   9.204  16.951  0.00  0.00    +0.000 A 
ATOM     20  S   UNL     1      51.419   9.442  18.358  0.00  0.00    +0.000 S 
ATOM     21  C   UNL     1      50.523   8.274  19.212  0.00  0.00    +0.000 A 
ATOM     22  N   UNL     1      50.848   7.949  20.491  0.00  0.00    +0.000 NA
ATOM     23  C   UNL     1      50.109   7.025  21.009  0.00  0.00    +0.000 A 
ATOM     24  N   UNL     1      49.062   6.412  20.369  0.00  0.00    +0.000 N 
ATOM     25  C   UNL     1      48.655   6.759  19.102  0.00  0.00    +0.000 A 
ATOM     26  O   UNL     1      47.640   6.278  18.606  0.00  0.00    +0.000 OA
ATOM     27  C   UNL     1      49.491   7.749  18.450  0.00  0.00    +0.000 A 
ATOM     28  H   UNL     1      48.498   5.723  20.846  0.00  0.00    +0.000 HD
ENDBRANCH  15  18
ENDBRANCH   5  14
BRANCH   1  29
ATOM     29  C   UNL     1      45.514   6.356  10.795  0.00  0.00    +0.000 C 
BRANCH  29  32
ATOM     30  O   UNL     1      46.347   5.097   8.397  0.00  0.00    +0.000 OA
ATOM     31  C   UNL     1      45.306   4.767   8.944  0.00  0.00    +0.000 C 
ATOM     32  N   UNL     1      44.814   5.299  10.104  0.00  0.00    +0.000 N 
ATOM     33  H   UNL     1      43.932   4.965  10.468  0.00  0.00    +0.000 HD
ENDBRANCH  29  32
ENDBRANCH   1  29
TORSDOF 5
ENDMDL
MODEL 8
REMARK VINA RESULT:    -5.193      4.421      5.755
REMARK INTER + INTRA:          -7.855
REMARK INTER:                  -6.876
REMARK INTRA:                  -0.980
REMARK UNBOUND:                -1.145
REMARK  Name = 
REMARK  5 active torsions:
REMARK  status: ('A' for Active; 'I' for Inactive)
REMARK    1  A    between atoms: N_3  and  C_4
REMARK    2  A    between atoms: C_4  and  C_5
REMARK    3  A    between atoms: C_8  and  C_25
REMARK    4  A    between atoms: C_9  and  N_10
REMARK    5  A    between atoms: C_11  and  C_13
REMARK                            x       y       z     vdW  Elec       q    Type
REMARK                         _______ _______ _______ _____ _____    ______ ____
ROOT
ATOM      1  C   UNL     1      45.528   6.408  12.108  0.00  0.00    +0.000 C 
ATOM      2  C   UNL     1      45.396   7.735  12.326  0.00  0.00    +0.000 C 
ATOM      3  C   UNL     1      46.189   8.536  13.245  0.00  0.00    +0.000 C 
ATOM      4  C   UNL     1      47.523   8.406  13.433  0.00  0.00    +0.000 C 
ATOM      5  C   UNL     1      48.290   7.371  12.605  0.00  0.00    +0.000 C 
ATOM      6  C   UNL     1      47.822   5.981  12.946  0.00  0.00    +0.000 C 
ATOM      7  C   UNL     1      46.559   5.574  12.723  0.00  0.00    +0.000 C 
ENDROOT
BRANCH   4   8
ATOM      8  C   UNL     1      48.070   9.173  14.499  0.00  0.00    +0.000 A 
ATOM      9  C   UNL     1      48.893  10.276  14.573  0.00  0.00    +0.000 A 
ATOM     10  N   UNL     1      49.052  10.680  15.876  0.00  0.00    +0.000 NA
ATOM     11  C   UNL     1      48.342   9.834  16.585  0.00  0.00    +0.000 A 
ATOM     12  N   UNL     1      47.749   8.888  15.802  0.00  0.00    +0.000 N 
ATOM     13  H   UNL     1      47.156   8.130  16.119  0.00  0.00    +0.000 HD
ENDBRANCH   4   8
BRANCH   5  14
ATOM     14  N   UNL     1      49.711   7.465  12.829  0.00  0.00    +0.000 N 
ATOM     15  C   UNL     1      50.498   8.301  12.084  0.00  0.00    +0.000 C 
ATOM     16  O   UNL     1      50.038   8.999  11.182  0.00  0.00    +0.000 OA
ATOM     17  H   UNL     1      50.113   6.940  13.598  0.00  0.00    +0.000 HD
BRANCH  15  18
ATOM     18  C   UNL     1      51.918   8.379  12.446  0.00  0.00    +0.000 A 
ATOM     19  C   UNL     1      52.276   8.899  13.682  0.00  0.00    +0.000 A 
ATOM     20  S   UNL     1      53.958   8.938  13.946  0.00  0.00    +0.000 S 
ATOM     21  C   UNL     1      54.269   8.307  12.396  0.00  0.00    +0.000 A 
ATOM     22  N   UNL     1      55.544   8.139  11.958  0.00  0.00    +0.000 NA
ATOM     23  C   UNL     1      55.638   7.684  10.753  0.00  0.00    +0.000 A 
ATOM     24  N   UNL     1      54.570   7.366   9.954  0.00  0.00    +0.000 N 
ATOM     25  C   UNL     1      53.266   7.454  10.381  0.00  0.00    +0.000 A 
ATOM     26  O   UNL     1      52.339   7.045   9.686  0.00  0.00    +0.000 OA
ATOM     27  C   UNL     1      53.102   8.019  11.708  0.00  0.00    +0.000 A 
ATOM     28  H   UNL     1      54.713   6.977   9.034  0.00  0.00    +0.000 HD
ENDBRANCH  15  18
ENDBRANCH   5  14
BRANCH   1  29
ATOM     29  C   UNL     1      44.572   5.676  11.199  0.00  0.00    +0.000 C 
BRANCH  29  32
ATOM     30  O   UNL     1      44.227   3.441   9.491  0.00  0.00    +0.000 OA
ATOM     31  C   UNL     1      44.986   4.347   9.184  0.00  0.00    +0.000 C 
ATOM     32  N   UNL     1      45.222   5.472   9.925  0.00  0.00    +0.000 N 
ATOM     33  H   UNL     1      45.883   6.158   9.589  0.00  0.00    +0.000 HD
ENDBRANCH  29  32
ENDBRANCH   1  29
TORSDOF 5
ENDMDL
MODEL 9
REMARK VINA RESULT:    -5.156      3.648      5.787
REMARK INTER + INTRA:          -7.808
REMARK INTER:                  -6.772
REMARK INTRA:                  -1.035
REMARK UNBOUND:                -1.145
REMARK  Name = 
REMARK  5 active torsions:
REMARK  status: ('A' for Active; 'I' for Inactive)
REMARK    1  A    between atoms: N_3  and  C_4
REMARK    2  A    between atoms: C_4  and  C_5
REMARK    3  A    between atoms: C_8  and  C_25
REMARK    4  A    between atoms: C_9  and  N_10
REMARK    5  A    between atoms: C_11  and  C_13
REMARK                            x       y       z     vdW  Elec       q    Type
REMARK                         _______ _______ _______ _____ _____    ______ ____
ROOT
ATOM      1  C   UNL     1      49.903   8.953  11.733  0.00  0.00    +0.000 C 
ATOM      2  C   UNL     1      48.609   8.735  11.406  0.00  0.00    +0.000 C 
ATOM      3  C   UNL     1      47.767   7.661  11.908  0.00  0.00    +0.000 C 
ATOM      4  C   UNL     1      47.757   7.219  13.187  0.00  0.00    +0.000 C 
ATOM      5  C   UNL     1      48.663   7.903  14.216  0.00  0.00    +0.000 C 
ATOM      6  C   UNL     1      50.110   7.691  13.857  0.00  0.00    +0.000 C 
ATOM      7  C   UNL     1      50.644   8.166  12.717  0.00  0.00    +0.000 C 
ENDROOT
BRANCH   4   8
ATOM      8  C   UNL     1      46.982   6.049  13.426  0.00  0.00    +0.000 A 
ATOM      9  C   UNL     1      47.266   4.777  13.872  0.00  0.00    +0.000 A 
ATOM     10  N   UNL     1      46.115   4.040  14.008  0.00  0.00    +0.000 NA
ATOM     11  C   UNL     1      45.146   4.848  13.646  0.00  0.00    +0.000 A 
ATOM     12  N   UNL     1      45.620   6.067  13.261  0.00  0.00    +0.000 N 
ATOM     13  H   UNL     1      45.068   6.854  12.939  0.00  0.00    +0.000 HD
ENDBRANCH   4   8
BRANCH   5  14
ATOM     14  N   UNL     1      48.423   7.402  15.546  0.00  0.00    +0.000 N 
ATOM     15  C   UNL     1      48.825   8.099  16.654  0.00  0.00    +0.000 C 
ATOM     16  O   UNL     1      49.419   9.172  16.571  0.00  0.00    +0.000 OA
ATOM     17  H   UNL     1      47.891   6.545  15.650  0.00  0.00    +0.000 HD
BRANCH  15  18
ATOM     18  C   UNL     1      48.460   7.539  17.961  0.00  0.00    +0.000 A 
ATOM     19  C   UNL     1      47.846   8.353  18.901  0.00  0.00    +0.000 A 
ATOM     20  S   UNL     1      47.502   7.562  20.370  0.00  0.00    +0.000 S 
ATOM     21  C   UNL     1      48.210   6.116  19.818  0.00  0.00    +0.000 A 
ATOM     22  N   UNL     1      48.294   5.030  20.630  0.00  0.00    +0.000 NA
ATOM     23  C   UNL     1      48.883   4.012  20.098  0.00  0.00    +0.000 A 
ATOM     24  N   UNL     1      49.378   3.976  18.819  0.00  0.00    +0.000 N 
ATOM     25  C   UNL     1      49.252   5.027  17.941  0.00  0.00    +0.000 A 
ATOM     26  O   UNL     1      49.595   4.919  16.766  0.00  0.00    +0.000 OA
ATOM     27  C   UNL     1      48.652   6.220  18.509  0.00  0.00    +0.000 A 
ATOM     28  H   UNL     1      49.793   3.133  18.450  0.00  0.00    +0.000 HD
ENDBRANCH  15  18
ENDBRANCH   5  14
BRANCH   1  29
ATOM     29  C   UNL     1      50.695  10.048  11.061  0.00  0.00    +0.000 C 
BRANCH  29  32
ATOM     30  O   UNL     1      52.418  10.101   8.812  0.00  0.00    +0.000 OA
ATOM     31  C   UNL     1      52.825   9.718   9.898  0.00  0.00    +0.000 C 
ATOM     32  N   UNL     1      52.086   9.658  11.047  0.00  0.00    +0.000 N 
ATOM     33  H   UNL     1      52.514   9.310  11.895  0.00  0.00    +0.000 HD
ENDBRANCH  29  32
ENDBRANCH   1  29
TORSDOF 5
ENDMDL
