MODEL 1
REMARK VINA RESULT:    -8.261      0.000      0.000
REMARK INTER + INTRA:         -12.418
REMARK INTER:                 -11.882
REMARK INTRA:                  -0.535
REMARK UNBOUND:                -0.535
REMARK  Name = 
REMARK  8 active torsions:
REMARK  status: ('A' for Active; 'I' for Inactive)
REMARK    1  A    between atoms: N_1  and  C_2
REMARK    2  A    between atoms: C_2  and  C_3
REMARK    3  A    between atoms: C_3  and  N_4
REMARK    4  A    between atoms: C_3  and  C_17
REMARK    5  A    between atoms: C_5  and  C_7
REMARK    6  A    between atoms: C_20  and  O_21
REMARK    7  A    between atoms: O_21  and  C_22
REMARK    8  A    between atoms: C_22  and  C_23
REMARK                            x       y       z     vdW  Elec       q    Type
REMARK                         _______ _______ _______ _____ _____    ______ ____
ROOT
ATOM      1  C   UNL     1      46.646   8.173  13.093  0.00  0.00    +0.000 C 
ENDROOT
BRANCH   1   2
ATOM      2  C   UNL     1      46.014   7.021  12.333  0.00  0.00    +0.000 A 
ATOM      3  C   UNL     1      46.384   6.766  11.002  0.00  0.00    +0.000 A 
ATOM      4  C   UNL     1      45.833   5.687  10.305  0.00  0.00    +0.000 A 
ATOM      5  C   UNL     1      44.911   4.849  10.932  0.00  0.00    +0.000 A 
ATOM      6  C   UNL     1      44.478   5.145  12.222  0.00  0.00    +0.000 A 
ATOM      7  C   UNL     1      45.021   6.222  12.913  0.00  0.00    +0.000 A 
BRANCH   5   8
ATOM      8  O   UNL     1      44.495   3.765  10.208  0.00  0.00    +0.000 OA
BRANCH   8   9
ATOM      9  C   UNL     1      44.498   3.974   8.791  0.00  0.00    +0.000 C 
BRANCH   9  10
ATOM     10  C   UNL     1      45.508   3.065   8.139  0.00  0.00    +0.000 A 
ATOM     11  C   UNL     1      46.392   3.579   7.192  0.00  0.00    +0.000 A 
ATOM     12  C   UNL     1      47.343   2.732   6.637  0.00  0.00    +0.000 A 
ATOM     13  C   UNL     1      47.389   1.405   7.042  0.00  0.00    +0.000 A 
ATOM     14  C   UNL     1      46.480   0.976   7.995  0.00  0.00    +0.000 A 
ATOM     15  N   UNL     1      45.547   1.771   8.556  0.00  0.00    +0.000 NA
ENDBRANCH   9  10
ENDBRANCH   8   9
ENDBRANCH   5   8
ENDBRANCH   1   2
BRANCH   1  16
ATOM     16  N   UNL     1      47.226   7.641  14.315  0.00  0.00    +0.000 N 
ATOM     17  C   UNL     1      48.285   6.775  14.309  0.00  0.00    +0.000 C 
ATOM     18  O   UNL     1      48.871   6.462  13.277  0.00  0.00    +0.000 OA
ATOM     19  H   UNL     1      46.679   7.763  15.160  0.00  0.00    +0.000 HD
BRANCH  17  20
ATOM     20  C   UNL     1      48.709   6.265  15.615  0.00  0.00    +0.000 A 
ATOM     21  C   UNL     1      49.704   6.923  16.323  0.00  0.00    +0.000 A 
ATOM     22  S   UNL     1      50.106   6.170  17.798  0.00  0.00    +0.000 S 
ATOM     23  C   UNL     1      48.982   4.921  17.529  0.00  0.00    +0.000 A 
ATOM     24  N   UNL     1      48.854   3.895  18.409  0.00  0.00    +0.000 NA
ATOM     25  C   UNL     1      47.981   3.003  18.071  0.00  0.00    +0.000 A 
ATOM     26  N   UNL     1      47.214   3.057  16.938  0.00  0.00    +0.000 N 
ATOM     27  C   UNL     1      47.278   4.096  16.037  0.00  0.00    +0.000 A 
ATOM     28  O   UNL     1      46.524   4.152  15.072  0.00  0.00    +0.000 OA
ATOM     29  C   UNL     1      48.277   5.100  16.352  0.00  0.00    +0.000 A 
ATOM     30  H   UNL     1      46.525   2.344  16.747  0.00  0.00    +0.000 HD
ENDBRANCH  17  20
ENDBRANCH   1  16
BRANCH   1  31
ATOM     31  C   UNL     1      47.716   8.975  12.286  0.00  0.00    +0.000 C 
BRANCH  31  32
ATOM     32  N   UNL     1      47.262  10.289  11.814  0.00  0.00    +0.000 NA
ATOM     33  H   UNL     1      46.465  10.169  11.192  0.00  0.00    +0.000 HD
ATOM     34  H   UNL     1      48.000  10.719  11.258  0.00  0.00    +0.000 HD
ENDBRANCH  31  32
ENDBRANCH   1  31
TORSDOF 8
ENDMDL
MODEL 2
REMARK VINA RESULT:    -8.113      4.543      8.546
REMARK INTER + INTRA:         -12.206
REMARK INTER:                 -11.149
REMARK INTRA:                  -1.057
REMARK UNBOUND:                -0.535
REMARK  Name = 
REMARK  8 active torsions:
REMARK  status: ('A' for Active; 'I' for Inactive)
REMARK    1  A    between atoms: N_1  and  C_2
REMARK    2  A    between atoms: C_2  and  C_3
REMARK    3  A    between atoms: C_3  and  N_4
REMARK    4  A    between atoms: C_3  and  C_17
REMARK    5  A    between atoms: C_5  and  C_7
REMARK    6  A    between atoms: C_20  and  O_21
REMARK    7  A    between atoms: O_21  and  C_22
REMARK    8  A    between atoms: C_22  and  C_23
REMARK                            x       y       z     vdW  Elec       q    Type
REMARK                         _______ _______ _______ _____ _____    ______ ____
ROOT
ATOM      1  C   UNL     1      48.696   5.704  17.283  0.00  0.00    +0.000 C 
ENDROOT
BRANCH   1   2
ATOM      2  C   UNL     1      49.475   4.401  17.296  0.00  0.00    +0.000 A 
ATOM      3  C   UNL     1      50.849   4.403  17.589  0.00  0.00    +0.000 A 
ATOM      4  C   UNL     1      51.567   3.205  17.637  0.00  0.00    +0.000 A 
ATOM      5  C   UNL     1      50.919   1.992  17.397  0.00  0.00    +0.000 A 
ATOM      6  C   UNL     1      49.578   1.991  17.024  0.00  0.00    +0.000 A 
ATOM      7  C   UNL     1      48.864   3.184  16.970  0.00  0.00    +0.000 A 
BRANCH   5   8
ATOM      8  O   UNL     1      51.677   0.865  17.557  0.00  0.00    +0.000 OA
BRANCH   8   9
ATOM      9  C   UNL     1      53.060   1.124  17.827  0.00  0.00    +0.000 C 
BRANCH   9  10
ATOM     10  C   UNL     1      53.845  -0.161  17.769  0.00  0.00    +0.000 A 
ATOM     11  C   UNL     1      54.583  -0.471  16.628  0.00  0.00    +0.000 A 
ATOM     12  C   UNL     1      55.334  -1.639  16.614  0.00  0.00    +0.000 A 
ATOM     13  C   UNL     1      55.332  -2.460  17.734  0.00  0.00    +0.000 A 
ATOM     14  C   UNL     1      54.579  -2.075  18.831  0.00  0.00    +0.000 A 
ATOM     15  N   UNL     1      53.842  -0.947  18.879  0.00  0.00    +0.000 NA
ENDBRANCH   9  10
ENDBRANCH   8   9
ENDBRANCH   5   8
ENDBRANCH   1   2
BRANCH   1  16
ATOM     16  N   UNL     1      47.855   5.713  16.098  0.00  0.00    +0.000 N 
ATOM     17  C   UNL     1      48.284   6.205  14.897  0.00  0.00    +0.000 C 
ATOM     18  O   UNL     1      49.437   6.586  14.717  0.00  0.00    +0.000 OA
ATOM     19  H   UNL     1      46.867   5.544  16.249  0.00  0.00    +0.000 HD
BRANCH  17  20
ATOM     20  C   UNL     1      47.297   6.218  13.814  0.00  0.00    +0.000 A 
ATOM     21  C   UNL     1      46.922   7.423  13.238  0.00  0.00    +0.000 A 
ATOM     22  S   UNL     1      45.733   7.260  12.027  0.00  0.00    +0.000 S 
ATOM     23  C   UNL     1      45.659   5.574  12.251  0.00  0.00    +0.000 A 
ATOM     24  N   UNL     1      44.783   4.814  11.544  0.00  0.00    +0.000 NA
ATOM     25  C   UNL     1      44.815   3.554  11.829  0.00  0.00    +0.000 A 
ATOM     26  N   UNL     1      45.658   2.986  12.747  0.00  0.00    +0.000 N 
ATOM     27  C   UNL     1      46.590   3.708  13.457  0.00  0.00    +0.000 A 
ATOM     28  O   UNL     1      47.381   3.158  14.216  0.00  0.00    +0.000 OA
ATOM     29  C   UNL     1      46.561   5.136  13.204  0.00  0.00    +0.000 A 
ATOM     30  H   UNL     1      45.657   1.987  12.900  0.00  0.00    +0.000 HD
ENDBRANCH  17  20
ENDBRANCH   1  16
BRANCH   1  31
ATOM     31  C   UNL     1      47.838   5.961  18.563  0.00  0.00    +0.000 C 
BRANCH  31  32
ATOM     32  N   UNL     1      46.483   5.399  18.509  0.00  0.00    +0.000 NA
ATOM     33  H   UNL     1      45.810   6.113  18.784  0.00  0.00    +0.000 HD
ATOM     34  H   UNL     1      46.403   4.649  19.194  0.00  0.00    +0.000 HD
ENDBRANCH  31  32
ENDBRANCH   1  31
TORSDOF 8
ENDMDL
MODEL 3
REMARK VINA RESULT:    -8.097      2.608      3.715
REMARK INTER + INTRA:         -12.183
REMARK INTER:                 -10.672
REMARK INTRA:                  -1.510
REMARK UNBOUND:                -0.535
REMARK  Name = 
REMARK  8 active torsions:
REMARK  status: ('A' for Active; 'I' for Inactive)
REMARK    1  A    between atoms: N_1  and  C_2
REMARK    2  A    between atoms: C_2  and  C_3
REMARK    3  A    between atoms: C_3  and  N_4
REMARK    4  A    between atoms: C_3  and  C_17
REMARK    5  A    between atoms: C_5  and  C_7
REMARK    6  A    between atoms: C_20  and  O_21
REMARK    7  A    between atoms: O_21  and  C_22
REMARK    8  A    between atoms: C_22  and  C_23
REMARK                            x       y       z     vdW  Elec       q    Type
REMARK                         _______ _______ _______ _____ _____    ______ ____
ROOT
ATOM      1  C   UNL     1      47.865   4.602  15.079  0.00  0.00    +0.000 C 
ENDROOT
BRANCH   1   2
ATOM      2  C   UNL     1      46.976   4.766  13.858  0.00  0.00    +0.000 A 
ATOM      3  C   UNL     1      47.022   5.951  13.106  0.00  0.00    +0.000 A 
ATOM      4  C   UNL     1      46.233   6.098  11.962  0.00  0.00    +0.000 A 
ATOM      5  C   UNL     1      45.394   5.059  11.554  0.00  0.00    +0.000 A 
ATOM      6  C   UNL     1      45.282   3.917  12.342  0.00  0.00    +0.000 A 
ATOM      7  C   UNL     1      46.063   3.773  13.484  0.00  0.00    +0.000 A 
BRANCH   5   8
ATOM      8  O   UNL     1      44.730   5.251  10.374  0.00  0.00    +0.000 OA
BRANCH   8   9
ATOM      9  C   UNL     1      44.198   4.050   9.802  0.00  0.00    +0.000 C 
BRANCH   9  10
ATOM     10  C   UNL     1      45.207   3.436   8.865  0.00  0.00    +0.000 A 
ATOM     11  C   UNL     1      45.437   2.062   8.901  0.00  0.00    +0.000 A 
ATOM     12  C   UNL     1      46.339   1.511   7.999  0.00  0.00    +0.000 A 
ATOM     13  C   UNL     1      46.980   2.341   7.089  0.00  0.00    +0.000 A 
ATOM     14  C   UNL     1      46.688   3.695   7.114  0.00  0.00    +0.000 A 
ATOM     15  N   UNL     1      45.817   4.261   7.973  0.00  0.00    +0.000 NA
ENDBRANCH   9  10
ENDBRANCH   8   9
ENDBRANCH   5   8
ENDBRANCH   1   2
BRANCH   1  16
ATOM     16  N   UNL     1      47.743   5.803  15.888  0.00  0.00    +0.000 N 
ATOM     17  C   UNL     1      48.823   6.559  16.249  0.00  0.00    +0.000 C 
ATOM     18  O   UNL     1      49.956   6.323  15.838  0.00  0.00    +0.000 OA
ATOM     19  H   UNL     1      46.854   5.937  16.357  0.00  0.00    +0.000 HD
BRANCH  17  20
ATOM     20  C   UNL     1      48.550   7.697  17.131  0.00  0.00    +0.000 A 
ATOM     21  C   UNL     1      48.746   8.990  16.667  0.00  0.00    +0.000 A 
ATOM     22  S   UNL     1      48.426  10.189  17.836  0.00  0.00    +0.000 S 
ATOM     23  C   UNL     1      48.040   9.019  19.010  0.00  0.00    +0.000 A 
ATOM     24  N   UNL     1      47.718   9.383  20.278  0.00  0.00    +0.000 NA
ATOM     25  C   UNL     1      47.471   8.394  21.073  0.00  0.00    +0.000 A 
ATOM     26  N   UNL     1      47.502   7.075  20.707  0.00  0.00    +0.000 N 
ATOM     27  C   UNL     1      47.783   6.660  19.424  0.00  0.00    +0.000 A 
ATOM     28  O   UNL     1      47.728   5.475  19.110  0.00  0.00    +0.000 OA
ATOM     29  C   UNL     1      48.111   7.733  18.506  0.00  0.00    +0.000 A 
ATOM     30  H   UNL     1      47.266   6.350  21.368  0.00  0.00    +0.000 HD
ENDBRANCH  17  20
ENDBRANCH   1  16
BRANCH   1  31
ATOM     31  C   UNL     1      47.563   3.333  15.937  0.00  0.00    +0.000 C 
BRANCH  31  32
ATOM     32  N   UNL     1      46.741   3.585  17.127  0.00  0.00    +0.000 NA
ATOM     33  H   UNL     1      46.813   4.568  17.386  0.00  0.00    +0.000 HD
ATOM     34  H   UNL     1      47.115   3.052  17.911  0.00  0.00    +0.000 HD
ENDBRANCH  31  32
ENDBRANCH   1  31
TORSDOF 8
ENDMDL
MODEL 4
REMARK VINA RESULT:    -7.891      2.711      4.362
REMARK INTER + INTRA:         -11.886
REMARK INTER:                 -10.717
REMARK INTRA:                  -1.169
REMARK UNBOUND:                -0.535
REMARK  Name = 
REMARK  8 active torsions:
REMARK  status: ('A' for Active; 'I' for Inactive)
REMARK    1  A    between atoms: N_1  and  C_2
REMARK    2  A    between atoms: C_2  and  C_3
REMARK    3  A    between atoms: C_3  and  N_4
REMARK    4  A    between atoms: C_3  and  C_17
REMARK    5  A    between atoms: C_5  and  C_7
REMARK    6  A    between atoms: C_20  and  O_21
REMARK    7  A    between atoms: O_21  and  C_22
REMARK    8  A    between atoms: C_22  and  C_23
REMARK                            x       y       z     vdW  Elec       q    Type
REMARK                         _______ _______ _______ _____ _____    ______ ____
ROOT
ATOM      1  C   UNL     1      47.921   4.573  15.549  0.00  0.00    +0.000 C 
ENDROOT
BRANCH   1   2
ATOM      2  C   UNL     1      47.130   4.912  14.297  0.00  0.00    +0.000 A 
ATOM      3  C   UNL     1      47.502   6.009  13.502  0.00  0.00    +0.000 A 
ATOM      4  C   UNL     1      46.802   6.308  12.330  0.00  0.00    +0.000 A 
ATOM      5  C   UNL     1      45.725   5.511  11.938  0.00  0.00    +0.000 A 
ATOM      6  C   UNL     1      45.300   4.475  12.765  0.00  0.00    +0.000 A 
ATOM      7  C   UNL     1      45.993   4.181  13.934  0.00  0.00    +0.000 A 
BRANCH   5   8
ATOM      8  O   UNL     1      45.158   5.819  10.732  0.00  0.00    +0.000 OA
BRANCH   8   9
ATOM      9  C   UNL     1      44.320   4.786  10.200  0.00  0.00    +0.000 C 
BRANCH   9  10
ATOM     10  C   UNL     1      45.114   3.912   9.263  0.00  0.00    +0.000 A 
ATOM     11  C   UNL     1      45.103   2.529   9.431  0.00  0.00    +0.000 A 
ATOM     12  C   UNL     1      45.806   1.740   8.529  0.00  0.00    +0.000 A 
ATOM     13  C   UNL     1      46.493   2.349   7.487  0.00  0.00    +0.000 A 
ATOM     14  C   UNL     1      46.445   3.730   7.386  0.00  0.00    +0.000 A 
ATOM     15  N   UNL     1      45.771   4.524   8.241  0.00  0.00    +0.000 NA
ENDBRANCH   9  10
ENDBRANCH   8   9
ENDBRANCH   5   8
ENDBRANCH   1   2
BRANCH   1  16
ATOM     16  N   UNL     1      47.721   5.645  16.509  0.00  0.00    +0.000 N 
ATOM     17  C   UNL     1      48.761   6.253  17.157  0.00  0.00    +0.000 C 
ATOM     18  O   UNL     1      49.934   5.996  16.903  0.00  0.00    +0.000 OA
ATOM     19  H   UNL     1      46.773   5.775  16.844  0.00  0.00    +0.000 HD
BRANCH  17  20
ATOM     20  C   UNL     1      48.398   7.264  18.155  0.00  0.00    +0.000 A 
ATOM     21  C   UNL     1      48.206   6.889  19.477  0.00  0.00    +0.000 A 
ATOM     22  S   UNL     1      47.744   8.179  20.491  0.00  0.00    +0.000 S 
ATOM     23  C   UNL     1      47.758   9.278  19.192  0.00  0.00    +0.000 A 
ATOM     24  N   UNL     1      47.401  10.576  19.371  0.00  0.00    +0.000 NA
ATOM     25  C   UNL     1      47.433  11.294  18.297  0.00  0.00    +0.000 A 
ATOM     26  N   UNL     1      47.806  10.832  17.063  0.00  0.00    +0.000 N 
ATOM     27  C   UNL     1      48.215   9.536  16.840  0.00  0.00    +0.000 A 
ATOM     28  O   UNL     1      48.616   9.174  15.739  0.00  0.00    +0.000 OA
ATOM     29  C   UNL     1      48.153   8.679  18.008  0.00  0.00    +0.000 A 
ATOM     30  H   UNL     1      47.842  11.454  16.269  0.00  0.00    +0.000 HD
ENDBRANCH  17  20
ENDBRANCH   1  16
BRANCH   1  31
ATOM     31  C   UNL     1      47.565   3.194  16.188  0.00  0.00    +0.000 C 
BRANCH  31  32
ATOM     32  N   UNL     1      46.710   3.278  17.378  0.00  0.00    +0.000 NA
ATOM     33  H   UNL     1      47.239   2.980  18.197  0.00  0.00    +0.000 HD
ATOM     34  H   UNL     1      45.936   2.622  17.282  0.00  0.00    +0.000 HD
ENDBRANCH  31  32
ENDBRANCH   1  31
TORSDOF 8
ENDMDL
MODEL 5
REMARK VINA RESULT:    -7.819      2.074      2.410
REMARK INTER + INTRA:         -11.783
REMARK INTER:                 -10.998
REMARK INTRA:                  -0.785
REMARK UNBOUND:                -0.535
REMARK  Name = 
REMARK  8 active torsions:
REMARK  status: ('A' for Active; 'I' for Inactive)
REMARK    1  A    between atoms: N_1  and  C_2
REMARK    2  A    between atoms: C_2  and  C_3
REMARK    3  A    between atoms: C_3  and  N_4
REMARK    4  A    between atoms: C_3  and  C_17
REMARK    5  A    between atoms: C_5  and  C_7
REMARK    6  A    between atoms: C_20  and  O_21
REMARK    7  A    between atoms: O_21  and  C_22
REMARK    8  A    between atoms: C_22  and  C_23
REMARK                            x       y       z     vdW  Elec       q    Type
REMARK                         _______ _______ _______ _____ _____    ______ ____
ROOT
ATOM      1  C   UNL     1      47.722   6.793  13.538  0.00  0.00    +0.000 C 
ENDROOT
BRANCH   1   2
ATOM      2  C   UNL     1      46.766   5.958  12.704  0.00  0.00    +0.000 A 
ATOM      3  C   UNL     1      46.299   6.442  11.470  0.00  0.00    +0.000 A 
ATOM      4  C   UNL     1      45.446   5.667  10.680  0.00  0.00    +0.000 A 
ATOM      5  C   UNL     1      45.055   4.398  11.111  0.00  0.00    +0.000 A 
ATOM      6  C   UNL     1      45.447   3.949  12.369  0.00  0.00    +0.000 A 
ATOM      7  C   UNL     1      46.290   4.723  13.159  0.00  0.00    +0.000 A 
BRANCH   5   8
ATOM      8  O   UNL     1      44.298   3.673  10.233  0.00  0.00    +0.000 OA
BRANCH   8   9
ATOM      9  C   UNL     1      44.481   4.042   8.861  0.00  0.00    +0.000 C 
BRANCH   9  10
ATOM     10  C   UNL     1      45.490   3.128   8.213  0.00  0.00    +0.000 A 
ATOM     11  C   UNL     1      46.423   3.651   7.319  0.00  0.00    +0.000 A 
ATOM     12  C   UNL     1      47.371   2.798   6.767  0.00  0.00    +0.000 A 
ATOM     13  C   UNL     1      47.365   1.457   7.124  0.00  0.00    +0.000 A 
ATOM     14  C   UNL     1      46.410   1.020   8.027  0.00  0.00    +0.000 A 
ATOM     15  N   UNL     1      45.478   1.820   8.582  0.00  0.00    +0.000 NA
ENDBRANCH   9  10
ENDBRANCH   8   9
ENDBRANCH   5   8
ENDBRANCH   1   2
BRANCH   1  16
ATOM     16  N   UNL     1      47.842   6.167  14.844  0.00  0.00    +0.000 N 
ATOM     17  C   UNL     1      48.628   6.683  15.836  0.00  0.00    +0.000 C 
ATOM     18  O   UNL     1      49.213   7.757  15.720  0.00  0.00    +0.000 OA
ATOM     19  H   UNL     1      47.495   5.217  14.919  0.00  0.00    +0.000 HD
BRANCH  17  20
ATOM     20  C   UNL     1      48.709   5.899  17.071  0.00  0.00    +0.000 A 
ATOM     21  C   UNL     1      49.169   4.591  17.028  0.00  0.00    +0.000 A 
ATOM     22  S   UNL     1      49.154   3.811  18.544  0.00  0.00    +0.000 S 
ATOM     23  C   UNL     1      48.506   5.188  19.306  0.00  0.00    +0.000 A 
ATOM     24  N   UNL     1      48.200   5.174  20.629  0.00  0.00    +0.000 NA
ATOM     25  C   UNL     1      47.692   6.276  21.074  0.00  0.00    +0.000 A 
ATOM     26  N   UNL     1      47.481   7.397  20.315  0.00  0.00    +0.000 N 
ATOM     27  C   UNL     1      47.814   7.473  18.981  0.00  0.00    +0.000 A 
ATOM     28  O   UNL     1      47.682   8.515  18.348  0.00  0.00    +0.000 OA
ATOM     29  C   UNL     1      48.345   6.243  18.426  0.00  0.00    +0.000 A 
ATOM     30  H   UNL     1      47.112   8.240  20.731  0.00  0.00    +0.000 HD
ENDBRANCH  17  20
ENDBRANCH   1  16
BRANCH   1  31
ATOM     31  C   UNL     1      49.132   6.998  12.900  0.00  0.00    +0.000 C 
BRANCH  31  32
ATOM     32  N   UNL     1      49.498   8.402  12.673  0.00  0.00    +0.000 NA
ATOM     33  H   UNL     1      49.154   8.698  11.760  0.00  0.00    +0.000 HD
ATOM     34  H   UNL     1      50.513   8.482  12.638  0.00  0.00    +0.000 HD
ENDBRANCH  31  32
ENDBRANCH   1  31
TORSDOF 8
ENDMDL
MODEL 6
REMARK VINA RESULT:    -7.761      2.084      2.843
REMARK INTER + INTRA:         -11.699
REMARK INTER:                 -10.600
REMARK INTRA:                  -1.099
REMARK UNBOUND:                -0.535
REMARK  Name = 
REMARK  8 active torsions:
REMARK  status: ('A' for Active; 'I' for Inactive)
REMARK    1  A    between atoms: N_1  and  C_2
REMARK    2  A    between atoms: C_2  and  C_3
REMARK    3  A    between atoms: C_3  and  N_4
REMARK    4  A    between atoms: C_3  and  C_17
REMARK    5  A    between atoms: C_5  and  C_7
REMARK    6  A    between atoms: C_20  and  O_21
REMARK    7  A    between atoms: O_21  and  C_22
REMARK    8  A    between atoms: C_22  and  C_23
REMARK                            x       y       z     vdW  Elec       q    Type
REMARK                         _______ _______ _______ _____ _____    ______ ____
ROOT
ATOM      1  C   UNL     1      48.045   6.974  13.599  0.00  0.00    +0.000 C 
ENDROOT
BRANCH   1   2
ATOM      2  C   UNL     1      47.010   6.160  12.843  0.00  0.00    +0.000 A 
ATOM      3  C   UNL     1      46.540   6.601  11.594  0.00  0.00    +0.000 A 
ATOM      4  C   UNL     1      45.613   5.841  10.875  0.00  0.00    +0.000 A 
ATOM      5  C   UNL     1      45.150   4.631  11.393  0.00  0.00    +0.000 A 
ATOM      6  C   UNL     1      45.547   4.231  12.667  0.00  0.00    +0.000 A 
ATOM      7  C   UNL     1      46.465   4.990  13.385  0.00  0.00    +0.000 A 
BRANCH   5   8
ATOM      8  O   UNL     1      44.319   3.909  10.582  0.00  0.00    +0.000 OA
BRANCH   8   9
ATOM      9  C   UNL     1      44.369   4.296   9.203  0.00  0.00    +0.000 C 
BRANCH   9  10
ATOM     10  C   UNL     1      45.331   3.409   8.455  0.00  0.00    +0.000 A 
ATOM     11  C   UNL     1      45.438   2.062   8.796  0.00  0.00    +0.000 A 
ATOM     12  C   UNL     1      46.299   1.253   8.064  0.00  0.00    +0.000 A 
ATOM     13  C   UNL     1      47.022   1.807   7.016  0.00  0.00    +0.000 A 
ATOM     14  C   UNL     1      46.850   3.153   6.736  0.00  0.00    +0.000 A 
ATOM     15  N   UNL     1      46.022   3.964   7.424  0.00  0.00    +0.000 NA
ENDBRANCH   9  10
ENDBRANCH   8   9
ENDBRANCH   5   8
ENDBRANCH   1   2
BRANCH   1  16
ATOM     16  N   UNL     1      48.436   6.220  14.778  0.00  0.00    +0.000 N 
ATOM     17  C   UNL     1      48.742   6.823  15.967  0.00  0.00    +0.000 C 
ATOM     18  O   UNL     1      48.620   8.031  16.141  0.00  0.00    +0.000 OA
ATOM     19  H   UNL     1      48.685   5.249  14.626  0.00  0.00    +0.000 HD
BRANCH  17  20
ATOM     20  C   UNL     1      49.194   5.936  17.042  0.00  0.00    +0.000 A 
ATOM     21  C   UNL     1      48.262   5.311  17.858  0.00  0.00    +0.000 A 
ATOM     22  S   UNL     1      48.959   4.354  19.084  0.00  0.00    +0.000 S 
ATOM     23  C   UNL     1      50.534   4.765  18.584  0.00  0.00    +0.000 A 
ATOM     24  N   UNL     1      51.621   4.309  19.257  0.00  0.00    +0.000 NA
ATOM     25  C   UNL     1      52.754   4.716  18.785  0.00  0.00    +0.000 A 
ATOM     26  N   UNL     1      52.894   5.525  17.689  0.00  0.00    +0.000 N 
ATOM     27  C   UNL     1      51.824   5.978  16.950  0.00  0.00    +0.000 A 
ATOM     28  O   UNL     1      51.987   6.639  15.930  0.00  0.00    +0.000 OA
ATOM     29  C   UNL     1      50.528   5.584  17.469  0.00  0.00    +0.000 A 
ATOM     30  H   UNL     1      53.810   5.780  17.350  0.00  0.00    +0.000 HD
ENDBRANCH  17  20
ENDBRANCH   1  16
BRANCH   1  31
ATOM     31  C   UNL     1      49.302   7.366  12.760  0.00  0.00    +0.000 C 
BRANCH  31  32
ATOM     32  N   UNL     1      50.512   7.610  13.555  0.00  0.00    +0.000 NA
ATOM     33  H   UNL     1      51.173   8.157  13.007  0.00  0.00    +0.000 HD
ATOM     34  H   UNL     1      50.969   6.720  13.752  0.00  0.00    +0.000 HD
ENDBRANCH  31  32
ENDBRANCH   1  31
TORSDOF 8
ENDMDL
MODEL 7
REMARK VINA RESULT:    -7.367      2.181      2.687
REMARK INTER + INTRA:         -11.133
REMARK INTER:                  -9.759
REMARK INTRA:                  -1.373
REMARK UNBOUND:                -0.535
REMARK  Name = 
REMARK  8 active torsions:
REMARK  status: ('A' for Active; 'I' for Inactive)
REMARK    1  A    between atoms: N_1  and  C_2
REMARK    2  A    between atoms: C_2  and  C_3
REMARK    3  A    between atoms: C_3  and  N_4
REMARK    4  A    between atoms: C_3  and  C_17
REMARK    5  A    between atoms: C_5  and  C_7
REMARK    6  A    between atoms: C_20  and  O_21
REMARK    7  A    between atoms: O_21  and  C_22
REMARK    8  A    between atoms: C_22  and  C_23
REMARK                            x       y       z     vdW  Elec       q    Type
REMARK                         _______ _______ _______ _____ _____    ______ ____
ROOT
ATOM      1  C   UNL     1      48.883   7.828  12.768  0.00  0.00    +0.000 C 
ENDROOT
BRANCH   1   2
ATOM      2  C   UNL     1      47.587   7.042  12.670  0.00  0.00    +0.000 A 
ATOM      3  C   UNL     1      46.449   7.626  12.089  0.00  0.00    +0.000 A 
ATOM      4  C   UNL     1      45.263   6.899  11.963  0.00  0.00    +0.000 A 
ATOM      5  C   UNL     1      45.202   5.579  12.413  0.00  0.00    +0.000 A 
ATOM      6  C   UNL     1      46.299   5.023  13.065  0.00  0.00    +0.000 A 
ATOM      7  C   UNL     1      47.479   5.749  13.195  0.00  0.00    +0.000 A 
BRANCH   5   8
ATOM      8  O   UNL     1      44.033   4.913  12.165  0.00  0.00    +0.000 OA
BRANCH   8   9
ATOM      9  C   UNL     1      43.531   5.092  10.835  0.00  0.00    +0.000 C 
BRANCH   9  10
ATOM     10  C   UNL     1      44.247   4.165   9.886  0.00  0.00    +0.000 A 
ATOM     11  C   UNL     1      45.171   4.682   8.979  0.00  0.00    +0.000 A 
ATOM     12  C   UNL     1      45.851   3.804   8.144  0.00  0.00    +0.000 A 
ATOM     13  C   UNL     1      45.596   2.442   8.240  0.00  0.00    +0.000 A 
ATOM     14  C   UNL     1      44.670   2.010   9.175  0.00  0.00    +0.000 A 
ATOM     15  N   UNL     1      43.995   2.834  10.001  0.00  0.00    +0.000 NA
ENDBRANCH   9  10
ENDBRANCH   8   9
ENDBRANCH   5   8
ENDBRANCH   1   2
BRANCH   1  16
ATOM     16  N   UNL     1      49.720   7.192  13.771  0.00  0.00    +0.000 N 
ATOM     17  C   UNL     1      50.270   7.883  14.815  0.00  0.00    +0.000 C 
ATOM     18  O   UNL     1      50.018   9.066  15.024  0.00  0.00    +0.000 OA
ATOM     19  H   UNL     1      50.060   6.264  13.546  0.00  0.00    +0.000 HD
BRANCH  17  20
ATOM     20  C   UNL     1      51.154   7.121  15.700  0.00  0.00    +0.000 A 
ATOM     21  C   UNL     1      52.521   7.356  15.678  0.00  0.00    +0.000 A 
ATOM     22  S   UNL     1      53.404   6.352  16.735  0.00  0.00    +0.000 S 
ATOM     23  C   UNL     1      51.991   5.549  17.239  0.00  0.00    +0.000 A 
ATOM     24  N   UNL     1      52.050   4.518  18.122  0.00  0.00    +0.000 NA
ATOM     25  C   UNL     1      50.907   3.983  18.400  0.00  0.00    +0.000 A 
ATOM     26  N   UNL     1      49.708   4.400  17.886  0.00  0.00    +0.000 N 
ATOM     27  C   UNL     1      49.592   5.465  17.021  0.00  0.00    +0.000 A 
ATOM     28  O   UNL     1      48.496   5.860  16.638  0.00  0.00    +0.000 OA
ATOM     29  C   UNL     1      50.855   6.070  16.644  0.00  0.00    +0.000 A 
ATOM     30  H   UNL     1      48.844   3.960  18.170  0.00  0.00    +0.000 HD
ENDBRANCH  17  20
ENDBRANCH   1  16
BRANCH   1  31
ATOM     31  C   UNL     1      49.659   7.972  11.421  0.00  0.00    +0.000 C 
BRANCH  31  32
ATOM     32  N   UNL     1      50.938   7.252  11.375  0.00  0.00    +0.000 NA
ATOM     33  H   UNL     1      51.573   7.648  12.066  0.00  0.00    +0.000 HD
ATOM     34  H   UNL     1      51.373   7.399  10.466  0.00  0.00    +0.000 HD
ENDBRANCH  31  32
ENDBRANCH   1  31
TORSDOF 8
ENDMDL
MODEL 8
REMARK VINA RESULT:    -7.068      3.967      8.027
REMARK INTER + INTRA:         -10.703
REMARK INTER:                  -9.654
REMARK INTRA:                  -1.049
REMARK UNBOUND:                -0.535
REMARK  Name = 
REMARK  8 active torsions:
REMARK  status: ('A' for Active; 'I' for Inactive)
REMARK    1  A    between atoms: N_1  and  C_2
REMARK    2  A    between atoms: C_2  and  C_3
REMARK    3  A    between atoms: C_3  and  N_4
REMARK    4  A    between atoms: C_3  and  C_17
REMARK    5  A    between atoms: C_5  and  C_7
REMARK    6  A    between atoms: C_20  and  O_21
REMARK    7  A    between atoms: O_21  and  C_22
REMARK    8  A    between atoms: C_22  and  C_23
REMARK                            x       y       z     vdW  Elec       q    Type
REMARK                         _______ _______ _______ _____ _____    ______ ____
ROOT
ATOM      1  C   UNL     1      49.066   7.607  15.880  0.00  0.00    +0.000 C 
ENDROOT
BRANCH   1   2
ATOM      2  C   UNL     1      49.696   6.361  16.476  0.00  0.00    +0.000 A 
ATOM      3  C   UNL     1      48.889   5.278  16.864  0.00  0.00    +0.000 A 
ATOM      4  C   UNL     1      49.463   4.113  17.381  0.00  0.00    +0.000 A 
ATOM      5  C   UNL     1      50.849   4.016  17.512  0.00  0.00    +0.000 A 
ATOM      6  C   UNL     1      51.647   5.116  17.208  0.00  0.00    +0.000 A 
ATOM      7  C   UNL     1      51.076   6.278  16.699  0.00  0.00    +0.000 A 
BRANCH   5   8
ATOM      8  O   UNL     1      51.329   2.808  17.937  0.00  0.00    +0.000 OA
BRANCH   8   9
ATOM      9  C   UNL     1      52.622   2.877  18.551  0.00  0.00    +0.000 C 
BRANCH   9  10
ATOM     10  C   UNL     1      53.608   2.050  17.766  0.00  0.00    +0.000 A 
ATOM     11  C   UNL     1      53.330   0.711  17.498  0.00  0.00    +0.000 A 
ATOM     12  C   UNL     1      54.232  -0.020  16.736  0.00  0.00    +0.000 A 
ATOM     13  C   UNL     1      55.378   0.603  16.260  0.00  0.00    +0.000 A 
ATOM     14  C   UNL     1      55.575   1.940  16.563  0.00  0.00    +0.000 A 
ATOM     15  N   UNL     1      54.719   2.679  17.297  0.00  0.00    +0.000 NA
ENDBRANCH   9  10
ENDBRANCH   8   9
ENDBRANCH   5   8
ENDBRANCH   1   2
BRANCH   1  16
ATOM     16  N   UNL     1      47.959   7.192  15.037  0.00  0.00    +0.000 N 
ATOM     17  C   UNL     1      48.136   6.764  13.750  0.00  0.00    +0.000 C 
ATOM     18  O   UNL     1      49.249   6.618  13.254  0.00  0.00    +0.000 OA
ATOM     19  H   UNL     1      47.031   7.438  15.363  0.00  0.00    +0.000 HD
BRANCH  17  20
ATOM     20  C   UNL     1      46.917   6.452  12.999  0.00  0.00    +0.000 A 
ATOM     21  C   UNL     1      46.214   7.471  12.372  0.00  0.00    +0.000 A 
ATOM     22  S   UNL     1      44.798   6.939  11.585  0.00  0.00    +0.000 S 
ATOM     23  C   UNL     1      45.062   5.332  12.078  0.00  0.00    +0.000 A 
ATOM     24  N   UNL     1      44.173   4.352  11.772  0.00  0.00    +0.000 NA
ATOM     25  C   UNL     1      44.484   3.184  12.228  0.00  0.00    +0.000 A 
ATOM     26  N   UNL     1      45.614   2.906  12.949  0.00  0.00    +0.000 N 
ATOM     27  C   UNL     1      46.565   3.856  13.248  0.00  0.00    +0.000 A 
ATOM     28  O   UNL     1      47.603   3.559  13.830  0.00  0.00    +0.000 OA
ATOM     29  C   UNL     1      46.238   5.194  12.795  0.00  0.00    +0.000 A 
ATOM     30  H   UNL     1      45.817   1.963  13.249  0.00  0.00    +0.000 HD
ENDBRANCH  17  20
ENDBRANCH   1  16
BRANCH   1  31
ATOM     31  C   UNL     1      48.587   8.658  16.931  0.00  0.00    +0.000 C 
BRANCH  31  32
ATOM     32  N   UNL     1      47.568   9.592  16.437  0.00  0.00    +0.000 NA
ATOM     33  H   UNL     1      46.656   9.324  16.804  0.00  0.00    +0.000 HD
ATOM     34  H   UNL     1      47.504   9.512  15.423  0.00  0.00    +0.000 HD
ENDBRANCH  31  32
ENDBRANCH   1  31
TORSDOF 8
ENDMDL
MODEL 9
REMARK VINA RESULT:    -6.757      2.150      2.829
REMARK INTER + INTRA:         -10.255
REMARK INTER:                  -9.282
REMARK INTRA:                  -0.974
REMARK UNBOUND:                -0.535
REMARK  Name = 
REMARK  8 active torsions:
REMARK  status: ('A' for Active; 'I' for Inactive)
REMARK    1  A    between atoms: N_1  and  C_2
REMARK    2  A    between atoms: C_2  and  C_3
REMARK    3  A    between atoms: C_3  and  N_4
REMARK    4  A    between atoms: C_3  and  C_17
REMARK    5  A    between atoms: C_5  and  C_7
REMARK    6  A    between atoms: C_20  and  O_21
REMARK    7  A    between atoms: O_21  and  C_22
REMARK    8  A    between atoms: C_22  and  C_23
REMARK                            x       y       z     vdW  Elec       q    Type
REMARK                         _______ _______ _______ _____ _____    ______ ____
ROOT
ATOM      1  C   UNL     1      47.945   8.749  14.031  0.00  0.00    +0.000 C 
ENDROOT
BRANCH   1   2
ATOM      2  C   UNL     1      46.921   8.019  13.179  0.00  0.00    +0.000 A 
ATOM      3  C   UNL     1      46.847   6.616  13.213  0.00  0.00    +0.000 A 
ATOM      4  C   UNL     1      45.886   5.937  12.460  0.00  0.00    +0.000 A 
ATOM      5  C   UNL     1      44.986   6.652  11.668  0.00  0.00    +0.000 A 
ATOM      6  C   UNL     1      45.109   8.035  11.565  0.00  0.00    +0.000 A 
ATOM      7  C   UNL     1      46.069   8.711  12.310  0.00  0.00    +0.000 A 
BRANCH   5   8
ATOM      8  O   UNL     1      44.022   5.914  11.039  0.00  0.00    +0.000 OA
BRANCH   8   9
ATOM      9  C   UNL     1      44.132   4.502  11.258  0.00  0.00    +0.000 C 
BRANCH   9  10
ATOM     10  C   UNL     1      44.779   3.846  10.064  0.00  0.00    +0.000 A 
ATOM     11  C   UNL     1      44.770   2.457   9.949  0.00  0.00    +0.000 A 
ATOM     12  C   UNL     1      45.333   1.876   8.820  0.00  0.00    +0.000 A 
ATOM     13  C   UNL     1      45.882   2.692   7.839  0.00  0.00    +0.000 A 
ATOM     14  C   UNL     1      45.841   4.064   8.027  0.00  0.00    +0.000 A 
ATOM     15  N   UNL     1      45.300   4.660   9.108  0.00  0.00    +0.000 NA
ENDBRANCH   9  10
ENDBRANCH   8   9
ENDBRANCH   5   8
ENDBRANCH   1   2
BRANCH   1  16
ATOM     16  N   UNL     1      47.909   8.178  15.366  0.00  0.00    +0.000 N 
ATOM     17  C   UNL     1      48.309   8.872  16.474  0.00  0.00    +0.000 C 
ATOM     18  O   UNL     1      48.639  10.053  16.424  0.00  0.00    +0.000 OA
ATOM     19  H   UNL     1      47.783   7.173  15.419  0.00  0.00    +0.000 HD
BRANCH  17  20
ATOM     20  C   UNL     1      48.288   8.136  17.741  0.00  0.00    +0.000 A 
ATOM     21  C   UNL     1      47.857   8.768  18.898  0.00  0.00    +0.000 A 
ATOM     22  S   UNL     1      47.941   7.782  20.286  0.00  0.00    +0.000 S 
ATOM     23  C   UNL     1      48.583   6.484  19.392  0.00  0.00    +0.000 A 
ATOM     24  N   UNL     1      48.935   5.323  20.001  0.00  0.00    +0.000 NA
ATOM     25  C   UNL     1      49.432   4.431  19.209  0.00  0.00    +0.000 A 
ATOM     26  N   UNL     1      49.591   4.592  17.859  0.00  0.00    +0.000 N 
ATOM     27  C   UNL     1      49.212   5.734  17.190  0.00  0.00    +0.000 A 
ATOM     28  O   UNL     1      49.298   5.818  15.969  0.00  0.00    +0.000 OA
ATOM     29  C   UNL     1      48.690   6.783  18.045  0.00  0.00    +0.000 A 
ATOM     30  H   UNL     1      49.955   3.842  17.289  0.00  0.00    +0.000 HD
ENDBRANCH  17  20
ENDBRANCH   1  16
BRANCH   1  31
ATOM     31  C   UNL     1      49.399   8.722  13.464  0.00  0.00    +0.000 C 
BRANCH  31  32
ATOM     32  N   UNL     1      50.157   7.507  13.792  0.00  0.00    +0.000 NA
ATOM     33  H   UNL     1      51.135   7.749  13.945  0.00  0.00    +0.000 HD
ATOM     34  H   UNL     1      50.138   6.874  12.994  0.00  0.00    +0.000 HD
ENDBRANCH  31  32
ENDBRANCH   1  31
TORSDOF 8
ENDMDL
