MODEL 1
REMARK VINA RESULT:    -7.954      0.000      0.000
REMARK INTER + INTRA:         -13.472
REMARK INTER:                 -12.371
REMARK INTRA:                  -1.101
REMARK UNBOUND:                -1.101
REMARK  Name = 
REMARK  11 active torsions:
REMARK  status: ('A' for Active; 'I' for Inactive)
REMARK    1  A    between atoms: C_1  and  O_2
REMARK    2  A    between atoms: O_2  and  C_3
REMARK    3  A    between atoms: C_5  and  C_6
REMARK    4  A    between atoms: C_6  and  N_7
REMARK    5  A    between atoms: N_7  and  CA_8
REMARK    6  A    between atoms: CA_8  and  C_9
REMARK    7  A    between atoms: CA_8  and  C_11
REMARK    8  A    between atoms: C_9  and  O_10
REMARK    9  A    between atoms: C_14  and  C_15
REMARK   10  A    between atoms: C_15  and  N_16
REMARK   11  A    between atoms: C_17  and  C_19
REMARK                            x       y       z     vdW  Elec       q    Type
REMARK                         _______ _______ _______ _____ _____    ______ ____
ROOT
ATOM      1  C   UNL     1      45.939   4.983  12.186  0.00  0.00    +0.000 A 
ATOM      2  C   UNL     1      46.236   4.296  13.365  0.00  0.00    +0.000 A 
ATOM      3  C   UNL     1      46.987   4.938  14.346  0.00  0.00    +0.000 A 
ATOM      4  C   UNL     1      47.464   6.228  14.117  0.00  0.00    +0.000 A 
ATOM      5  C   UNL     1      47.136   6.828  12.908  0.00  0.00    +0.000 A 
ATOM      6  N   UNL     1      46.399   6.233  11.942  0.00  0.00    +0.000 NA
ENDROOT
BRANCH   1   7
ATOM      7  CA  UNL     1      45.057   4.354  11.108  0.00  0.00    +0.000 C 
BRANCH   7   8
ATOM      8  N   UNL     1      45.249   4.958   9.763  0.00  0.00    +0.000 NA
ATOM      9  H   UNL     1      44.833   5.890   9.771  0.00  0.00    +0.000 HD
BRANCH   8  10
ATOM     10  C   UNL     1      44.573   4.168   8.723  0.00  0.00    +0.000 C 
BRANCH  10  13
ATOM     11  C   UNL     1      46.922   1.678   7.315  0.00  0.00    +0.000 C 
ATOM     12  C   UNL     1      46.396   3.033   7.278  0.00  0.00    +0.000 C 
ATOM     13  C   UNL     1      45.395   3.000   8.311  0.00  0.00    +0.000 C 
ATOM     14  C   UNL     1      45.436   1.752   8.813  0.00  0.00    +0.000 C 
ATOM     15  N   UNL     1      46.368   0.916   8.215  0.00  0.00    +0.000 NA
BRANCH  11  17
ATOM     16  C   UNL     1      48.092   2.355   5.408  0.00  0.00    +0.000 C 
ATOM     17  O   UNL     1      47.893   1.388   6.441  0.00  0.00    +0.000 OA
ENDBRANCH  11  17
ENDBRANCH  10  13
ENDBRANCH   8  10
ENDBRANCH   7   8
BRANCH   7  18
ATOM     18  C   UNL     1      43.581   4.454  11.568  0.00  0.00    +0.000 C 
BRANCH  18  19
ATOM     19  O   UNL     1      42.897   3.199  11.493  0.00  0.00    +0.000 OA
ATOM     20  H   UNL     1      42.473   3.150  10.613  0.00  0.00    +0.000 HD
ENDBRANCH  18  19
ENDBRANCH   7  18
ENDBRANCH   1   7
BRANCH   4  21
ATOM     21  C   UNL     1      48.264   6.957  15.151  0.00  0.00    +0.000 C 
BRANCH  21  22
ATOM     22  N   UNL     1      49.321   6.132  15.674  0.00  0.00    +0.000 N 
ATOM     23  C   UNL     1      49.516   6.018  17.029  0.00  0.00    +0.000 C 
ATOM     24  O   UNL     1      48.775   6.571  17.836  0.00  0.00    +0.000 OA
ATOM     25  H   UNL     1      50.074   5.874  15.042  0.00  0.00    +0.000 HD
BRANCH  23  26
ATOM     26  C   UNL     1      50.616   5.152  17.464  0.00  0.00    +0.000 A 
ATOM     27  C   UNL     1      51.739   5.719  18.051  0.00  0.00    +0.000 A 
ATOM     28  S   UNL     1      52.902   4.575  18.548  0.00  0.00    +0.000 S 
ATOM     29  C   UNL     1      51.969   3.287  17.948  0.00  0.00    +0.000 A 
ATOM     30  N   UNL     1      52.414   2.003  18.032  0.00  0.00    +0.000 NA
ATOM     31  C   UNL     1      51.623   1.129  17.505  0.00  0.00    +0.000 A 
ATOM     32  N   UNL     1      50.424   1.419  16.907  0.00  0.00    +0.000 N 
ATOM     33  C   UNL     1      49.917   2.695  16.833  0.00  0.00    +0.000 A 
ATOM     34  O   UNL     1      48.816   2.917  16.338  0.00  0.00    +0.000 OA
ATOM     35  C   UNL     1      50.777   3.720  17.394  0.00  0.00    +0.000 A 
ATOM     36  H   UNL     1      49.849   0.684  16.524  0.00  0.00    +0.000 HD
ENDBRANCH  23  26
ENDBRANCH  21  22
ENDBRANCH   4  21
TORSDOF 10
ENDMDL
MODEL 2
REMARK VINA RESULT:    -7.933      2.542      3.763
REMARK INTER + INTRA:         -13.439
REMARK INTER:                 -12.123
REMARK INTRA:                  -1.316
REMARK UNBOUND:                -1.101
REMARK  Name = 
REMARK  11 active torsions:
REMARK  status: ('A' for Active; 'I' for Inactive)
REMARK    1  A    between atoms: C_1  and  O_2
REMARK    2  A    between atoms: O_2  and  C_3
REMARK    3  A    between atoms: C_5  and  C_6
REMARK    4  A    between atoms: C_6  and  N_7
REMARK    5  A    between atoms: N_7  and  CA_8
REMARK    6  A    between atoms: CA_8  and  C_9
REMARK    7  A    between atoms: CA_8  and  C_11
REMARK    8  A    between atoms: C_9  and  O_10
REMARK    9  A    between atoms: C_14  and  C_15
REMARK   10  A    between atoms: C_15  and  N_16
REMARK   11  A    between atoms: C_17  and  C_19
REMARK                            x       y       z     vdW  Elec       q    Type
REMARK                         _______ _______ _______ _____ _____    ______ ____
ROOT
ATOM      1  C   UNL     1      45.786   5.575  11.819  0.00  0.00    +0.000 A 
ATOM      2  C   UNL     1      46.533   6.675  11.391  0.00  0.00    +0.000 A 
ATOM      3  C   UNL     1      47.561   7.145  12.204  0.00  0.00    +0.000 A 
ATOM      4  C   UNL     1      47.797   6.544  13.439  0.00  0.00    +0.000 A 
ATOM      5  C   UNL     1      46.992   5.468  13.792  0.00  0.00    +0.000 A 
ATOM      6  N   UNL     1      45.994   4.982  13.019  0.00  0.00    +0.000 NA
ENDROOT
BRANCH   1   7
ATOM      7  CA  UNL     1      44.695   4.972  10.936  0.00  0.00    +0.000 C 
BRANCH   7   8
ATOM      8  N   UNL     1      45.003   5.045   9.484  0.00  0.00    +0.000 NA
ATOM      9  H   UNL     1      44.679   5.947   9.135  0.00  0.00    +0.000 HD
BRANCH   8  10
ATOM     10  C   UNL     1      44.302   3.990   8.737  0.00  0.00    +0.000 C 
BRANCH  10  13
ATOM     11  C   UNL     1      46.902   1.727   7.387  0.00  0.00    +0.000 C 
ATOM     12  C   UNL     1      46.275   3.039   7.357  0.00  0.00    +0.000 C 
ATOM     13  C   UNL     1      45.231   2.901   8.338  0.00  0.00    +0.000 C 
ATOM     14  C   UNL     1      45.345   1.646   8.810  0.00  0.00    +0.000 C 
ATOM     15  N   UNL     1      46.367   0.900   8.239  0.00  0.00    +0.000 NA
BRANCH  11  17
ATOM     16  C   UNL     1      47.955   2.387   5.407  0.00  0.00    +0.000 C 
ATOM     17  O   UNL     1      47.933   1.537   6.555  0.00  0.00    +0.000 OA
ENDBRANCH  11  17
ENDBRANCH  10  13
ENDBRANCH   8  10
ENDBRANCH   7   8
BRANCH   7  18
ATOM     18  C   UNL     1      43.356   5.678  11.267  0.00  0.00    +0.000 C 
BRANCH  18  19
ATOM     19  O   UNL     1      43.184   5.900  12.670  0.00  0.00    +0.000 OA
ATOM     20  H   UNL     1      43.268   6.862  12.826  0.00  0.00    +0.000 HD
ENDBRANCH  18  19
ENDBRANCH   7  18
ENDBRANCH   1   7
BRANCH   4  21
ATOM     21  C   UNL     1      48.901   7.012  14.335  0.00  0.00    +0.000 C 
BRANCH  21  22
ATOM     22  N   UNL     1      48.529   6.915  15.721  0.00  0.00    +0.000 N 
ATOM     23  C   UNL     1      49.369   6.322  16.632  0.00  0.00    +0.000 C 
ATOM     24  O   UNL     1      50.475   5.900  16.310  0.00  0.00    +0.000 OA
ATOM     25  H   UNL     1      47.546   7.029  15.955  0.00  0.00    +0.000 HD
BRANCH  23  26
ATOM     26  C   UNL     1      48.903   6.274  18.022  0.00  0.00    +0.000 A 
ATOM     27  C   UNL     1      49.033   5.096  18.745  0.00  0.00    +0.000 A 
ATOM     28  S   UNL     1      48.493   5.219  20.357  0.00  0.00    +0.000 S 
ATOM     29  C   UNL     1      48.016   6.836  20.130  0.00  0.00    +0.000 A 
ATOM     30  N   UNL     1      47.437   7.542  21.139  0.00  0.00    +0.000 NA
ATOM     31  C   UNL     1      47.092   8.745  20.818  0.00  0.00    +0.000 A 
ATOM     32  N   UNL     1      47.279   9.309  19.582  0.00  0.00    +0.000 N 
ATOM     33  C   UNL     1      47.893   8.647  18.546  0.00  0.00    +0.000 A 
ATOM     34  O   UNL     1      48.093   9.196  17.466  0.00  0.00    +0.000 OA
ATOM     35  C   UNL     1      48.283   7.282  18.847  0.00  0.00    +0.000 A 
ATOM     36  H   UNL     1      46.994  10.260  19.402  0.00  0.00    +0.000 HD
ENDBRANCH  23  26
ENDBRANCH  21  22
ENDBRANCH   4  21
TORSDOF 10
ENDMDL
MODEL 3
REMARK VINA RESULT:    -7.931      2.126      2.419
REMARK INTER + INTRA:         -13.437
REMARK INTER:                 -12.320
REMARK INTRA:                  -1.117
REMARK UNBOUND:                -1.101
REMARK  Name = 
REMARK  11 active torsions:
REMARK  status: ('A' for Active; 'I' for Inactive)
REMARK    1  A    between atoms: C_1  and  O_2
REMARK    2  A    between atoms: O_2  and  C_3
REMARK    3  A    between atoms: C_5  and  C_6
REMARK    4  A    between atoms: C_6  and  N_7
REMARK    5  A    between atoms: N_7  and  CA_8
REMARK    6  A    between atoms: CA_8  and  C_9
REMARK    7  A    between atoms: CA_8  and  C_11
REMARK    8  A    between atoms: C_9  and  O_10
REMARK    9  A    between atoms: C_14  and  C_15
REMARK   10  A    between atoms: C_15  and  N_16
REMARK   11  A    between atoms: C_17  and  C_19
REMARK                            x       y       z     vdW  Elec       q    Type
REMARK                         _______ _______ _______ _____ _____    ______ ____
ROOT
ATOM      1  C   UNL     1      44.929   5.435  11.764  0.00  0.00    +0.000 A 
ATOM      2  C   UNL     1      45.954   4.814  12.481  0.00  0.00    +0.000 A 
ATOM      3  C   UNL     1      46.944   5.604  13.057  0.00  0.00    +0.000 A 
ATOM      4  C   UNL     1      46.921   6.986  12.874  0.00  0.00    +0.000 A 
ATOM      5  C   UNL     1      45.873   7.516  12.131  0.00  0.00    +0.000 A 
ATOM      6  N   UNL     1      44.892   6.775  11.569  0.00  0.00    +0.000 NA
ENDROOT
BRANCH   1   7
ATOM      7  CA  UNL     1      43.776   4.624  11.173  0.00  0.00    +0.000 C 
BRANCH   7   8
ATOM      8  N   UNL     1      43.736   4.653   9.687  0.00  0.00    +0.000 NA
ATOM      9  H   UNL     1      43.330   3.775   9.363  0.00  0.00    +0.000 HD
BRANCH   8  10
ATOM     10  C   UNL     1      45.088   4.764   9.119  0.00  0.00    +0.000 C 
BRANCH  10  13
ATOM     11  C   UNL     1      46.719   1.843   7.537  0.00  0.00    +0.000 C 
ATOM     12  C   UNL     1      46.576   3.288   7.601  0.00  0.00    +0.000 C 
ATOM     13  C   UNL     1      45.577   3.452   8.623  0.00  0.00    +0.000 C 
ATOM     14  C   UNL     1      45.270   2.205   9.029  0.00  0.00    +0.000 C 
ATOM     15  N   UNL     1      45.959   1.195   8.373  0.00  0.00    +0.000 NA
BRANCH  11  17
ATOM     16  C   UNL     1      47.833   2.203   5.514  0.00  0.00    +0.000 C 
ATOM     17  O   UNL     1      47.598   1.366   6.648  0.00  0.00    +0.000 OA
ENDBRANCH  11  17
ENDBRANCH  10  13
ENDBRANCH   8  10
ENDBRANCH   7   8
BRANCH   7  18
ATOM     18  C   UNL     1      42.451   5.144  11.785  0.00  0.00    +0.000 C 
BRANCH  18  19
ATOM     19  O   UNL     1      42.602   5.561  13.145  0.00  0.00    +0.000 OA
ATOM     20  H   UNL     1      43.084   4.853  13.617  0.00  0.00    +0.000 HD
ENDBRANCH  18  19
ENDBRANCH   7  18
ENDBRANCH   1   7
BRANCH   4  21
ATOM     21  C   UNL     1      47.960   7.871  13.489  0.00  0.00    +0.000 C 
BRANCH  21  22
ATOM     22  N   UNL     1      48.040   7.676  14.912  0.00  0.00    +0.000 N 
ATOM     23  C   UNL     1      49.183   7.177  15.487  0.00  0.00    +0.000 C 
ATOM     24  O   UNL     1      50.184   6.928  14.823  0.00  0.00    +0.000 OA
ATOM     25  H   UNL     1      47.168   7.643  15.433  0.00  0.00    +0.000 HD
BRANCH  23  26
ATOM     26  C   UNL     1      49.169   7.018  16.945  0.00  0.00    +0.000 A 
ATOM     27  C   UNL     1      49.406   8.121  17.754  0.00  0.00    +0.000 A 
ATOM     28  S   UNL     1      49.303   7.781  19.422  0.00  0.00    +0.000 S 
ATOM     29  C   UNL     1      48.991   6.136  19.121  0.00  0.00    +0.000 A 
ATOM     30  N   UNL     1      48.824   5.258  20.147  0.00  0.00    +0.000 NA
ATOM     31  C   UNL     1      48.630   4.036  19.777  0.00  0.00    +0.000 A 
ATOM     32  N   UNL     1      48.581   3.612  18.474  0.00  0.00    +0.000 N 
ATOM     33  C   UNL     1      48.707   4.469  17.406  0.00  0.00    +0.000 A 
ATOM     34  O   UNL     1      48.606   4.068  16.250  0.00  0.00    +0.000 OA
ATOM     35  C   UNL     1      48.946   5.853  17.767  0.00  0.00    +0.000 A 
ATOM     36  H   UNL     1      48.415   2.641  18.254  0.00  0.00    +0.000 HD
ENDBRANCH  23  26
ENDBRANCH  21  22
ENDBRANCH   4  21
TORSDOF 10
ENDMDL
MODEL 4
REMARK VINA RESULT:    -7.818      2.474      3.351
REMARK INTER + INTRA:         -13.260
REMARK INTER:                 -12.466
REMARK INTRA:                  -0.794
REMARK UNBOUND:                -1.101
REMARK  Name = 
REMARK  11 active torsions:
REMARK  status: ('A' for Active; 'I' for Inactive)
REMARK    1  A    between atoms: C_1  and  O_2
REMARK    2  A    between atoms: O_2  and  C_3
REMARK    3  A    between atoms: C_5  and  C_6
REMARK    4  A    between atoms: C_6  and  N_7
REMARK    5  A    between atoms: N_7  and  CA_8
REMARK    6  A    between atoms: CA_8  and  C_9
REMARK    7  A    between atoms: CA_8  and  C_11
REMARK    8  A    between atoms: C_9  and  O_10
REMARK    9  A    between atoms: C_14  and  C_15
REMARK   10  A    between atoms: C_15  and  N_16
REMARK   11  A    between atoms: C_17  and  C_19
REMARK                            x       y       z     vdW  Elec       q    Type
REMARK                         _______ _______ _______ _____ _____    ______ ____
ROOT
ATOM      1  C   UNL     1      44.932   5.004  11.628  0.00  0.00    +0.000 A 
ATOM      2  C   UNL     1      44.154   6.137  11.382  0.00  0.00    +0.000 A 
ATOM      3  C   UNL     1      44.612   7.375  11.825  0.00  0.00    +0.000 A 
ATOM      4  C   UNL     1      45.807   7.455  12.539  0.00  0.00    +0.000 A 
ATOM      5  C   UNL     1      46.506   6.274  12.753  0.00  0.00    +0.000 A 
ATOM      6  N   UNL     1      46.091   5.060  12.326  0.00  0.00    +0.000 NA
ENDROOT
BRANCH   1   7
ATOM      7  CA  UNL     1      44.514   3.632  11.102  0.00  0.00    +0.000 C 
BRANCH   7   8
ATOM      8  N   UNL     1      43.765   3.694   9.819  0.00  0.00    +0.000 NA
ATOM      9  H   UNL     1      43.414   2.759   9.610  0.00  0.00    +0.000 HD
BRANCH   8  10
ATOM     10  C   UNL     1      44.639   4.109   8.712  0.00  0.00    +0.000 C 
BRANCH  10  13
ATOM     11  C   UNL     1      47.107   1.769   7.250  0.00  0.00    +0.000 C 
ATOM     12  C   UNL     1      46.581   3.124   7.312  0.00  0.00    +0.000 C 
ATOM     13  C   UNL     1      45.496   2.987   8.249  0.00  0.00    +0.000 C 
ATOM     14  C   UNL     1      45.500   1.693   8.618  0.00  0.00    +0.000 C 
ATOM     15  N   UNL     1      46.483   0.920   8.015  0.00  0.00    +0.000 NA
BRANCH  11  17
ATOM     16  C   UNL     1      48.084   2.255   5.183  0.00  0.00    +0.000 C 
ATOM     17  O   UNL     1      48.148   1.568   6.434  0.00  0.00    +0.000 OA
ENDBRANCH  11  17
ENDBRANCH  10  13
ENDBRANCH   8  10
ENDBRANCH   7   8
BRANCH   7  18
ATOM     18  C   UNL     1      43.690   2.918  12.203  0.00  0.00    +0.000 C 
BRANCH  18  19
ATOM     19  O   UNL     1      42.959   1.796  11.701  0.00  0.00    +0.000 OA
ATOM     20  H   UNL     1      43.609   1.160  11.340  0.00  0.00    +0.000 HD
ENDBRANCH  18  19
ENDBRANCH   7  18
ENDBRANCH   1   7
BRANCH   4  21
ATOM     21  C   UNL     1      46.340   8.769  13.020  0.00  0.00    +0.000 C 
BRANCH  21  22
ATOM     22  N   UNL     1      46.873   8.663  14.352  0.00  0.00    +0.000 N 
ATOM     23  C   UNL     1      48.170   9.028  14.618  0.00  0.00    +0.000 C 
ATOM     24  O   UNL     1      48.899   9.498  13.751  0.00  0.00    +0.000 OA
ATOM     25  H   UNL     1      46.382   8.063  15.010  0.00  0.00    +0.000 HD
BRANCH  23  26
ATOM     26  C   UNL     1      48.620   8.887  16.007  0.00  0.00    +0.000 A 
ATOM     27  C   UNL     1      48.808  10.023  16.782  0.00  0.00    +0.000 A 
ATOM     28  S   UNL     1      49.281   9.687  18.385  0.00  0.00    +0.000 S 
ATOM     29  C   UNL     1      49.303   8.014  18.084  0.00  0.00    +0.000 A 
ATOM     30  N   UNL     1      49.660   7.134  19.059  0.00  0.00    +0.000 NA
ATOM     31  C   UNL     1      49.669   5.898  18.684  0.00  0.00    +0.000 A 
ATOM     32  N   UNL     1      49.347   5.460  17.425  0.00  0.00    +0.000 N 
ATOM     33  C   UNL     1      48.944   6.308  16.421  0.00  0.00    +0.000 A 
ATOM     34  O   UNL     1      48.611   5.882  15.319  0.00  0.00    +0.000 OA
ATOM     35  C   UNL     1      48.936   7.713  16.784  0.00  0.00    +0.000 A 
ATOM     36  H   UNL     1      49.365   4.476  17.202  0.00  0.00    +0.000 HD
ENDBRANCH  23  26
ENDBRANCH  21  22
ENDBRANCH   4  21
TORSDOF 10
ENDMDL
MODEL 5
REMARK VINA RESULT:    -7.371      3.734      8.545
REMARK INTER + INTRA:         -12.566
REMARK INTER:                 -10.986
REMARK INTRA:                  -1.579
REMARK UNBOUND:                -1.101
REMARK  Name = 
REMARK  11 active torsions:
REMARK  status: ('A' for Active; 'I' for Inactive)
REMARK    1  A    between atoms: C_1  and  O_2
REMARK    2  A    between atoms: O_2  and  C_3
REMARK    3  A    between atoms: C_5  and  C_6
REMARK    4  A    between atoms: C_6  and  N_7
REMARK    5  A    between atoms: N_7  and  CA_8
REMARK    6  A    between atoms: CA_8  and  C_9
REMARK    7  A    between atoms: CA_8  and  C_11
REMARK    8  A    between atoms: C_9  and  O_10
REMARK    9  A    between atoms: C_14  and  C_15
REMARK   10  A    between atoms: C_15  and  N_16
REMARK   11  A    between atoms: C_17  and  C_19
REMARK                            x       y       z     vdW  Elec       q    Type
REMARK                         _______ _______ _______ _____ _____    ______ ____
ROOT
ATOM      1  C   UNL     1      48.824   7.490  16.201  0.00  0.00    +0.000 A 
ATOM      2  C   UNL     1      48.363   8.740  15.785  0.00  0.00    +0.000 A 
ATOM      3  C   UNL     1      48.137   8.955  14.428  0.00  0.00    +0.000 A 
ATOM      4  C   UNL     1      48.416   7.943  13.511  0.00  0.00    +0.000 A 
ATOM      5  C   UNL     1      48.890   6.737  14.013  0.00  0.00    +0.000 A 
ATOM      6  N   UNL     1      49.108   6.495  15.326  0.00  0.00    +0.000 NA
ENDROOT
BRANCH   1   7
ATOM      7  CA  UNL     1      49.019   7.174  17.683  0.00  0.00    +0.000 C 
BRANCH   7   8
ATOM      8  N   UNL     1      47.759   6.799  18.378  0.00  0.00    +0.000 NA
ATOM      9  H   UNL     1      47.605   7.464  19.136  0.00  0.00    +0.000 HD
BRANCH   8  10
ATOM     10  C   UNL     1      47.854   5.454  18.964  0.00  0.00    +0.000 C 
BRANCH  10  13
ATOM     11  C   UNL     1      48.736   2.711  16.641  0.00  0.00    +0.000 C 
ATOM     12  C   UNL     1      49.136   3.560  17.752  0.00  0.00    +0.000 C 
ATOM     13  C   UNL     1      47.987   4.413  17.913  0.00  0.00    +0.000 C 
ATOM     14  C   UNL     1      47.107   4.011  16.977  0.00  0.00    +0.000 C 
ATOM     15  N   UNL     1      47.545   2.964  16.178  0.00  0.00    +0.000 NA
BRANCH  11  17
ATOM     16  C   UNL     1      50.805   1.698  17.037  0.00  0.00    +0.000 C 
ATOM     17  O   UNL     1      49.622   1.792  16.241  0.00  0.00    +0.000 OA
ENDBRANCH  11  17
ENDBRANCH  10  13
ENDBRANCH   8  10
ENDBRANCH   7   8
BRANCH   7  18
ATOM     18  C   UNL     1      49.694   8.396  18.356  0.00  0.00    +0.000 C 
BRANCH  18  19
ATOM     19  O   UNL     1      49.933   8.191  19.752  0.00  0.00    +0.000 OA
ATOM     20  H   UNL     1      50.812   7.773  19.840  0.00  0.00    +0.000 HD
ENDBRANCH  18  19
ENDBRANCH   7  18
ENDBRANCH   1   7
BRANCH   4  21
ATOM     21  C   UNL     1      48.174   8.131  12.046  0.00  0.00    +0.000 C 
BRANCH  21  22
ATOM     22  N   UNL     1      47.519   6.986  11.471  0.00  0.00    +0.000 N 
ATOM     23  C   UNL     1      46.148   6.926  11.402  0.00  0.00    +0.000 C 
ATOM     24  O   UNL     1      45.442   7.855  11.779  0.00  0.00    +0.000 OA
ATOM     25  H   UNL     1      48.058   6.129  11.384  0.00  0.00    +0.000 HD
BRANCH  23  26
ATOM     26  C   UNL     1      45.574   5.720  10.796  0.00  0.00    +0.000 A 
ATOM     27  C   UNL     1      45.744   5.492   9.437  0.00  0.00    +0.000 A 
ATOM     28  S   UNL     1      45.063   4.025   8.898  0.00  0.00    +0.000 S 
ATOM     29  C   UNL     1      44.471   3.668  10.452  0.00  0.00    +0.000 A 
ATOM     30  N   UNL     1      43.753   2.535  10.682  0.00  0.00    +0.000 NA
ATOM     31  C   UNL     1      43.334   2.408  11.898  0.00  0.00    +0.000 A 
ATOM     32  N   UNL     1      43.574   3.306  12.906  0.00  0.00    +0.000 N 
ATOM     33  C   UNL     1      44.326   4.443  12.728  0.00  0.00    +0.000 A 
ATOM     34  O   UNL     1      44.568   5.202  13.663  0.00  0.00    +0.000 OA
ATOM     35  C   UNL     1      44.805   4.645  11.374  0.00  0.00    +0.000 A 
ATOM     36  H   UNL     1      43.225   3.139  13.838  0.00  0.00    +0.000 HD
ENDBRANCH  23  26
ENDBRANCH  21  22
ENDBRANCH   4  21
TORSDOF 10
ENDMDL
MODEL 6
REMARK VINA RESULT:    -7.067      3.527      8.681
REMARK INTER + INTRA:         -12.093
REMARK INTER:                 -10.183
REMARK INTRA:                  -1.910
REMARK UNBOUND:                -1.101
REMARK  Name = 
REMARK  11 active torsions:
REMARK  status: ('A' for Active; 'I' for Inactive)
REMARK    1  A    between atoms: C_1  and  O_2
REMARK    2  A    between atoms: O_2  and  C_3
REMARK    3  A    between atoms: C_5  and  C_6
REMARK    4  A    between atoms: C_6  and  N_7
REMARK    5  A    between atoms: N_7  and  CA_8
REMARK    6  A    between atoms: CA_8  and  C_9
REMARK    7  A    between atoms: CA_8  and  C_11
REMARK    8  A    between atoms: C_9  and  O_10
REMARK    9  A    between atoms: C_14  and  C_15
REMARK   10  A    between atoms: C_15  and  N_16
REMARK   11  A    between atoms: C_17  and  C_19
REMARK                            x       y       z     vdW  Elec       q    Type
REMARK                         _______ _______ _______ _____ _____    ______ ____
ROOT
ATOM      1  C   UNL     1      49.271   8.135  15.532  0.00  0.00    +0.000 A 
ATOM      2  C   UNL     1      49.967   7.463  14.524  0.00  0.00    +0.000 A 
ATOM      3  C   UNL     1      49.402   7.386  13.255  0.00  0.00    +0.000 A 
ATOM      4  C   UNL     1      48.142   7.937  13.024  0.00  0.00    +0.000 A 
ATOM      5  C   UNL     1      47.514   8.570  14.089  0.00  0.00    +0.000 A 
ATOM      6  N   UNL     1      48.043   8.670  15.330  0.00  0.00    +0.000 NA
ENDROOT
BRANCH   1   7
ATOM      7  CA  UNL     1      49.876   8.314  16.923  0.00  0.00    +0.000 C 
BRANCH   7   8
ATOM      8  N   UNL     1      50.037   7.036  17.666  0.00  0.00    +0.000 NA
ATOM      9  H   UNL     1      50.227   6.297  16.988  0.00  0.00    +0.000 HD
BRANCH   8  10
ATOM     10  C   UNL     1      48.809   6.682  18.392  0.00  0.00    +0.000 C 
BRANCH  10  13
ATOM     11  C   UNL     1      47.514   3.891  16.334  0.00  0.00    +0.000 C 
ATOM     12  C   UNL     1      48.436   5.010  16.452  0.00  0.00    +0.000 C 
ATOM     13  C   UNL     1      48.112   5.537  17.752  0.00  0.00    +0.000 C 
ATOM     14  C   UNL     1      47.134   4.744  18.228  0.00  0.00    +0.000 C 
ATOM     15  N   UNL     1      46.746   3.722  17.372  0.00  0.00    +0.000 NA
BRANCH  11  17
ATOM     16  C   UNL     1      47.186   3.897  14.020  0.00  0.00    +0.000 C 
ATOM     17  O   UNL     1      47.570   3.186  15.198  0.00  0.00    +0.000 OA
ENDBRANCH  11  17
ENDBRANCH  10  13
ENDBRANCH   8  10
ENDBRANCH   7   8
BRANCH   7  18
ATOM     18  C   UNL     1      48.997   9.319  17.710  0.00  0.00    +0.000 C 
BRANCH  18  19
ATOM     19  O   UNL     1      49.202  10.671  17.293  0.00  0.00    +0.000 OA
ATOM     20  H   UNL     1      48.381  11.165  17.487  0.00  0.00    +0.000 HD
ENDBRANCH  18  19
ENDBRANCH   7  18
ENDBRANCH   1   7
BRANCH   4  21
ATOM     21  C   UNL     1      47.506   7.886  11.669  0.00  0.00    +0.000 C 
BRANCH  21  22
ATOM     22  N   UNL     1      46.833   6.633  11.453  0.00  0.00    +0.000 N 
ATOM     23  C   UNL     1      45.469   6.539  11.583  0.00  0.00    +0.000 C 
ATOM     24  O   UNL     1      44.776   7.519  11.838  0.00  0.00    +0.000 OA
ATOM     25  H   UNL     1      47.393   5.785  11.483  0.00  0.00    +0.000 HD
BRANCH  23  26
ATOM     26  C   UNL     1      44.875   5.221  11.338  0.00  0.00    +0.000 A 
ATOM     27  C   UNL     1      44.113   4.621  12.331  0.00  0.00    +0.000 A 
ATOM     28  S   UNL     1      43.451   3.118  11.873  0.00  0.00    +0.000 S 
ATOM     29  C   UNL     1      44.203   3.192  10.349  0.00  0.00    +0.000 A 
ATOM     30  N   UNL     1      44.063   2.179   9.451  0.00  0.00    +0.000 NA
ATOM     31  C   UNL     1      44.716   2.348   8.350  0.00  0.00    +0.000 A 
ATOM     32  N   UNL     1      45.492   3.441   8.062  0.00  0.00    +0.000 N 
ATOM     33  C   UNL     1      45.633   4.504   8.922  0.00  0.00    +0.000 A 
ATOM     34  O   UNL     1      46.292   5.493   8.614  0.00  0.00    +0.000 OA
ATOM     35  C   UNL     1      44.933   4.356  10.185  0.00  0.00    +0.000 A 
ATOM     36  H   UNL     1      45.969   3.515   7.175  0.00  0.00    +0.000 HD
ENDBRANCH  23  26
ENDBRANCH  21  22
ENDBRANCH   4  21
TORSDOF 10
ENDMDL
MODEL 7
REMARK VINA RESULT:    -7.005      3.161      3.958
REMARK INTER + INTRA:         -11.996
REMARK INTER:                 -10.838
REMARK INTRA:                  -1.158
REMARK UNBOUND:                -1.101
REMARK  Name = 
REMARK  11 active torsions:
REMARK  status: ('A' for Active; 'I' for Inactive)
REMARK    1  A    between atoms: C_1  and  O_2
REMARK    2  A    between atoms: O_2  and  C_3
REMARK    3  A    between atoms: C_5  and  C_6
REMARK    4  A    between atoms: C_6  and  N_7
REMARK    5  A    between atoms: N_7  and  CA_8
REMARK    6  A    between atoms: CA_8  and  C_9
REMARK    7  A    between atoms: CA_8  and  C_11
REMARK    8  A    between atoms: C_9  and  O_10
REMARK    9  A    between atoms: C_14  and  C_15
REMARK   10  A    between atoms: C_15  and  N_16
REMARK   11  A    between atoms: C_17  and  C_19
REMARK                            x       y       z     vdW  Elec       q    Type
REMARK                         _______ _______ _______ _____ _____    ______ ____
ROOT
ATOM      1  C   UNL     1      45.513   4.665  12.965  0.00  0.00    +0.000 A 
ATOM      2  C   UNL     1      45.926   5.667  12.084  0.00  0.00    +0.000 A 
ATOM      3  C   UNL     1      47.056   6.417  12.403  0.00  0.00    +0.000 A 
ATOM      4  C   UNL     1      47.722   6.186  13.605  0.00  0.00    +0.000 A 
ATOM      5  C   UNL     1      47.229   5.182  14.429  0.00  0.00    +0.000 A 
ATOM      6  N   UNL     1      46.142   4.431  14.141  0.00  0.00    +0.000 NA
ENDROOT
BRANCH   1   7
ATOM      7  CA  UNL     1      44.324   3.764  12.632  0.00  0.00    +0.000 C 
BRANCH   7   8
ATOM      8  N   UNL     1      44.623   2.759  11.579  0.00  0.00    +0.000 NA
ATOM      9  H   UNL     1      45.632   2.751  11.424  0.00  0.00    +0.000 HD
BRANCH   8  10
ATOM     10  C   UNL     1      43.971   3.107  10.308  0.00  0.00    +0.000 C 
BRANCH  10  13
ATOM     11  C   UNL     1      46.450   2.757   7.581  0.00  0.00    +0.000 C 
ATOM     12  C   UNL     1      45.671   2.114   8.628  0.00  0.00    +0.000 C 
ATOM     13  C   UNL     1      44.960   3.224   9.206  0.00  0.00    +0.000 C 
ATOM     14  C   UNL     1      45.346   4.304   8.501  0.00  0.00    +0.000 C 
ATOM     15  N   UNL     1      46.265   4.044   7.494  0.00  0.00    +0.000 NA
BRANCH  11  17
ATOM     16  C   UNL     1      47.583   2.469   5.558  0.00  0.00    +0.000 C 
ATOM     17  O   UNL     1      47.241   1.964   6.850  0.00  0.00    +0.000 OA
ENDBRANCH  11  17
ENDBRANCH  10  13
ENDBRANCH   8  10
ENDBRANCH   7   8
BRANCH   7  18
ATOM     18  C   UNL     1      43.128   4.664  12.232  0.00  0.00    +0.000 C 
BRANCH  18  19
ATOM     19  O   UNL     1      42.680   5.492  13.310  0.00  0.00    +0.000 OA
ATOM     20  H   UNL     1      43.316   5.385  14.045  0.00  0.00    +0.000 HD
ENDBRANCH  18  19
ENDBRANCH   7  18
ENDBRANCH   1   7
BRANCH   4  21
ATOM     21  C   UNL     1      48.947   6.962  13.977  0.00  0.00    +0.000 C 
BRANCH  21  22
ATOM     22  N   UNL     1      49.199   6.898  15.392  0.00  0.00    +0.000 N 
ATOM     23  C   UNL     1      48.844   7.939  16.214  0.00  0.00    +0.000 C 
ATOM     24  O   UNL     1      48.262   8.930  15.785  0.00  0.00    +0.000 OA
ATOM     25  H   UNL     1      49.880   6.219  15.720  0.00  0.00    +0.000 HD
BRANCH  23  26
ATOM     26  C   UNL     1      49.138   7.779  17.642  0.00  0.00    +0.000 A 
ATOM     27  C   UNL     1      48.417   6.858  18.388  0.00  0.00    +0.000 A 
ATOM     28  S   UNL     1      48.914   6.755  20.016  0.00  0.00    +0.000 S 
ATOM     29  C   UNL     1      50.077   7.976  19.793  0.00  0.00    +0.000 A 
ATOM     30  N   UNL     1      50.853   8.399  20.827  0.00  0.00    +0.000 NA
ATOM     31  C   UNL     1      51.667   9.356  20.527  0.00  0.00    +0.000 A 
ATOM     32  N   UNL     1      51.781   9.924  19.284  0.00  0.00    +0.000 N 
ATOM     33  C   UNL     1      51.045   9.505  18.202  0.00  0.00    +0.000 A 
ATOM     34  O   UNL     1      51.206   9.998  17.089  0.00  0.00    +0.000 OA
ATOM     35  C   UNL     1      50.099   8.443  18.490  0.00  0.00    +0.000 A 
ATOM     36  H   UNL     1      52.446  10.664  19.116  0.00  0.00    +0.000 HD
ENDBRANCH  23  26
ENDBRANCH  21  22
ENDBRANCH   4  21
TORSDOF 10
ENDMDL
MODEL 8
REMARK VINA RESULT:    -6.974      2.655      4.604
REMARK INTER + INTRA:         -11.948
REMARK INTER:                 -10.583
REMARK INTRA:                  -1.366
REMARK UNBOUND:                -1.101
REMARK  Name = 
REMARK  11 active torsions:
REMARK  status: ('A' for Active; 'I' for Inactive)
REMARK    1  A    between atoms: C_1  and  O_2
REMARK    2  A    between atoms: O_2  and  C_3
REMARK    3  A    between atoms: C_5  and  C_6
REMARK    4  A    between atoms: C_6  and  N_7
REMARK    5  A    between atoms: N_7  and  CA_8
REMARK    6  A    between atoms: CA_8  and  C_9
REMARK    7  A    between atoms: CA_8  and  C_11
REMARK    8  A    between atoms: C_9  and  O_10
REMARK    9  A    between atoms: C_14  and  C_15
REMARK   10  A    between atoms: C_15  and  N_16
REMARK   11  A    between atoms: C_17  and  C_19
REMARK                            x       y       z     vdW  Elec       q    Type
REMARK                         _______ _______ _______ _____ _____    ______ ____
ROOT
ATOM      1  C   UNL     1      47.877   6.108  14.863  0.00  0.00    +0.000 A 
ATOM      2  C   UNL     1      48.618   6.401  16.010  0.00  0.00    +0.000 A 
ATOM      3  C   UNL     1      48.781   5.411  16.975  0.00  0.00    +0.000 A 
ATOM      4  C   UNL     1      48.169   4.170  16.803  0.00  0.00    +0.000 A 
ATOM      5  C   UNL     1      47.435   3.973  15.640  0.00  0.00    +0.000 A 
ATOM      6  N   UNL     1      47.269   4.911  14.680  0.00  0.00    +0.000 NA
ENDROOT
BRANCH   1   7
ATOM      7  CA  UNL     1      47.727   7.131  13.738  0.00  0.00    +0.000 C 
BRANCH   7   8
ATOM      8  N   UNL     1      46.326   7.290  13.267  0.00  0.00    +0.000 NA
ATOM      9  H   UNL     1      45.720   6.748  13.884  0.00  0.00    +0.000 HD
BRANCH   8  10
ATOM     10  C   UNL     1      46.161   6.773  11.901  0.00  0.00    +0.000 C 
BRANCH  10  13
ATOM     11  C   UNL     1      43.943   3.873  11.290  0.00  0.00    +0.000 C 
ATOM     12  C   UNL     1      45.098   4.651  10.869  0.00  0.00    +0.000 C 
ATOM     13  C   UNL     1      45.127   5.707  11.846  0.00  0.00    +0.000 C 
ATOM     14  C   UNL     1      44.094   5.462  12.673  0.00  0.00    +0.000 C 
ATOM     15  N   UNL     1      43.347   4.337  12.351  0.00  0.00    +0.000 NA
BRANCH  11  17
ATOM     16  C   UNL     1      44.431   2.630   9.372  0.00  0.00    +0.000 C 
ATOM     17  O   UNL     1      43.645   2.796  10.554  0.00  0.00    +0.000 OA
ENDBRANCH  11  17
ENDBRANCH  10  13
ENDBRANCH   8  10
ENDBRANCH   7   8
BRANCH   7  18
ATOM     18  C   UNL     1      48.670   6.721  12.579  0.00  0.00    +0.000 C 
BRANCH  18  19
ATOM     19  O   UNL     1      50.050   6.941  12.890  0.00  0.00    +0.000 OA
ATOM     20  H   UNL     1      50.498   6.072  12.860  0.00  0.00    +0.000 HD
ENDBRANCH  18  19
ENDBRANCH   7  18
ENDBRANCH   1   7
BRANCH   4  21
ATOM     21  C   UNL     1      48.331   3.076  17.812  0.00  0.00    +0.000 C 
BRANCH  21  22
ATOM     22  N   UNL     1      49.720   2.815  18.085  0.00  0.00    +0.000 N 
ATOM     23  C   UNL     1      50.474   2.061  17.219  0.00  0.00    +0.000 C 
ATOM     24  O   UNL     1      50.010   1.627  16.169  0.00  0.00    +0.000 OA
ATOM     25  H   UNL     1      50.047   2.951  19.037  0.00  0.00    +0.000 HD
BRANCH  23  26
ATOM     26  C   UNL     1      51.879   1.854  17.582  0.00  0.00    +0.000 A 
ATOM     27  C   UNL     1      52.347   0.564  17.787  0.00  0.00    +0.000 A 
ATOM     28  S   UNL     1      54.012   0.489  18.150  0.00  0.00    +0.000 S 
ATOM     29  C   UNL     1      54.153   2.183  18.098  0.00  0.00    +0.000 A 
ATOM     30  N   UNL     1      55.343   2.792  18.351  0.00  0.00    +0.000 NA
ATOM     31  C   UNL     1      55.300   4.083  18.313  0.00  0.00    +0.000 A 
ATOM     32  N   UNL     1      54.177   4.820  18.038  0.00  0.00    +0.000 N 
ATOM     33  C   UNL     1      52.963   4.247  17.740  0.00  0.00    +0.000 A 
ATOM     34  O   UNL     1      51.988   4.932  17.447  0.00  0.00    +0.000 OA
ATOM     35  C   UNL     1      52.952   2.797  17.788  0.00  0.00    +0.000 A 
ATOM     36  H   UNL     1      54.215   5.828  18.015  0.00  0.00    +0.000 HD
ENDBRANCH  23  26
ENDBRANCH  21  22
ENDBRANCH   4  21
TORSDOF 10
ENDMDL
MODEL 9
REMARK VINA RESULT:    -6.788      4.099      5.167
REMARK INTER + INTRA:         -11.659
REMARK INTER:                 -10.594
REMARK INTRA:                  -1.065
REMARK UNBOUND:                -1.101
REMARK  Name = 
REMARK  11 active torsions:
REMARK  status: ('A' for Active; 'I' for Inactive)
REMARK    1  A    between atoms: C_1  and  O_2
REMARK    2  A    between atoms: O_2  and  C_3
REMARK    3  A    between atoms: C_5  and  C_6
REMARK    4  A    between atoms: C_6  and  N_7
REMARK    5  A    between atoms: N_7  and  CA_8
REMARK    6  A    between atoms: CA_8  and  C_9
REMARK    7  A    between atoms: CA_8  and  C_11
REMARK    8  A    between atoms: C_9  and  O_10
REMARK    9  A    between atoms: C_14  and  C_15
REMARK   10  A    between atoms: C_15  and  N_16
REMARK   11  A    between atoms: C_17  and  C_19
REMARK                            x       y       z     vdW  Elec       q    Type
REMARK                         _______ _______ _______ _____ _____    ______ ____
ROOT
ATOM      1  C   UNL     1      45.493   4.847  12.090  0.00  0.00    +0.000 A 
ATOM      2  C   UNL     1      45.887   6.002  11.412  0.00  0.00    +0.000 A 
ATOM      3  C   UNL     1      46.898   6.789  11.957  0.00  0.00    +0.000 A 
ATOM      4  C   UNL     1      47.464   6.437  13.181  0.00  0.00    +0.000 A 
ATOM      5  C   UNL     1      46.998   5.281  13.794  0.00  0.00    +0.000 A 
ATOM      6  N   UNL     1      46.026   4.492  13.284  0.00  0.00    +0.000 NA
ENDROOT
BRANCH   1   7
ATOM      7  CA  UNL     1      44.441   3.908  11.502  0.00  0.00    +0.000 C 
BRANCH   7   8
ATOM      8  N   UNL     1      45.022   2.788  10.716  0.00  0.00    +0.000 NA
ATOM      9  H   UNL     1      46.033   2.792  10.856  0.00  0.00    +0.000 HD
BRANCH   8  10
ATOM     10  C   UNL     1      44.761   2.953   9.279  0.00  0.00    +0.000 C 
BRANCH  10  13
ATOM     11  C   UNL     1      47.307   1.448   7.053  0.00  0.00    +0.000 C 
ATOM     12  C   UNL     1      46.645   2.652   7.529  0.00  0.00    +0.000 C 
ATOM     13  C   UNL     1      45.684   2.124   8.462  0.00  0.00    +0.000 C 
ATOM     14  C   UNL     1      45.869   0.790   8.452  0.00  0.00    +0.000 C 
ATOM     15  N   UNL     1      46.863   0.348   7.590  0.00  0.00    +0.000 NA
BRANCH  11  17
ATOM     16  C   UNL     1      47.959   2.512   5.077  0.00  0.00    +0.000 C 
ATOM     17  O   UNL     1      48.274   1.616   6.144  0.00  0.00    +0.000 OA
ENDBRANCH  11  17
ENDBRANCH  10  13
ENDBRANCH   8  10
ENDBRANCH   7   8
BRANCH   7  18
ATOM     18  C   UNL     1      43.460   4.750  10.648  0.00  0.00    +0.000 C 
BRANCH  18  19
ATOM     19  O   UNL     1      42.383   5.288  11.420  0.00  0.00    +0.000 OA
ATOM     20  H   UNL     1      42.321   4.763  12.242  0.00  0.00    +0.000 HD
ENDBRANCH  18  19
ENDBRANCH   7  18
ENDBRANCH   1   7
BRANCH   4  21
ATOM     21  C   UNL     1      48.563   7.249  13.793  0.00  0.00    +0.000 C 
BRANCH  21  22
ATOM     22  N   UNL     1      49.782   7.136  13.039  0.00  0.00    +0.000 N 
ATOM     23  C   UNL     1      50.195   8.156  12.217  0.00  0.00    +0.000 C 
ATOM     24  O   UNL     1      49.572   9.209  12.132  0.00  0.00    +0.000 OA
ATOM     25  H   UNL     1      50.170   6.206  12.907  0.00  0.00    +0.000 HD
BRANCH  23  26
ATOM     26  C   UNL     1      51.453   7.947  11.492  0.00  0.00    +0.000 A 
ATOM     27  C   UNL     1      51.425   7.374  10.228  0.00  0.00    +0.000 A 
ATOM     28  S   UNL     1      52.962   7.249   9.500  0.00  0.00    +0.000 S 
ATOM     29  C   UNL     1      53.724   7.907  10.870  0.00  0.00    +0.000 A 
ATOM     30  N   UNL     1      55.076   8.054  10.914  0.00  0.00    +0.000 NA
ATOM     31  C   UNL     1      55.524   8.532  12.028  0.00  0.00    +0.000 A 
ATOM     32  N   UNL     1      54.743   8.883  13.099  0.00  0.00    +0.000 N 
ATOM     33  C   UNL     1      53.372   8.787  13.085  0.00  0.00    +0.000 A 
ATOM     34  O   UNL     1      52.696   9.159  14.040  0.00  0.00    +0.000 OA
ATOM     35  C   UNL     1      52.817   8.236  11.863  0.00  0.00    +0.000 A 
ATOM     36  H   UNL     1      55.159   9.261  13.937  0.00  0.00    +0.000 HD
ENDBRANCH  23  26
ENDBRANCH  21  22
ENDBRANCH   4  21
TORSDOF 10
ENDMDL
