MODEL 1
REMARK VINA RESULT:    -9.005      0.000      0.000
REMARK INTER + INTRA:         -12.495
REMARK INTER:                 -11.637
REMARK INTRA:                  -0.858
REMARK UNBOUND:                -0.858
REMARK  Name = 
REMARK  5 active torsions:
REMARK  status: ('A' for Active; 'I' for Inactive)
REMARK    1  A    between atoms: C_2  and  C_4
REMARK    2  A    between atoms: C_7  and  O_8
REMARK    3  A    between atoms: O_8  and  C_9
REMARK    4  A    between atoms: C_9  and  C_10
REMARK    5  A    between atoms: C_15  and  C_16
REMARK                            x       y       z     vdW  Elec       q    Type
REMARK                         _______ _______ _______ _____ _____    ______ ____
ROOT
ATOM      1  C   UNL     1      44.846   4.666  12.027  0.00  0.00    +0.000 A 
ATOM      2  C   UNL     1      45.521   3.823  12.914  0.00  0.00    +0.000 A 
ATOM      3  C   UNL     1      46.656   4.278  13.579  0.00  0.00    +0.000 A 
ATOM      4  C   UNL     1      47.134   5.568  13.345  0.00  0.00    +0.000 A 
ATOM      5  F   UNL     1      48.250   5.931  13.995  0.00  0.00    +0.000 F 
ATOM      6  C   UNL     1      46.501   6.452  12.455  0.00  0.00    +0.000 A 
ATOM      7  C   UNL     1      45.347   5.965  11.804  0.00  0.00    +0.000 A 
ENDROOT
BRANCH   6   8
ATOM      8  C   UNL     1      47.008   7.824  12.194  0.00  0.00    +0.000 A 
ATOM      9  C   UNL     1      48.360   8.067  11.878  0.00  0.00    +0.000 A 
ATOM     10  C   UNL     1      48.841   9.358  11.622  0.00  0.00    +0.000 A 
ATOM     11  C   UNL     1      47.981  10.446  11.695  0.00  0.00    +0.000 A 
ATOM     12  C   UNL     1      46.649  10.230  12.016  0.00  0.00    +0.000 A 
ATOM     13  F   UNL     1      45.815  11.276  12.096  0.00  0.00    +0.000 F 
ATOM     14  C   UNL     1      46.161   8.947  12.256  0.00  0.00    +0.000 A 
ENDBRANCH   6   8
BRANCH   1  15
ATOM     15  C   UNL     1      43.646   4.191  11.234  0.00  0.00    +0.000 C 
BRANCH  15  16
ATOM     16  O   UNL     1      43.706   4.659   9.884  0.00  0.00    +0.000 OA
BRANCH  16  20
ATOM     17  C   UNL     1      46.451   2.508   7.689  0.00  0.00    +0.000 A 
ATOM     18  C   UNL     1      45.594   1.844   8.571  0.00  0.00    +0.000 A 
ATOM     19  C   UNL     1      44.666   2.584   9.305  0.00  0.00    +0.000 A 
ATOM     20  C   UNL     1      44.627   3.959   9.131  0.00  0.00    +0.000 A 
ATOM     21  N   UNL     1      45.438   4.628   8.285  0.00  0.00    +0.000 NA
ATOM     22  C   UNL     1      46.338   3.891   7.590  0.00  0.00    +0.000 A 
BRANCH  17  24
ATOM     23  N   UNL     1      48.539   2.582   6.444  0.00  0.00    +0.000 N 
ATOM     24  C   UNL     1      47.489   1.830   6.888  0.00  0.00    +0.000 C 
ATOM     25  O   UNL     1      47.430   0.630   6.658  0.00  0.00    +0.000 OA
ATOM     26  H   UNL     1      49.286   2.077   5.984  0.00  0.00    +0.000 HD
ATOM     27  H   UNL     1      48.751   3.500   6.809  0.00  0.00    +0.000 HD
ENDBRANCH  17  24
ENDBRANCH  16  20
ENDBRANCH  15  16
ENDBRANCH   1  15
TORSDOF 5
ENDMDL
MODEL 2
REMARK VINA RESULT:    -8.572      1.660      2.770
REMARK INTER + INTRA:         -11.936
REMARK INTER:                 -10.995
REMARK INTRA:                  -0.941
REMARK UNBOUND:                -0.858
REMARK  Name = 
REMARK  5 active torsions:
REMARK  status: ('A' for Active; 'I' for Inactive)
REMARK    1  A    between atoms: C_2  and  C_4
REMARK    2  A    between atoms: C_7  and  O_8
REMARK    3  A    between atoms: O_8  and  C_9
REMARK    4  A    between atoms: C_9  and  C_10
REMARK    5  A    between atoms: C_15  and  C_16
REMARK                            x       y       z     vdW  Elec       q    Type
REMARK                         _______ _______ _______ _____ _____    ______ ____
ROOT
ATOM      1  C   UNL     1      44.453   4.718  11.507  0.00  0.00    +0.000 A 
ATOM      2  C   UNL     1      43.447   5.662  11.281  0.00  0.00    +0.000 A 
ATOM      3  C   UNL     1      43.728   7.019  11.396  0.00  0.00    +0.000 A 
ATOM      4  C   UNL     1      45.008   7.442  11.758  0.00  0.00    +0.000 A 
ATOM      5  F   UNL     1      45.202   8.764  11.882  0.00  0.00    +0.000 F 
ATOM      6  C   UNL     1      46.054   6.536  12.009  0.00  0.00    +0.000 A 
ATOM      7  C   UNL     1      45.740   5.167  11.874  0.00  0.00    +0.000 A 
ENDROOT
BRANCH   6   8
ATOM      8  C   UNL     1      47.417   6.976  12.403  0.00  0.00    +0.000 A 
ATOM      9  C   UNL     1      48.264   7.658  11.505  0.00  0.00    +0.000 A 
ATOM     10  C   UNL     1      49.547   8.083  11.875  0.00  0.00    +0.000 A 
ATOM     11  C   UNL     1      50.023   7.820  13.153  0.00  0.00    +0.000 A 
ATOM     12  C   UNL     1      49.210   7.140  14.048  0.00  0.00    +0.000 A 
ATOM     13  F   UNL     1      49.666   6.876  15.280  0.00  0.00    +0.000 F 
ATOM     14  C   UNL     1      47.927   6.728  13.691  0.00  0.00    +0.000 A 
ENDBRANCH   6   8
BRANCH   1  15
ATOM     15  C   UNL     1      44.176   3.230  11.456  0.00  0.00    +0.000 C 
BRANCH  15  16
ATOM     16  O   UNL     1      43.637   2.851  10.187  0.00  0.00    +0.000 OA
BRANCH  16  20
ATOM     17  C   UNL     1      46.529   2.521   7.272  0.00  0.00    +0.000 A 
ATOM     18  C   UNL     1      45.824   3.718   7.415  0.00  0.00    +0.000 A 
ATOM     19  C   UNL     1      44.849   3.819   8.410  0.00  0.00    +0.000 A 
ATOM     20  C   UNL     1      44.617   2.720   9.224  0.00  0.00    +0.000 A 
ATOM     21  N   UNL     1      45.285   1.553   9.111  0.00  0.00    +0.000 NA
ATOM     22  C   UNL     1      46.218   1.475   8.133  0.00  0.00    +0.000 A 
BRANCH  17  24
ATOM     23  N   UNL     1      47.526   3.095   5.128  0.00  0.00    +0.000 N 
ATOM     24  C   UNL     1      47.557   2.296   6.235  0.00  0.00    +0.000 C 
ATOM     25  O   UNL     1      48.426   1.447   6.378  0.00  0.00    +0.000 OA
ATOM     26  H   UNL     1      48.297   2.990   4.481  0.00  0.00    +0.000 HD
ATOM     27  H   UNL     1      46.991   3.951   5.083  0.00  0.00    +0.000 HD
ENDBRANCH  17  24
ENDBRANCH  16  20
ENDBRANCH  15  16
ENDBRANCH   1  15
TORSDOF 5
ENDMDL
MODEL 3
REMARK VINA RESULT:    -8.509      2.060      4.038
REMARK INTER + INTRA:         -11.854
REMARK INTER:                 -11.587
REMARK INTRA:                  -0.268
REMARK UNBOUND:                -0.858
REMARK  Name = 
REMARK  5 active torsions:
REMARK  status: ('A' for Active; 'I' for Inactive)
REMARK    1  A    between atoms: C_2  and  C_4
REMARK    2  A    between atoms: C_7  and  O_8
REMARK    3  A    between atoms: O_8  and  C_9
REMARK    4  A    between atoms: C_9  and  C_10
REMARK    5  A    between atoms: C_15  and  C_16
REMARK                            x       y       z     vdW  Elec       q    Type
REMARK                         _______ _______ _______ _____ _____    ______ ____
ROOT
ATOM      1  C   UNL     1      45.529   5.313  11.949  0.00  0.00    +0.000 A 
ATOM      2  C   UNL     1      46.222   6.296  11.238  0.00  0.00    +0.000 A 
ATOM      3  C   UNL     1      47.352   6.889  11.793  0.00  0.00    +0.000 A 
ATOM      4  C   UNL     1      47.783   6.519  13.067  0.00  0.00    +0.000 A 
ATOM      5  F   UNL     1      48.861   7.153  13.554  0.00  0.00    +0.000 F 
ATOM      6  C   UNL     1      47.117   5.545  13.831  0.00  0.00    +0.000 A 
ATOM      7  C   UNL     1      45.981   4.955  13.237  0.00  0.00    +0.000 A 
ENDROOT
BRANCH   6   8
ATOM      8  C   UNL     1      47.564   5.151  15.192  0.00  0.00    +0.000 A 
ATOM      9  C   UNL     1      48.482   5.931  15.925  0.00  0.00    +0.000 A 
ATOM     10  C   UNL     1      48.899   5.568  17.213  0.00  0.00    +0.000 A 
ATOM     11  C   UNL     1      48.421   4.400  17.794  0.00  0.00    +0.000 A 
ATOM     12  C   UNL     1      47.527   3.612  17.084  0.00  0.00    +0.000 A 
ATOM     13  F   UNL     1      47.068   2.481  17.636  0.00  0.00    +0.000 F 
ATOM     14  C   UNL     1      47.096   3.976  15.809  0.00  0.00    +0.000 A 
ENDBRANCH   6   8
BRANCH   1  15
ATOM     15  C   UNL     1      44.257   4.688  11.413  0.00  0.00    +0.000 C 
BRANCH  15  16
ATOM     16  O   UNL     1      44.106   4.952  10.015  0.00  0.00    +0.000 OA
BRANCH  16  20
ATOM     17  C   UNL     1      46.397   2.376   7.758  0.00  0.00    +0.000 A 
ATOM     18  C   UNL     1      45.535   1.865   8.732  0.00  0.00    +0.000 A 
ATOM     19  C   UNL     1      44.761   2.749   9.487  0.00  0.00    +0.000 A 
ATOM     20  C   UNL     1      44.877   4.109   9.241  0.00  0.00    +0.000 A 
ATOM     21  N   UNL     1      45.697   4.630   8.305  0.00  0.00    +0.000 NA
ATOM     22  C   UNL     1      46.446   3.756   7.592  0.00  0.00    +0.000 A 
BRANCH  17  24
ATOM     23  N   UNL     1      48.361   2.137   6.344  0.00  0.00    +0.000 N 
ATOM     24  C   UNL     1      47.281   1.536   6.926  0.00  0.00    +0.000 C 
ATOM     25  O   UNL     1      47.075   0.338   6.790  0.00  0.00    +0.000 OA
ATOM     26  H   UNL     1      49.007   1.524   5.863  0.00  0.00    +0.000 HD
ATOM     27  H   UNL     1      48.701   3.047   6.623  0.00  0.00    +0.000 HD
ENDBRANCH  17  24
ENDBRANCH  16  20
ENDBRANCH  15  16
ENDBRANCH   1  15
TORSDOF 5
ENDMDL
MODEL 4
REMARK VINA RESULT:    -8.483      1.428      1.826
REMARK INTER + INTRA:         -11.821
REMARK INTER:                 -11.240
REMARK INTRA:                  -0.581
REMARK UNBOUND:                -0.858
REMARK  Name = 
REMARK  5 active torsions:
REMARK  status: ('A' for Active; 'I' for Inactive)
REMARK    1  A    between atoms: C_2  and  C_4
REMARK    2  A    between atoms: C_7  and  O_8
REMARK    3  A    between atoms: O_8  and  C_9
REMARK    4  A    between atoms: C_9  and  C_10
REMARK    5  A    between atoms: C_15  and  C_16
REMARK                            x       y       z     vdW  Elec       q    Type
REMARK                         _______ _______ _______ _____ _____    ______ ____
ROOT
ATOM      1  C   UNL     1      44.815   4.018  12.131  0.00  0.00    +0.000 A 
ATOM      2  C   UNL     1      45.870   3.594  12.944  0.00  0.00    +0.000 A 
ATOM      3  C   UNL     1      46.756   4.526  13.477  0.00  0.00    +0.000 A 
ATOM      4  C   UNL     1      46.605   5.882  13.184  0.00  0.00    +0.000 A 
ATOM      5  F   UNL     1      47.512   6.722  13.705  0.00  0.00    +0.000 F 
ATOM      6  C   UNL     1      45.570   6.361  12.363  0.00  0.00    +0.000 A 
ATOM      7  C   UNL     1      44.683   5.394  11.846  0.00  0.00    +0.000 A 
ENDROOT
BRANCH   6   8
ATOM      8  C   UNL     1      45.407   7.802  12.040  0.00  0.00    +0.000 A 
ATOM      9  C   UNL     1      46.300   8.777  12.529  0.00  0.00    +0.000 A 
ATOM     10  C   UNL     1      46.157  10.136  12.220  0.00  0.00    +0.000 A 
ATOM     11  C   UNL     1      45.100  10.558  11.423  0.00  0.00    +0.000 A 
ATOM     12  C   UNL     1      44.202   9.617  10.941  0.00  0.00    +0.000 A 
ATOM     13  F   UNL     1      43.176  10.017  10.178  0.00  0.00    +0.000 F 
ATOM     14  C   UNL     1      44.349   8.261  11.233  0.00  0.00    +0.000 A 
ENDBRANCH   6   8
BRANCH   1  15
ATOM     15  C   UNL     1      43.867   3.033  11.477  0.00  0.00    +0.000 C 
BRANCH  15  16
ATOM     16  O   UNL     1      43.555   3.433  10.140  0.00  0.00    +0.000 OA
BRANCH  16  20
ATOM     17  C   UNL     1      46.578   2.617   7.463  0.00  0.00    +0.000 A 
ATOM     18  C   UNL     1      46.067   3.913   7.556  0.00  0.00    +0.000 A 
ATOM     19  C   UNL     1      45.045   4.178   8.471  0.00  0.00    +0.000 A 
ATOM     20  C   UNL     1      44.574   3.138   9.258  0.00  0.00    +0.000 A 
ATOM     21  N   UNL     1      45.051   1.877   9.192  0.00  0.00    +0.000 NA
ATOM     22  C   UNL     1      46.034   1.641   8.291  0.00  0.00    +0.000 A 
BRANCH  17  24
ATOM     23  N   UNL     1      47.757   2.947   5.362  0.00  0.00    +0.000 N 
ATOM     24  C   UNL     1      47.635   2.220   6.511  0.00  0.00    +0.000 C 
ATOM     25  O   UNL     1      48.396   1.294   6.757  0.00  0.00    +0.000 OA
ATOM     26  H   UNL     1      48.550   2.721   4.773  0.00  0.00    +0.000 HD
ATOM     27  H   UNL     1      47.324   3.851   5.234  0.00  0.00    +0.000 HD
ENDBRANCH  17  24
ENDBRANCH  16  20
ENDBRANCH  15  16
ENDBRANCH   1  15
TORSDOF 5
ENDMDL
MODEL 5
REMARK VINA RESULT:    -8.017      1.715      2.128
REMARK INTER + INTRA:         -11.218
REMARK INTER:                 -10.663
REMARK INTRA:                  -0.555
REMARK UNBOUND:                -0.858
REMARK  Name = 
REMARK  5 active torsions:
REMARK  status: ('A' for Active; 'I' for Inactive)
REMARK    1  A    between atoms: C_2  and  C_4
REMARK    2  A    between atoms: C_7  and  O_8
REMARK    3  A    between atoms: O_8  and  C_9
REMARK    4  A    between atoms: C_9  and  C_10
REMARK    5  A    between atoms: C_15  and  C_16
REMARK                            x       y       z     vdW  Elec       q    Type
REMARK                         _______ _______ _______ _____ _____    ______ ____
ROOT
ATOM      1  C   UNL     1      45.283   5.542  11.778  0.00  0.00    +0.000 A 
ATOM      2  C   UNL     1      45.172   4.673  12.867  0.00  0.00    +0.000 A 
ATOM      3  C   UNL     1      46.103   4.727  13.899  0.00  0.00    +0.000 A 
ATOM      4  C   UNL     1      47.162   5.635  13.840  0.00  0.00    +0.000 A 
ATOM      5  F   UNL     1      48.042   5.613  14.853  0.00  0.00    +0.000 F 
ATOM      6  C   UNL     1      47.329   6.523  12.763  0.00  0.00    +0.000 A 
ATOM      7  C   UNL     1      46.363   6.450  11.737  0.00  0.00    +0.000 A 
ENDROOT
BRANCH   6   8
ATOM      8  C   UNL     1      48.458   7.486  12.688  0.00  0.00    +0.000 A 
ATOM      9  C   UNL     1      48.428   8.597  11.821  0.00  0.00    +0.000 A 
ATOM     10  C   UNL     1      49.486   9.514  11.753  0.00  0.00    +0.000 A 
ATOM     11  C   UNL     1      50.614   9.330  12.543  0.00  0.00    +0.000 A 
ATOM     12  C   UNL     1      50.669   8.236  13.394  0.00  0.00    +0.000 A 
ATOM     13  F   UNL     1      51.757   8.049  14.153  0.00  0.00    +0.000 F 
ATOM     14  C   UNL     1      49.613   7.330  13.477  0.00  0.00    +0.000 A 
ENDBRANCH   6   8
BRANCH   1  15
ATOM     15  C   UNL     1      44.331   5.474  10.602  0.00  0.00    +0.000 C 
BRANCH  15  16
ATOM     16  O   UNL     1      44.053   4.117  10.246  0.00  0.00    +0.000 OA
BRANCH  16  20
ATOM     17  C   UNL     1      46.645   2.645   7.401  0.00  0.00    +0.000 A 
ATOM     18  C   UNL     1      46.034   1.769   8.302  0.00  0.00    +0.000 A 
ATOM     19  C   UNL     1      45.154   2.280   9.258  0.00  0.00    +0.000 A 
ATOM     20  C   UNL     1      44.918   3.646   9.279  0.00  0.00    +0.000 A 
ATOM     21  N   UNL     1      45.490   4.515   8.419  0.00  0.00    +0.000 NA
ATOM     22  C   UNL     1      46.347   3.999   7.507  0.00  0.00    +0.000 A 
BRANCH  17  24
ATOM     23  N   UNL     1      47.825   3.056   5.315  0.00  0.00    +0.000 N 
ATOM     24  C   UNL     1      47.613   2.217   6.372  0.00  0.00    +0.000 C 
ATOM     25  O   UNL     1      48.229   1.166   6.477  0.00  0.00    +0.000 OA
ATOM     26  H   UNL     1      48.565   2.790   4.676  0.00  0.00    +0.000 HD
ATOM     27  H   UNL     1      47.532   4.023   5.312  0.00  0.00    +0.000 HD
ENDBRANCH  17  24
ENDBRANCH  16  20
ENDBRANCH  15  16
ENDBRANCH   1  15
TORSDOF 5
ENDMDL
MODEL 6
REMARK VINA RESULT:    -7.803      3.886      7.118
REMARK INTER + INTRA:         -10.942
REMARK INTER:                 -10.300
REMARK INTRA:                  -0.642
REMARK UNBOUND:                -0.858
REMARK  Name = 
REMARK  5 active torsions:
REMARK  status: ('A' for Active; 'I' for Inactive)
REMARK    1  A    between atoms: C_2  and  C_4
REMARK    2  A    between atoms: C_7  and  O_8
REMARK    3  A    between atoms: O_8  and  C_9
REMARK    4  A    between atoms: C_9  and  C_10
REMARK    5  A    between atoms: C_15  and  C_16
REMARK                            x       y       z     vdW  Elec       q    Type
REMARK                         _______ _______ _______ _____ _____    ______ ____
ROOT
ATOM      1  C   UNL     1      44.480   5.586  11.295  0.00  0.00    +0.000 A 
ATOM      2  C   UNL     1      43.546   4.816  11.993  0.00  0.00    +0.000 A 
ATOM      3  C   UNL     1      43.315   3.496  11.621  0.00  0.00    +0.000 A 
ATOM      4  C   UNL     1      44.000   2.944  10.538  0.00  0.00    +0.000 A 
ATOM      5  F   UNL     1      43.707   1.675  10.213  0.00  0.00    +0.000 F 
ATOM      6  C   UNL     1      44.941   3.676   9.793  0.00  0.00    +0.000 A 
ATOM      7  C   UNL     1      45.160   5.009  10.202  0.00  0.00    +0.000 A 
ENDROOT
BRANCH   6   8
ATOM      8  C   UNL     1      45.668   3.099   8.633  0.00  0.00    +0.000 A 
ATOM      9  C   UNL     1      46.076   3.895   7.543  0.00  0.00    +0.000 A 
ATOM     10  C   UNL     1      46.770   3.357   6.451  0.00  0.00    +0.000 A 
ATOM     11  C   UNL     1      47.059   1.998   6.414  0.00  0.00    +0.000 A 
ATOM     12  C   UNL     1      46.657   1.195   7.471  0.00  0.00    +0.000 A 
ATOM     13  F   UNL     1      46.926  -0.117   7.439  0.00  0.00    +0.000 F 
ATOM     14  C   UNL     1      45.980   1.728   8.568  0.00  0.00    +0.000 A 
ENDBRANCH   6   8
BRANCH   1  15
ATOM     15  C   UNL     1      44.715   7.046  11.624  0.00  0.00    +0.000 C 
BRANCH  15  16
ATOM     16  O   UNL     1      45.495   7.184  12.815  0.00  0.00    +0.000 OA
BRANCH  16  20
ATOM     17  C   UNL     1      49.342   8.393  11.968  0.00  0.00    +0.000 A 
ATOM     18  C   UNL     1      48.290   9.308  11.871  0.00  0.00    +0.000 A 
ATOM     19  C   UNL     1      46.992   8.886  12.165  0.00  0.00    +0.000 A 
ATOM     20  C   UNL     1      46.793   7.568  12.545  0.00  0.00    +0.000 A 
ATOM     21  N   UNL     1      47.789   6.663  12.652  0.00  0.00    +0.000 NA
ATOM     22  C   UNL     1      49.038   7.091  12.351  0.00  0.00    +0.000 A 
BRANCH  17  24
ATOM     23  N   UNL     1      51.688   7.759  11.874  0.00  0.00    +0.000 N 
ATOM     24  C   UNL     1      50.746   8.722  11.651  0.00  0.00    +0.000 C 
ATOM     25  O   UNL     1      51.051   9.806  11.173  0.00  0.00    +0.000 OA
ATOM     26  H   UNL     1      52.626   7.970  11.556  0.00  0.00    +0.000 HD
ATOM     27  H   UNL     1      51.456   6.788  12.030  0.00  0.00    +0.000 HD
ENDBRANCH  17  24
ENDBRANCH  16  20
ENDBRANCH  15  16
ENDBRANCH   1  15
TORSDOF 5
ENDMDL
MODEL 7
REMARK VINA RESULT:    -7.787      1.968      3.320
REMARK INTER + INTRA:         -10.921
REMARK INTER:                 -10.118
REMARK INTRA:                  -0.803
REMARK UNBOUND:                -0.858
REMARK  Name = 
REMARK  5 active torsions:
REMARK  status: ('A' for Active; 'I' for Inactive)
REMARK    1  A    between atoms: C_2  and  C_4
REMARK    2  A    between atoms: C_7  and  O_8
REMARK    3  A    between atoms: O_8  and  C_9
REMARK    4  A    between atoms: C_9  and  C_10
REMARK    5  A    between atoms: C_15  and  C_16
REMARK                            x       y       z     vdW  Elec       q    Type
REMARK                         _______ _______ _______ _____ _____    ______ ____
ROOT
ATOM      1  C   UNL     1      45.507   5.851  12.054  0.00  0.00    +0.000 A 
ATOM      2  C   UNL     1      44.971   7.087  11.680  0.00  0.00    +0.000 A 
ATOM      3  C   UNL     1      45.553   8.265  12.138  0.00  0.00    +0.000 A 
ATOM      4  C   UNL     1      46.658   8.216  12.988  0.00  0.00    +0.000 A 
ATOM      5  F   UNL     1      47.150   9.388  13.418  0.00  0.00    +0.000 F 
ATOM      6  C   UNL     1      47.230   7.001  13.406  0.00  0.00    +0.000 A 
ATOM      7  C   UNL     1      46.624   5.824  12.916  0.00  0.00    +0.000 A 
ENDROOT
BRANCH   6   8
ATOM      8  C   UNL     1      48.401   6.939  14.317  0.00  0.00    +0.000 A 
ATOM      9  C   UNL     1      49.605   7.612  14.024  0.00  0.00    +0.000 A 
ATOM     10  C   UNL     1      50.709   7.565  14.885  0.00  0.00    +0.000 A 
ATOM     11  C   UNL     1      50.643   6.823  16.058  0.00  0.00    +0.000 A 
ATOM     12  C   UNL     1      49.472   6.143  16.359  0.00  0.00    +0.000 A 
ATOM     13  F   UNL     1      49.404   5.420  17.485  0.00  0.00    +0.000 F 
ATOM     14  C   UNL     1      48.365   6.200  15.514  0.00  0.00    +0.000 A 
ENDBRANCH   6   8
BRANCH   1  15
ATOM     15  C   UNL     1      44.867   4.545  11.632  0.00  0.00    +0.000 C 
BRANCH  15  16
ATOM     16  O   UNL     1      44.315   4.645  10.317  0.00  0.00    +0.000 OA
BRANCH  16  20
ATOM     17  C   UNL     1      46.574   2.553   7.579  0.00  0.00    +0.000 A 
ATOM     18  C   UNL     1      45.887   1.864   8.581  0.00  0.00    +0.000 A 
ATOM     19  C   UNL     1      45.122   2.584   9.500  0.00  0.00    +0.000 A 
ATOM     20  C   UNL     1      45.071   3.965   9.383  0.00  0.00    +0.000 A 
ATOM     21  N   UNL     1      45.720   4.657   8.423  0.00  0.00    +0.000 NA
ATOM     22  C   UNL     1      46.465   3.939   7.549  0.00  0.00    +0.000 A 
BRANCH  17  24
ATOM     23  N   UNL     1      48.593   2.530   6.221  0.00  0.00    +0.000 N 
ATOM     24  C   UNL     1      47.436   1.896   6.576  0.00  0.00    +0.000 C 
ATOM     25  O   UNL     1      47.143   0.806   6.104  0.00  0.00    +0.000 OA
ATOM     26  H   UNL     1      49.214   2.015   5.610  0.00  0.00    +0.000 HD
ATOM     27  H   UNL     1      48.988   3.292   6.755  0.00  0.00    +0.000 HD
ENDBRANCH  17  24
ENDBRANCH  16  20
ENDBRANCH  15  16
ENDBRANCH   1  15
TORSDOF 5
ENDMDL
MODEL 8
REMARK VINA RESULT:    -7.323      3.958      7.367
REMARK INTER + INTRA:         -10.322
REMARK INTER:                  -9.878
REMARK INTRA:                  -0.444
REMARK UNBOUND:                -0.858
REMARK  Name = 
REMARK  5 active torsions:
REMARK  status: ('A' for Active; 'I' for Inactive)
REMARK    1  A    between atoms: C_2  and  C_4
REMARK    2  A    between atoms: C_7  and  O_8
REMARK    3  A    between atoms: O_8  and  C_9
REMARK    4  A    between atoms: C_9  and  C_10
REMARK    5  A    between atoms: C_15  and  C_16
REMARK                            x       y       z     vdW  Elec       q    Type
REMARK                         _______ _______ _______ _____ _____    ______ ____
ROOT
ATOM      1  C   UNL     1      44.569   5.239  11.055  0.00  0.00    +0.000 A 
ATOM      2  C   UNL     1      43.619   4.453  11.712  0.00  0.00    +0.000 A 
ATOM      3  C   UNL     1      43.388   3.146  11.295  0.00  0.00    +0.000 A 
ATOM      4  C   UNL     1      44.088   2.624  10.206  0.00  0.00    +0.000 A 
ATOM      5  F   UNL     1      43.794   1.368   9.836  0.00  0.00    +0.000 F 
ATOM      6  C   UNL     1      45.046   3.375   9.502  0.00  0.00    +0.000 A 
ATOM      7  C   UNL     1      45.265   4.692   9.956  0.00  0.00    +0.000 A 
ENDROOT
BRANCH   6   8
ATOM      8  C   UNL     1      45.791   2.830   8.337  0.00  0.00    +0.000 A 
ATOM      9  C   UNL     1      46.296   1.514   8.329  0.00  0.00    +0.000 A 
ATOM     10  C   UNL     1      46.990   0.992   7.230  0.00  0.00    +0.000 A 
ATOM     11  C   UNL     1      47.214   1.786   6.111  0.00  0.00    +0.000 A 
ATOM     12  C   UNL     1      46.736   3.088   6.103  0.00  0.00    +0.000 A 
ATOM     13  F   UNL     1      46.954   3.861   5.031  0.00  0.00    +0.000 F 
ATOM     14  C   UNL     1      46.030   3.607   7.188  0.00  0.00    +0.000 A 
ENDBRANCH   6   8
BRANCH   1  15
ATOM     15  C   UNL     1      44.806   6.686  11.434  0.00  0.00    +0.000 C 
BRANCH  15  16
ATOM     16  O   UNL     1      46.189   7.029  11.310  0.00  0.00    +0.000 OA
BRANCH  16  20
ATOM     17  C   UNL     1      48.282   6.578  14.831  0.00  0.00    +0.000 A 
ATOM     18  C   UNL     1      48.267   7.818  14.188  0.00  0.00    +0.000 A 
ATOM     19  C   UNL     1      47.550   7.959  12.998  0.00  0.00    +0.000 A 
ATOM     20  C   UNL     1      46.876   6.856  12.496  0.00  0.00    +0.000 A 
ATOM     21  N   UNL     1      46.870   5.647  13.096  0.00  0.00    +0.000 NA
ATOM     22  C   UNL     1      47.580   5.532  14.244  0.00  0.00    +0.000 A 
BRANCH  17  24
ATOM     23  N   UNL     1      49.557   7.381  16.740  0.00  0.00    +0.000 N 
ATOM     24  C   UNL     1      49.031   6.311  16.075  0.00  0.00    +0.000 C 
ATOM     25  O   UNL     1      49.149   5.175  16.513  0.00  0.00    +0.000 OA
ATOM     26  H   UNL     1      49.978   7.184  17.640  0.00  0.00    +0.000 HD
ATOM     27  H   UNL     1      49.281   8.335  16.553  0.00  0.00    +0.000 HD
ENDBRANCH  17  24
ENDBRANCH  16  20
ENDBRANCH  15  16
ENDBRANCH   1  15
TORSDOF 5
ENDMDL
MODEL 9
REMARK VINA RESULT:    -7.048      5.119      8.278
REMARK INTER + INTRA:          -9.966
REMARK INTER:                  -9.025
REMARK INTRA:                  -0.941
REMARK UNBOUND:                -0.858
REMARK  Name = 
REMARK  5 active torsions:
REMARK  status: ('A' for Active; 'I' for Inactive)
REMARK    1  A    between atoms: C_2  and  C_4
REMARK    2  A    between atoms: C_7  and  O_8
REMARK    3  A    between atoms: O_8  and  C_9
REMARK    4  A    between atoms: C_9  and  C_10
REMARK    5  A    between atoms: C_15  and  C_16
REMARK                            x       y       z     vdW  Elec       q    Type
REMARK                         _______ _______ _______ _____ _____    ______ ____
ROOT
ATOM      1  C   UNL     1      47.182   7.314  13.262  0.00  0.00    +0.000 A 
ATOM      2  C   UNL     1      46.413   8.481  13.263  0.00  0.00    +0.000 A 
ATOM      3  C   UNL     1      45.262   8.556  12.485  0.00  0.00    +0.000 A 
ATOM      4  C   UNL     1      44.885   7.476  11.685  0.00  0.00    +0.000 A 
ATOM      5  F   UNL     1      43.782   7.627  10.936  0.00  0.00    +0.000 F 
ATOM      6  C   UNL     1      45.628   6.284  11.637  0.00  0.00    +0.000 A 
ATOM      7  C   UNL     1      46.784   6.234  12.445  0.00  0.00    +0.000 A 
ENDROOT
BRANCH   6   8
ATOM      8  C   UNL     1      45.239   5.132  10.783  0.00  0.00    +0.000 A 
ATOM      9  C   UNL     1      44.496   4.048  11.293  0.00  0.00    +0.000 A 
ATOM     10  C   UNL     1      44.118   2.965  10.489  0.00  0.00    +0.000 A 
ATOM     11  C   UNL     1      44.492   2.929   9.151  0.00  0.00    +0.000 A 
ATOM     12  C   UNL     1      45.233   3.980   8.632  0.00  0.00    +0.000 A 
ATOM     13  F   UNL     1      45.603   3.950   7.345  0.00  0.00    +0.000 F 
ATOM     14  C   UNL     1      45.598   5.069   9.423  0.00  0.00    +0.000 A 
ENDBRANCH   6   8
BRANCH   1  15
ATOM     15  C   UNL     1      48.476   7.211  14.042  0.00  0.00    +0.000 C 
BRANCH  15  16
ATOM     16  O   UNL     1      48.681   5.880  14.522  0.00  0.00    +0.000 OA
BRANCH  16  20
ATOM     17  C   UNL     1      48.009   5.536  18.573  0.00  0.00    +0.000 A 
ATOM     18  C   UNL     1      47.511   4.563  17.703  0.00  0.00    +0.000 A 
ATOM     19  C   UNL     1      47.750   4.689  16.333  0.00  0.00    +0.000 A 
ATOM     20  C   UNL     1      48.477   5.781  15.884  0.00  0.00    +0.000 A 
ATOM     21  N   UNL     1      48.973   6.734  16.701  0.00  0.00    +0.000 NA
ATOM     22  C   UNL     1      48.720   6.597  18.024  0.00  0.00    +0.000 A 
BRANCH  17  24
ATOM     23  N   UNL     1      48.217   4.421  20.724  0.00  0.00    +0.000 N 
ATOM     24  C   UNL     1      47.789   5.518  20.033  0.00  0.00    +0.000 C 
ATOM     25  O   UNL     1      47.273   6.466  20.609  0.00  0.00    +0.000 OA
ATOM     26  H   UNL     1      48.147   4.474  21.733  0.00  0.00    +0.000 HD
ATOM     27  H   UNL     1      48.855   3.740  20.336  0.00  0.00    +0.000 HD
ENDBRANCH  17  24
ENDBRANCH  16  20
ENDBRANCH  15  16
ENDBRANCH   1  15
TORSDOF 5
ENDMDL
