MODEL 1
REMARK VINA RESULT:    -8.487      0.000      0.000
REMARK INTER + INTRA:         -13.278
REMARK INTER:                 -12.456
REMARK INTRA:                  -0.822
REMARK UNBOUND:                -0.822
REMARK  Name = 
REMARK  8 active torsions:
REMARK  status: ('A' for Active; 'I' for Inactive)
REMARK    1  A    between atoms: C_2  and  C_4
REMARK    2  A    between atoms: N_8  and  C_9
REMARK    3  A    between atoms: C_9  and  C_10
REMARK    4  A    between atoms: C_10  and  C_11
REMARK    5  A    between atoms: C_15  and  O_16
REMARK    6  A    between atoms: O_16  and  C_17
REMARK    7  A    between atoms: N_19  and  C_20
REMARK    8  A    between atoms: C_20  and  C_21
REMARK                            x       y       z     vdW  Elec       q    Type
REMARK                         _______ _______ _______ _____ _____    ______ ____
ROOT
ATOM      1  C   UNL     1      43.652   5.554  12.123  0.00  0.00    +0.000 C 
ENDROOT
BRANCH   1   2
ATOM      2  C   UNL     1      45.120   5.635  12.494  0.00  0.00    +0.000 A 
ATOM      3  C   UNL     1      45.904   6.641  11.912  0.00  0.00    +0.000 A 
ATOM      4  C   UNL     1      47.255   6.777  12.245  0.00  0.00    +0.000 A 
ATOM      5  C   UNL     1      47.850   5.906  13.161  0.00  0.00    +0.000 A 
ATOM      6  C   UNL     1      47.091   4.893  13.734  0.00  0.00    +0.000 A 
ATOM      7  C   UNL     1      45.737   4.765  13.407  0.00  0.00    +0.000 A 
BRANCH   6   8
ATOM      8  O   UNL     1      47.543   3.992  14.665  0.00  0.00    +0.000 OA
BRANCH   8   9
ATOM      9  C   UNL     1      47.445   4.317  16.071  0.00  0.00    +0.000 C 
ATOM     10  C   UNL     1      48.438   5.345  16.650  0.00  0.00    +0.000 C 
ATOM     11  N   UNL     1      48.854   4.391  17.698  0.00  0.00    +0.000 NA
ATOM     12  C   UNL     1      48.134   3.301  17.011  0.00  0.00    +0.000 C 
BRANCH  11  13
ATOM     13  C   UNL     1      48.215   4.714  18.984  0.00  0.00    +0.000 C 
BRANCH  13  14
ATOM     14  C   UNL     1      49.239   4.826  20.113  0.00  0.00    +0.000 C 
ATOM     15  F   UNL     1      50.472   4.536  19.613  0.00  0.00    +0.000 F 
ENDBRANCH  13  14
ENDBRANCH  11  13
ENDBRANCH   8   9
ENDBRANCH   6   8
ENDBRANCH   1   2
BRANCH   1  16
ATOM     16  C   UNL     1      43.280   4.437  11.141  0.00  0.00    +0.000 C 
BRANCH  16  21
ATOM     17  C   UNL     1      46.464   2.467   7.746  0.00  0.00    +0.000 A 
ATOM     18  C   UNL     1      45.624   1.829   8.649  0.00  0.00    +0.000 A 
ATOM     19  C   UNL     1      44.699   2.589   9.363  0.00  0.00    +0.000 A 
ATOM     20  C   UNL     1      44.637   3.968   9.175  0.00  0.00    +0.000 A 
ATOM     21  N   UNL     1      43.682   4.769   9.783  0.00  0.00    +0.000 N 
ATOM     22  N   UNL     1      45.476   4.601   8.330  0.00  0.00    +0.000 NA
ATOM     23  C   UNL     1      46.373   3.846   7.641  0.00  0.00    +0.000 A 
ATOM     24  H   UNL     1      43.942   5.737   9.609  0.00  0.00    +0.000 HD
BRANCH  17  26
ATOM     25  N   UNL     1      48.534   2.417   6.484  0.00  0.00    +0.000 N 
ATOM     26  C   UNL     1      47.432   1.732   6.912  0.00  0.00    +0.000 C 
ATOM     27  O   UNL     1      47.276   0.547   6.644  0.00  0.00    +0.000 OA
ATOM     28  H   UNL     1      49.242   1.871   6.005  0.00  0.00    +0.000 HD
ATOM     29  H   UNL     1      48.824   3.288   6.903  0.00  0.00    +0.000 HD
ENDBRANCH  17  26
ENDBRANCH  16  21
ENDBRANCH   1  16
TORSDOF 8
ENDMDL
MODEL 2
REMARK VINA RESULT:    -7.312      3.689      4.418
REMARK INTER + INTRA:         -11.554
REMARK INTER:                 -11.181
REMARK INTRA:                  -0.373
REMARK UNBOUND:                -0.822
REMARK  Name = 
REMARK  8 active torsions:
REMARK  status: ('A' for Active; 'I' for Inactive)
REMARK    1  A    between atoms: C_2  and  C_4
REMARK    2  A    between atoms: N_8  and  C_9
REMARK    3  A    between atoms: C_9  and  C_10
REMARK    4  A    between atoms: C_10  and  C_11
REMARK    5  A    between atoms: C_15  and  O_16
REMARK    6  A    between atoms: O_16  and  C_17
REMARK    7  A    between atoms: N_19  and  C_20
REMARK    8  A    between atoms: C_20  and  C_21
REMARK                            x       y       z     vdW  Elec       q    Type
REMARK                         _______ _______ _______ _____ _____    ______ ____
ROOT
ATOM      1  C   UNL     1      44.633   4.938  11.958  0.00  0.00    +0.000 C 
ENDROOT
BRANCH   1   2
ATOM      2  C   UNL     1      45.045   6.390  12.105  0.00  0.00    +0.000 A 
ATOM      3  C   UNL     1      44.295   7.370  11.440  0.00  0.00    +0.000 A 
ATOM      4  C   UNL     1      44.613   8.725  11.569  0.00  0.00    +0.000 A 
ATOM      5  C   UNL     1      45.693   9.127  12.360  0.00  0.00    +0.000 A 
ATOM      6  C   UNL     1      46.456   8.167  13.014  0.00  0.00    +0.000 A 
ATOM      7  C   UNL     1      46.129   6.812  12.891  0.00  0.00    +0.000 A 
BRANCH   6   8
ATOM      8  O   UNL     1      47.520   8.427  13.840  0.00  0.00    +0.000 OA
BRANCH   8   9
ATOM      9  C   UNL     1      48.796   8.782  13.260  0.00  0.00    +0.000 C 
ATOM     10  C   UNL     1      48.914   8.810  11.723  0.00  0.00    +0.000 C 
ATOM     11  N   UNL     1      50.069   7.890  11.768  0.00  0.00    +0.000 NA
ATOM     12  C   UNL     1      49.814   7.619  13.197  0.00  0.00    +0.000 C 
BRANCH  11  13
ATOM     13  C   UNL     1      51.331   8.626  11.590  0.00  0.00    +0.000 C 
BRANCH  13  14
ATOM     14  C   UNL     1      52.208   7.995  10.509  0.00  0.00    +0.000 C 
ATOM     15  F   UNL     1      51.662   6.799  10.150  0.00  0.00    +0.000 F 
ENDBRANCH  13  14
ENDBRANCH  11  13
ENDBRANCH   8   9
ENDBRANCH   6   8
ENDBRANCH   1   2
BRANCH   1  16
ATOM     16  C   UNL     1      43.421   4.684  11.056  0.00  0.00    +0.000 C 
BRANCH  16  21
ATOM     17  C   UNL     1      46.421   2.337   7.732  0.00  0.00    +0.000 A 
ATOM     18  C   UNL     1      45.623   1.805   8.737  0.00  0.00    +0.000 A 
ATOM     19  C   UNL     1      44.740   2.645   9.412  0.00  0.00    +0.000 A 
ATOM     20  C   UNL     1      44.676   3.998   9.084  0.00  0.00    +0.000 A 
ATOM     21  N   UNL     1      43.757   4.868   9.652  0.00  0.00    +0.000 N 
ATOM     22  N   UNL     1      45.475   4.530   8.138  0.00  0.00    +0.000 NA
ATOM     23  C   UNL     1      46.332   3.699   7.488  0.00  0.00    +0.000 A 
ATOM     24  H   UNL     1      44.013   5.810   9.366  0.00  0.00    +0.000 HD
BRANCH  17  26
ATOM     25  N   UNL     1      48.521   2.080   6.548  0.00  0.00    +0.000 N 
ATOM     26  C   UNL     1      47.341   1.508   6.933  0.00  0.00    +0.000 C 
ATOM     27  O   UNL     1      47.080   0.345   6.657  0.00  0.00    +0.000 OA
ATOM     28  H   UNL     1      49.189   1.467   6.094  0.00  0.00    +0.000 HD
ATOM     29  H   UNL     1      48.880   2.919   6.979  0.00  0.00    +0.000 HD
ENDBRANCH  17  26
ENDBRANCH  16  21
ENDBRANCH   1  16
TORSDOF 8
ENDMDL
MODEL 3
REMARK VINA RESULT:    -7.294      3.384      4.498
REMARK INTER + INTRA:         -11.527
REMARK INTER:                 -11.293
REMARK INTRA:                  -0.234
REMARK UNBOUND:                -0.822
REMARK  Name = 
REMARK  8 active torsions:
REMARK  status: ('A' for Active; 'I' for Inactive)
REMARK    1  A    between atoms: C_2  and  C_4
REMARK    2  A    between atoms: N_8  and  C_9
REMARK    3  A    between atoms: C_9  and  C_10
REMARK    4  A    between atoms: C_10  and  C_11
REMARK    5  A    between atoms: C_15  and  O_16
REMARK    6  A    between atoms: O_16  and  C_17
REMARK    7  A    between atoms: N_19  and  C_20
REMARK    8  A    between atoms: C_20  and  C_21
REMARK                            x       y       z     vdW  Elec       q    Type
REMARK                         _______ _______ _______ _____ _____    ______ ____
ROOT
ATOM      1  C   UNL     1      43.438   5.509  12.176  0.00  0.00    +0.000 C 
ENDROOT
BRANCH   1   2
ATOM      2  C   UNL     1      44.835   5.644  12.752  0.00  0.00    +0.000 A 
ATOM      3  C   UNL     1      45.477   4.492  13.228  0.00  0.00    +0.000 A 
ATOM      4  C   UNL     1      46.776   4.558  13.739  0.00  0.00    +0.000 A 
ATOM      5  C   UNL     1      47.457   5.777  13.791  0.00  0.00    +0.000 A 
ATOM      6  C   UNL     1      46.828   6.931  13.338  0.00  0.00    +0.000 A 
ATOM      7  C   UNL     1      45.532   6.860  12.818  0.00  0.00    +0.000 A 
BRANCH   6   8
ATOM      8  O   UNL     1      47.392   8.181  13.307  0.00  0.00    +0.000 OA
BRANCH   8   9
ATOM      9  C   UNL     1      48.432   8.464  12.343  0.00  0.00    +0.000 C 
ATOM     10  C   UNL     1      49.329   7.299  11.878  0.00  0.00    +0.000 C 
ATOM     11  N   UNL     1      50.545   8.054  12.246  0.00  0.00    +0.000 NA
ATOM     12  C   UNL     1      49.723   9.058  12.952  0.00  0.00    +0.000 C 
BRANCH  11  13
ATOM     13  C   UNL     1      51.179   8.639  11.054  0.00  0.00    +0.000 C 
BRANCH  13  14
ATOM     14  C   UNL     1      52.079   7.632  10.339  0.00  0.00    +0.000 C 
ATOM     15  F   UNL     1      52.493   8.177   9.161  0.00  0.00    +0.000 F 
ENDBRANCH  13  14
ENDBRANCH  11  13
ENDBRANCH   8   9
ENDBRANCH   6   8
ENDBRANCH   1   2
BRANCH   1  16
ATOM     16  C   UNL     1      43.246   4.369  11.170  0.00  0.00    +0.000 C 
BRANCH  16  21
ATOM     17  C   UNL     1      46.483   2.538   7.746  0.00  0.00    +0.000 A 
ATOM     18  C   UNL     1      45.623   1.864   8.603  0.00  0.00    +0.000 A 
ATOM     19  C   UNL     1      44.689   2.596   9.334  0.00  0.00    +0.000 A 
ATOM     20  C   UNL     1      44.638   3.982   9.209  0.00  0.00    +0.000 A 
ATOM     21  N   UNL     1      43.676   4.760   9.836  0.00  0.00    +0.000 N 
ATOM     22  N   UNL     1      45.495   4.649   8.410  0.00  0.00    +0.000 NA
ATOM     23  C   UNL     1      46.401   3.922   7.703  0.00  0.00    +0.000 A 
ATOM     24  H   UNL     1      43.944   5.734   9.712  0.00  0.00    +0.000 HD
BRANCH  17  26
ATOM     25  N   UNL     1      48.541   2.555   6.464  0.00  0.00    +0.000 N 
ATOM     26  C   UNL     1      47.462   1.836   6.896  0.00  0.00    +0.000 C 
ATOM     27  O   UNL     1      47.336   0.651   6.620  0.00  0.00    +0.000 OA
ATOM     28  H   UNL     1      49.259   2.033   5.973  0.00  0.00    +0.000 HD
ATOM     29  H   UNL     1      48.812   3.430   6.888  0.00  0.00    +0.000 HD
ENDBRANCH  17  26
ENDBRANCH  16  21
ENDBRANCH   1  16
TORSDOF 8
ENDMDL
MODEL 4
REMARK VINA RESULT:    -7.174      2.401      2.733
REMARK INTER + INTRA:         -11.352
REMARK INTER:                 -10.752
REMARK INTRA:                  -0.600
REMARK UNBOUND:                -0.822
REMARK  Name = 
REMARK  8 active torsions:
REMARK  status: ('A' for Active; 'I' for Inactive)
REMARK    1  A    between atoms: C_2  and  C_4
REMARK    2  A    between atoms: N_8  and  C_9
REMARK    3  A    between atoms: C_9  and  C_10
REMARK    4  A    between atoms: C_10  and  C_11
REMARK    5  A    between atoms: C_15  and  O_16
REMARK    6  A    between atoms: O_16  and  C_17
REMARK    7  A    between atoms: N_19  and  C_20
REMARK    8  A    between atoms: C_20  and  C_21
REMARK                            x       y       z     vdW  Elec       q    Type
REMARK                         _______ _______ _______ _____ _____    ______ ____
ROOT
ATOM      1  C   UNL     1      44.533   4.741  12.137  0.00  0.00    +0.000 C 
ENDROOT
BRANCH   1   2
ATOM      2  C   UNL     1      45.238   6.082  12.071  0.00  0.00    +0.000 A 
ATOM      3  C   UNL     1      44.461   7.243  11.969  0.00  0.00    +0.000 A 
ATOM      4  C   UNL     1      45.062   8.505  11.938  0.00  0.00    +0.000 A 
ATOM      5  C   UNL     1      46.452   8.630  12.000  0.00  0.00    +0.000 A 
ATOM      6  C   UNL     1      47.238   7.487  12.085  0.00  0.00    +0.000 A 
ATOM      7  C   UNL     1      46.633   6.226  12.127  0.00  0.00    +0.000 A 
BRANCH   6   8
ATOM      8  O   UNL     1      48.606   7.471  12.182  0.00  0.00    +0.000 OA
BRANCH   8   9
ATOM      9  C   UNL     1      49.224   7.033  13.413  0.00  0.00    +0.000 C 
ATOM     10  C   UNL     1      48.556   7.435  14.745  0.00  0.00    +0.000 C 
ATOM     11  N   UNL     1      49.821   8.023  15.231  0.00  0.00    +0.000 NA
ATOM     12  C   UNL     1      50.409   7.909  13.881  0.00  0.00    +0.000 C 
BRANCH  11  13
ATOM     13  C   UNL     1      50.492   7.115  16.174  0.00  0.00    +0.000 C 
BRANCH  13  14
ATOM     14  C   UNL     1      50.969   7.849  17.427  0.00  0.00    +0.000 C 
ATOM     15  F   UNL     1      49.884   8.374  18.063  0.00  0.00    +0.000 F 
ENDBRANCH  13  14
ENDBRANCH  11  13
ENDBRANCH   8   9
ENDBRANCH   6   8
ENDBRANCH   1   2
BRANCH   1  16
ATOM     16  C   UNL     1      43.399   4.542  11.125  0.00  0.00    +0.000 C 
BRANCH  16  21
ATOM     17  C   UNL     1      46.476   2.474   7.690  0.00  0.00    +0.000 A 
ATOM     18  C   UNL     1      45.597   1.864   8.574  0.00  0.00    +0.000 A 
ATOM     19  C   UNL     1      44.715   2.658   9.304  0.00  0.00    +0.000 A 
ATOM     20  C   UNL     1      44.735   4.043   9.151  0.00  0.00    +0.000 A 
ATOM     21  N   UNL     1      43.825   4.883   9.777  0.00  0.00    +0.000 N 
ATOM     22  N   UNL     1      45.612   4.646   8.325  0.00  0.00    +0.000 NA
ATOM     23  C   UNL     1      46.466   3.858   7.619  0.00  0.00    +0.000 A 
ATOM     24  H   UNL     1      44.142   5.838   9.628  0.00  0.00    +0.000 HD
BRANCH  17  26
ATOM     25  N   UNL     1      48.507   2.358   6.369  0.00  0.00    +0.000 N 
ATOM     26  C   UNL     1      47.403   1.704   6.839  0.00  0.00    +0.000 C 
ATOM     27  O   UNL     1      47.214   0.519   6.596  0.00  0.00    +0.000 OA
ATOM     28  H   UNL     1      49.188   1.789   5.878  0.00  0.00    +0.000 HD
ATOM     29  H   UNL     1      48.828   3.228   6.765  0.00  0.00    +0.000 HD
ENDBRANCH  17  26
ENDBRANCH  16  21
ENDBRANCH   1  16
TORSDOF 8
ENDMDL
MODEL 5
REMARK VINA RESULT:    -6.735      3.634      8.709
REMARK INTER + INTRA:         -10.707
REMARK INTER:                  -9.991
REMARK INTRA:                  -0.716
REMARK UNBOUND:                -0.822
REMARK  Name = 
REMARK  8 active torsions:
REMARK  status: ('A' for Active; 'I' for Inactive)
REMARK    1  A    between atoms: C_2  and  C_4
REMARK    2  A    between atoms: N_8  and  C_9
REMARK    3  A    between atoms: C_9  and  C_10
REMARK    4  A    between atoms: C_10  and  C_11
REMARK    5  A    between atoms: C_15  and  O_16
REMARK    6  A    between atoms: O_16  and  C_17
REMARK    7  A    between atoms: N_19  and  C_20
REMARK    8  A    between atoms: C_20  and  C_21
REMARK                            x       y       z     vdW  Elec       q    Type
REMARK                         _______ _______ _______ _____ _____    ______ ____
ROOT
ATOM      1  C   UNL     1      46.379   6.845  12.040  0.00  0.00    +0.000 C 
ENDROOT
BRANCH   1   2
ATOM      2  C   UNL     1      45.270   5.817  11.930  0.00  0.00    +0.000 A 
ATOM      3  C   UNL     1      44.182   5.908  12.809  0.00  0.00    +0.000 A 
ATOM      4  C   UNL     1      43.119   5.004  12.728  0.00  0.00    +0.000 A 
ATOM      5  C   UNL     1      43.125   3.987  11.770  0.00  0.00    +0.000 A 
ATOM      6  C   UNL     1      44.204   3.873  10.901  0.00  0.00    +0.000 A 
ATOM      7  C   UNL     1      45.262   4.785  10.978  0.00  0.00    +0.000 A 
BRANCH   6   8
ATOM      8  O   UNL     1      44.321   2.942   9.900  0.00  0.00    +0.000 OA
BRANCH   8   9
ATOM      9  C   UNL     1      45.568   2.834   9.176  0.00  0.00    +0.000 C 
ATOM     10  C   UNL     1      45.656   3.480   7.779  0.00  0.00    +0.000 C 
ATOM     11  N   UNL     1      46.102   2.202   7.187  0.00  0.00    +0.000 NA
ATOM     12  C   UNL     1      45.763   1.491   8.435  0.00  0.00    +0.000 C 
BRANCH  11  13
ATOM     13  C   UNL     1      47.556   2.208   6.964  0.00  0.00    +0.000 C 
BRANCH  13  14
ATOM     14  C   UNL     1      47.902   2.294   5.478  0.00  0.00    +0.000 C 
ATOM     15  F   UNL     1      46.900   2.959   4.836  0.00  0.00    +0.000 F 
ENDBRANCH  13  14
ENDBRANCH  11  13
ENDBRANCH   8   9
ENDBRANCH   6   8
ENDBRANCH   1   2
BRANCH   1  16
ATOM     16  C   UNL     1      46.663   7.360  13.455  0.00  0.00    +0.000 C 
BRANCH  16  21
ATOM     17  C   UNL     1      48.615   4.190  16.874  0.00  0.00    +0.000 A 
ATOM     18  C   UNL     1      47.519   4.027  16.038  0.00  0.00    +0.000 A 
ATOM     19  C   UNL     1      47.282   4.975  15.045  0.00  0.00    +0.000 A 
ATOM     20  C   UNL     1      48.130   6.072  14.912  0.00  0.00    +0.000 A 
ATOM     21  N   UNL     1      48.005   7.002  13.890  0.00  0.00    +0.000 N 
ATOM     22  N   UNL     1      49.173   6.259  15.745  0.00  0.00    +0.000 NA
ATOM     23  C   UNL     1      49.392   5.326  16.709  0.00  0.00    +0.000 A 
ATOM     24  H   UNL     1      48.635   7.772  14.101  0.00  0.00    +0.000 HD
BRANCH  17  26
ATOM     25  N   UNL     1      48.271   3.258  19.087  0.00  0.00    +0.000 N 
ATOM     26  C   UNL     1      48.969   3.206  17.913  0.00  0.00    +0.000 C 
ATOM     27  O   UNL     1      49.825   2.351  17.721  0.00  0.00    +0.000 OA
ATOM     28  H   UNL     1      48.448   2.510  19.747  0.00  0.00    +0.000 HD
ATOM     29  H   UNL     1      47.397   3.755  19.172  0.00  0.00    +0.000 HD
ENDBRANCH  17  26
ENDBRANCH  16  21
ENDBRANCH   1  16
TORSDOF 8
ENDMDL
MODEL 6
REMARK VINA RESULT:    -6.407      3.945      9.152
REMARK INTER + INTRA:         -10.225
REMARK INTER:                  -9.638
REMARK INTRA:                  -0.587
REMARK UNBOUND:                -0.822
REMARK  Name = 
REMARK  8 active torsions:
REMARK  status: ('A' for Active; 'I' for Inactive)
REMARK    1  A    between atoms: C_2  and  C_4
REMARK    2  A    between atoms: N_8  and  C_9
REMARK    3  A    between atoms: C_9  and  C_10
REMARK    4  A    between atoms: C_10  and  C_11
REMARK    5  A    between atoms: C_15  and  O_16
REMARK    6  A    between atoms: O_16  and  C_17
REMARK    7  A    between atoms: N_19  and  C_20
REMARK    8  A    between atoms: C_20  and  C_21
REMARK                            x       y       z     vdW  Elec       q    Type
REMARK                         _______ _______ _______ _____ _____    ______ ____
ROOT
ATOM      1  C   UNL     1      47.422   4.744  14.170  0.00  0.00    +0.000 C 
ENDROOT
BRANCH   1   2
ATOM      2  C   UNL     1      46.408   5.324  13.204  0.00  0.00    +0.000 A 
ATOM      3  C   UNL     1      46.113   6.693  13.283  0.00  0.00    +0.000 A 
ATOM      4  C   UNL     1      45.209   7.282  12.395  0.00  0.00    +0.000 A 
ATOM      5  C   UNL     1      44.575   6.514  11.415  0.00  0.00    +0.000 A 
ATOM      6  C   UNL     1      44.844   5.152  11.334  0.00  0.00    +0.000 A 
ATOM      7  C   UNL     1      45.757   4.567  12.217  0.00  0.00    +0.000 A 
BRANCH   6   8
ATOM      8  O   UNL     1      44.314   4.294  10.404  0.00  0.00    +0.000 OA
BRANCH   8   9
ATOM      9  C   UNL     1      45.198   3.612   9.485  0.00  0.00    +0.000 C 
ATOM     10  C   UNL     1      45.986   4.462   8.468  0.00  0.00    +0.000 C 
ATOM     11  N   UNL     1      45.466   3.651   7.348  0.00  0.00    +0.000 NA
ATOM     12  C   UNL     1      44.493   3.005   8.251  0.00  0.00    +0.000 C 
BRANCH  11  13
ATOM     13  C   UNL     1      46.477   2.685   6.888  0.00  0.00    +0.000 C 
BRANCH  13  14
ATOM     14  C   UNL     1      46.872   2.928   5.432  0.00  0.00    +0.000 C 
ATOM     15  F   UNL     1      48.068   2.318   5.199  0.00  0.00    +0.000 F 
ENDBRANCH  13  14
ENDBRANCH  11  13
ENDBRANCH   8   9
ENDBRANCH   6   8
ENDBRANCH   1   2
BRANCH   1  16
ATOM     16  C   UNL     1      46.902   4.465  15.585  0.00  0.00    +0.000 C 
BRANCH  16  21
ATOM     17  C   UNL     1      51.169   2.666  17.611  0.00  0.00    +0.000 A 
ATOM     18  C   UNL     1      50.544   3.891  17.803  0.00  0.00    +0.000 A 
ATOM     19  C   UNL     1      49.271   4.089  17.270  0.00  0.00    +0.000 A 
ATOM     20  C   UNL     1      48.653   3.072  16.548  0.00  0.00    +0.000 A 
ATOM     21  N   UNL     1      47.354   3.170  16.070  0.00  0.00    +0.000 N 
ATOM     22  N   UNL     1      49.268   1.894  16.323  0.00  0.00    +0.000 NA
ATOM     23  C   UNL     1      50.510   1.715  16.848  0.00  0.00    +0.000 A 
ATOM     24  H   UNL     1      47.195   2.374  15.456  0.00  0.00    +0.000 HD
BRANCH  17  26
ATOM     25  N   UNL     1      52.799   1.035  18.363  0.00  0.00    +0.000 N 
ATOM     26  C   UNL     1      52.490   2.355  18.187  0.00  0.00    +0.000 C 
ATOM     27  O   UNL     1      53.294   3.237  18.461  0.00  0.00    +0.000 OA
ATOM     28  H   UNL     1      53.748   0.833  18.656  0.00  0.00    +0.000 HD
ATOM     29  H   UNL     1      52.287   0.296  17.905  0.00  0.00    +0.000 HD
ENDBRANCH  17  26
ENDBRANCH  16  21
ENDBRANCH   1  16
TORSDOF 8
ENDMDL
MODEL 7
REMARK VINA RESULT:    -6.150      4.731      7.968
REMARK INTER + INTRA:          -9.848
REMARK INTER:                  -9.193
REMARK INTRA:                  -0.656
REMARK UNBOUND:                -0.822
REMARK  Name = 
REMARK  8 active torsions:
REMARK  status: ('A' for Active; 'I' for Inactive)
REMARK    1  A    between atoms: C_2  and  C_4
REMARK    2  A    between atoms: N_8  and  C_9
REMARK    3  A    between atoms: C_9  and  C_10
REMARK    4  A    between atoms: C_10  and  C_11
REMARK    5  A    between atoms: C_15  and  O_16
REMARK    6  A    between atoms: O_16  and  C_17
REMARK    7  A    between atoms: N_19  and  C_20
REMARK    8  A    between atoms: C_20  and  C_21
REMARK                            x       y       z     vdW  Elec       q    Type
REMARK                         _______ _______ _______ _____ _____    ______ ____
ROOT
ATOM      1  C   UNL     1      44.964   7.760  12.167  0.00  0.00    +0.000 C 
ENDROOT
BRANCH   1   2
ATOM      2  C   UNL     1      45.055   6.248  12.122  0.00  0.00    +0.000 A 
ATOM      3  C   UNL     1      45.818   5.593  13.099  0.00  0.00    +0.000 A 
ATOM      4  C   UNL     1      45.908   4.198  13.119  0.00  0.00    +0.000 A 
ATOM      5  C   UNL     1      45.243   3.430  12.160  0.00  0.00    +0.000 A 
ATOM      6  C   UNL     1      44.496   4.065  11.175  0.00  0.00    +0.000 A 
ATOM      7  C   UNL     1      44.399   5.460  11.163  0.00  0.00    +0.000 A 
BRANCH   6   8
ATOM      8  O   UNL     1      43.774   3.431  10.196  0.00  0.00    +0.000 OA
BRANCH   8   9
ATOM      9  C   UNL     1      44.391   3.177   8.913  0.00  0.00    +0.000 C 
ATOM     10  C   UNL     1      45.393   2.009   8.807  0.00  0.00    +0.000 C 
ATOM     11  N   UNL     1      46.423   2.909   8.250  0.00  0.00    +0.000 NA
ATOM     12  C   UNL     1      45.601   4.086   8.596  0.00  0.00    +0.000 C 
BRANCH  11  13
ATOM     13  C   UNL     1      46.524   2.750   6.790  0.00  0.00    +0.000 C 
BRANCH  13  14
ATOM     14  C   UNL     1      47.954   2.436   6.352  0.00  0.00    +0.000 C 
ATOM     15  F   UNL     1      47.946   2.137   5.023  0.00  0.00    +0.000 F 
ENDBRANCH  13  14
ENDBRANCH  11  13
ENDBRANCH   8   9
ENDBRANCH   6   8
ENDBRANCH   1   2
BRANCH   1  16
ATOM     16  C   UNL     1      46.022   8.460  13.028  0.00  0.00    +0.000 C 
BRANCH  16  21
ATOM     17  C   UNL     1      50.783   8.489  11.330  0.00  0.00    +0.000 A 
ATOM     18  C   UNL     1      49.887   7.434  11.442  0.00  0.00    +0.000 A 
ATOM     19  C   UNL     1      48.561   7.707  11.770  0.00  0.00    +0.000 A 
ATOM     20  C   UNL     1      48.155   9.020  11.994  0.00  0.00    +0.000 A 
ATOM     21  N   UNL     1      46.834   9.370  12.234  0.00  0.00    +0.000 N 
ATOM     22  N   UNL     1      49.025  10.047  11.927  0.00  0.00    +0.000 NA
ATOM     23  C   UNL     1      50.317   9.765  11.606  0.00  0.00    +0.000 A 
ATOM     24  H   UNL     1      46.824  10.348  12.513  0.00  0.00    +0.000 HD
BRANCH  17  26
ATOM     25  N   UNL     1      52.620   7.007  10.775  0.00  0.00    +0.000 N 
ATOM     26  C   UNL     1      52.189   8.294  10.933  0.00  0.00    +0.000 C 
ATOM     27  O   UNL     1      52.930   9.243  10.714  0.00  0.00    +0.000 OA
ATOM     28  H   UNL     1      53.553   6.890  10.397  0.00  0.00    +0.000 HD
ATOM     29  H   UNL     1      51.980   6.232  10.680  0.00  0.00    +0.000 HD
ENDBRANCH  17  26
ENDBRANCH  16  21
ENDBRANCH   1  16
TORSDOF 8
ENDMDL
MODEL 8
REMARK VINA RESULT:    -6.017      3.774      5.786
REMARK INTER + INTRA:          -9.653
REMARK INTER:                  -8.884
REMARK INTRA:                  -0.769
REMARK UNBOUND:                -0.822
REMARK  Name = 
REMARK  8 active torsions:
REMARK  status: ('A' for Active; 'I' for Inactive)
REMARK    1  A    between atoms: C_2  and  C_4
REMARK    2  A    between atoms: N_8  and  C_9
REMARK    3  A    between atoms: C_9  and  C_10
REMARK    4  A    between atoms: C_10  and  C_11
REMARK    5  A    between atoms: C_15  and  O_16
REMARK    6  A    between atoms: O_16  and  C_17
REMARK    7  A    between atoms: N_19  and  C_20
REMARK    8  A    between atoms: C_20  and  C_21
REMARK                            x       y       z     vdW  Elec       q    Type
REMARK                         _______ _______ _______ _____ _____    ______ ____
ROOT
ATOM      1  C   UNL     1      48.633   6.771  15.877  0.00  0.00    +0.000 C 
ENDROOT
BRANCH   1   2
ATOM      2  C   UNL     1      48.691   5.426  16.575  0.00  0.00    +0.000 A 
ATOM      3  C   UNL     1      47.558   4.602  16.539  0.00  0.00    +0.000 A 
ATOM      4  C   UNL     1      47.571   3.340  17.140  0.00  0.00    +0.000 A 
ATOM      5  C   UNL     1      48.716   2.879  17.795  0.00  0.00    +0.000 A 
ATOM      6  C   UNL     1      49.843   3.690  17.853  0.00  0.00    +0.000 A 
ATOM      7  C   UNL     1      49.830   4.949  17.243  0.00  0.00    +0.000 A 
BRANCH   6   8
ATOM      8  O   UNL     1      51.037   3.348  18.438  0.00  0.00    +0.000 OA
BRANCH   8   9
ATOM      9  C   UNL     1      51.976   2.532  17.702  0.00  0.00    +0.000 C 
ATOM     10  C   UNL     1      51.757   1.005  17.687  0.00  0.00    +0.000 C 
ATOM     11  N   UNL     1      53.133   0.776  18.174  0.00  0.00    +0.000 NA
ATOM     12  C   UNL     1      53.283   2.215  18.466  0.00  0.00    +0.000 C 
BRANCH  11  13
ATOM     13  C   UNL     1      54.017   0.370  17.070  0.00  0.00    +0.000 C 
BRANCH  13  14
ATOM     14  C   UNL     1      54.791  -0.905  17.404  0.00  0.00    +0.000 C 
ATOM     15  F   UNL     1      54.199  -1.506  18.474  0.00  0.00    +0.000 F 
ENDBRANCH  13  14
ENDBRANCH  11  13
ENDBRANCH   8   9
ENDBRANCH   6   8
ENDBRANCH   1   2
BRANCH   1  16
ATOM     16  C   UNL     1      48.529   6.717  14.349  0.00  0.00    +0.000 C 
BRANCH  16  21
ATOM     17  C   UNL     1      44.794   4.934  11.447  0.00  0.00    +0.000 A 
ATOM     18  C   UNL     1      45.583   4.276  12.382  0.00  0.00    +0.000 A 
ATOM     19  C   UNL     1      46.432   5.025  13.194  0.00  0.00    +0.000 A 
ATOM     20  C   UNL     1      46.491   6.409  13.051  0.00  0.00    +0.000 A 
ATOM     21  N   UNL     1      47.245   7.221  13.886  0.00  0.00    +0.000 N 
ATOM     22  N   UNL     1      45.760   7.052  12.120  0.00  0.00    +0.000 NA
ATOM     23  C   UNL     1      44.936   6.308  11.334  0.00  0.00    +0.000 A 
ATOM     24  H   UNL     1      47.241   8.156  13.485  0.00  0.00    +0.000 HD
BRANCH  17  26
ATOM     25  N   UNL     1      43.845   4.521   9.254  0.00  0.00    +0.000 N 
ATOM     26  C   UNL     1      43.830   4.224  10.588  0.00  0.00    +0.000 C 
ATOM     27  O   UNL     1      43.072   3.376  11.041  0.00  0.00    +0.000 OA
ATOM     28  H   UNL     1      43.255   3.949   8.661  0.00  0.00    +0.000 HD
ATOM     29  H   UNL     1      44.621   4.997   8.817  0.00  0.00    +0.000 HD
ENDBRANCH  17  26
ENDBRANCH  16  21
ENDBRANCH   1  16
TORSDOF 8
ENDMDL
MODEL 9
REMARK VINA RESULT:    -5.856      3.643      9.295
REMARK INTER + INTRA:          -9.416
REMARK INTER:                  -8.856
REMARK INTRA:                  -0.560
REMARK UNBOUND:                -0.822
REMARK  Name = 
REMARK  8 active torsions:
REMARK  status: ('A' for Active; 'I' for Inactive)
REMARK    1  A    between atoms: C_2  and  C_4
REMARK    2  A    between atoms: N_8  and  C_9
REMARK    3  A    between atoms: C_9  and  C_10
REMARK    4  A    between atoms: C_10  and  C_11
REMARK    5  A    between atoms: C_15  and  O_16
REMARK    6  A    between atoms: O_16  and  C_17
REMARK    7  A    between atoms: N_19  and  C_20
REMARK    8  A    between atoms: C_20  and  C_21
REMARK                            x       y       z     vdW  Elec       q    Type
REMARK                         _______ _______ _______ _____ _____    ______ ____
ROOT
ATOM      1  C   UNL     1      47.351   7.240  12.694  0.00  0.00    +0.000 C 
ENDROOT
BRANCH   1   2
ATOM      2  C   UNL     1      46.546   5.984  12.426  0.00  0.00    +0.000 A 
ATOM      3  C   UNL     1      46.678   4.902  13.306  0.00  0.00    +0.000 A 
ATOM      4  C   UNL     1      45.934   3.733  13.120  0.00  0.00    +0.000 A 
ATOM      5  C   UNL     1      45.048   3.620  12.046  0.00  0.00    +0.000 A 
ATOM      6  C   UNL     1      44.917   4.678  11.154  0.00  0.00    +0.000 A 
ATOM      7  C   UNL     1      45.655   5.850  11.348  0.00  0.00    +0.000 A 
BRANCH   6   8
ATOM      8  O   UNL     1      44.065   4.708  10.079  0.00  0.00    +0.000 OA
BRANCH   8   9
ATOM      9  C   UNL     1      44.510   4.179   8.809  0.00  0.00    +0.000 C 
ATOM     10  C   UNL     1      45.071   2.743   8.775  0.00  0.00    +0.000 C 
ATOM     11  N   UNL     1      46.313   3.215   8.130  0.00  0.00    +0.000 NA
ATOM     12  C   UNL     1      45.935   4.617   8.398  0.00  0.00    +0.000 C 
BRANCH  11  13
ATOM     13  C   UNL     1      46.293   2.933   6.686  0.00  0.00    +0.000 C 
BRANCH  13  14
ATOM     14  C   UNL     1      47.562   2.212   6.232  0.00  0.00    +0.000 C 
ATOM     15  F   UNL     1      47.956   1.361   7.220  0.00  0.00    +0.000 F 
ENDBRANCH  13  14
ENDBRANCH  11  13
ENDBRANCH   8   9
ENDBRANCH   6   8
ENDBRANCH   1   2
BRANCH   1  16
ATOM     16  C   UNL     1      48.818   7.015  13.077  0.00  0.00    +0.000 C 
BRANCH  16  21
ATOM     17  C   UNL     1      48.357   6.856  18.109  0.00  0.00    +0.000 A 
ATOM     18  C   UNL     1      48.609   5.829  17.208  0.00  0.00    +0.000 A 
ATOM     19  C   UNL     1      48.875   6.149  15.878  0.00  0.00    +0.000 A 
ATOM     20  C   UNL     1      48.870   7.480  15.467  0.00  0.00    +0.000 A 
ATOM     21  N   UNL     1      49.215   7.873  14.182  0.00  0.00    +0.000 N 
ATOM     22  N   UNL     1      48.587   8.480  16.325  0.00  0.00    +0.000 NA
ATOM     23  C   UNL     1      48.330   8.153  17.620  0.00  0.00    +0.000 A 
ATOM     24  H   UNL     1      48.988   8.861  14.095  0.00  0.00    +0.000 HD
BRANCH  17  26
ATOM     25  N   UNL     1      47.354   5.527  19.872  0.00  0.00    +0.000 N 
ATOM     26  C   UNL     1      48.122   6.609  19.543  0.00  0.00    +0.000 C 
ATOM     27  O   UNL     1      48.624   7.317  20.405  0.00  0.00    +0.000 OA
ATOM     28  H   UNL     1      47.291   5.306  20.859  0.00  0.00    +0.000 HD
ATOM     29  H   UNL     1      47.160   4.784  19.217  0.00  0.00    +0.000 HD
ENDBRANCH  17  26
ENDBRANCH  16  21
ENDBRANCH   1  16
TORSDOF 8
ENDMDL
