MODEL 1
REMARK VINA RESULT:    -7.263      0.000      0.000
REMARK INTER + INTRA:          -9.840
REMARK INTER:                  -9.173
REMARK INTRA:                  -0.667
REMARK UNBOUND:                -0.667
REMARK  Name = 
REMARK  5 active torsions:
REMARK  status: ('A' for Active; 'I' for Inactive)
REMARK    1  A    between atoms: N_1  and  C_2
REMARK    2  A    between atoms: C_2  and  C_3
REMARK    3  A    between atoms: C_3  and  C_4
REMARK    4  A    between atoms: C_8  and  C_9
REMARK    5  A    between atoms: C_9  and  N_10
REMARK                            x       y       z     vdW  Elec       q    Type
REMARK                         _______ _______ _______ _____ _____    ______ ____
ROOT
ATOM      1  C   UNL     1      45.852   3.472   8.015  0.00  0.00    +0.000 A 
ATOM      2  C   UNL     1      45.680   2.124   8.307  0.00  0.00    +0.000 A 
ATOM      3  N   UNL     1      44.851   1.657   9.265  0.00  0.00    +0.000 NA
ATOM      4  C   UNL     1      44.160   2.577   9.972  0.00  0.00    +0.000 A 
ATOM      5  C   UNL     1      44.254   3.951   9.774  0.00  0.00    +0.000 A 
ATOM      6  C   UNL     1      45.114   4.394   8.764  0.00  0.00    +0.000 A 
ENDROOT
BRANCH   1   7
ATOM      7  C   UNL     1      46.776   3.911   6.910  0.00  0.00    +0.000 C 
BRANCH   7   8
ATOM      8  C   UNL     1      47.203   2.727   6.038  0.00  0.00    +0.000 C 
BRANCH   8   9
ATOM      9  N   UNL     1      48.636   2.475   6.154  0.00  0.00    +0.000 NA
ATOM     10  H   UNL     1      49.136   3.076   5.499  0.00  0.00    +0.000 HD
ATOM     11  H   UNL     1      48.843   1.518   5.867  0.00  0.00    +0.000 HD
ENDBRANCH   8   9
ENDBRANCH   7   8
ENDBRANCH   1   7
BRANCH   5  12
ATOM     12  C   UNL     1      43.534   4.902  10.677  0.00  0.00    +0.000 C 
BRANCH  12  13
ATOM     13  N   UNL     1      44.404   5.743  11.501  0.00  0.00    +0.000 N 
ATOM     14  C   UNL     1      44.596   7.087  11.273  0.00  0.00    +0.000 A 
ATOM     15  C   UNL     1      45.816   7.437  11.803  0.00  0.00    +0.000 A 
ATOM     16  C   UNL     1      46.350   6.294  12.454  0.00  0.00    +0.000 A 
ATOM     17  C   UNL     1      47.552   6.028  13.125  0.00  0.00    +0.000 A 
ATOM     18  N   UNL     1      47.760   4.828  13.720  0.00  0.00    +0.000 NA
ATOM     19  C   UNL     1      46.784   3.898  13.661  0.00  0.00    +0.000 A 
ATOM     20  C   UNL     1      45.583   4.044  12.982  0.00  0.00    +0.000 A 
ATOM     21  C   UNL     1      45.396   5.275  12.346  0.00  0.00    +0.000 A 
ENDBRANCH  12  13
ENDBRANCH   5  12
TORSDOF 5
ENDMDL
MODEL 2
REMARK VINA RESULT:    -6.784      1.324      6.100
REMARK INTER + INTRA:          -9.236
REMARK INTER:                  -8.863
REMARK INTRA:                  -0.373
REMARK UNBOUND:                -0.667
REMARK  Name = 
REMARK  5 active torsions:
REMARK  status: ('A' for Active; 'I' for Inactive)
REMARK    1  A    between atoms: N_1  and  C_2
REMARK    2  A    between atoms: C_2  and  C_3
REMARK    3  A    between atoms: C_3  and  C_4
REMARK    4  A    between atoms: C_8  and  C_9
REMARK    5  A    between atoms: C_9  and  N_10
REMARK                            x       y       z     vdW  Elec       q    Type
REMARK                         _______ _______ _______ _____ _____    ______ ____
ROOT
ATOM      1  C   UNL     1      45.287   5.233  12.830  0.00  0.00    +0.000 A 
ATOM      2  C   UNL     1      43.938   5.500  13.041  0.00  0.00    +0.000 A 
ATOM      3  N   UNL     1      43.010   5.525  12.061  0.00  0.00    +0.000 NA
ATOM      4  C   UNL     1      43.443   5.275  10.806  0.00  0.00    +0.000 A 
ATOM      5  C   UNL     1      44.765   5.001  10.473  0.00  0.00    +0.000 A 
ATOM      6  C   UNL     1      45.695   4.973  11.518  0.00  0.00    +0.000 A 
ENDROOT
BRANCH   1   7
ATOM      7  C   UNL     1      46.256   5.196  13.981  0.00  0.00    +0.000 C 
BRANCH   7   8
ATOM      8  C   UNL     1      47.487   6.063  13.701  0.00  0.00    +0.000 C 
BRANCH   8   9
ATOM      9  N   UNL     1      48.480   5.930  14.763  0.00  0.00    +0.000 NA
ATOM     10  H   UNL     1      48.730   4.946  14.864  0.00  0.00    +0.000 HD
ATOM     11  H   UNL     1      48.071   6.206  15.655  0.00  0.00    +0.000 HD
ENDBRANCH   8   9
ENDBRANCH   7   8
ENDBRANCH   1   7
BRANCH   5  12
ATOM     12  C   UNL     1      45.175   4.844   9.042  0.00  0.00    +0.000 C 
BRANCH  12  13
ATOM     13  N   UNL     1      45.176   3.464   8.553  0.00  0.00    +0.000 N 
ATOM     14  C   UNL     1      44.476   2.445   9.159  0.00  0.00    +0.000 A 
ATOM     15  C   UNL     1      45.095   1.259   8.842  0.00  0.00    +0.000 A 
ATOM     16  C   UNL     1      46.155   1.549   7.942  0.00  0.00    +0.000 A 
ATOM     17  C   UNL     1      47.143   0.775   7.318  0.00  0.00    +0.000 A 
ATOM     18  N   UNL     1      48.002   1.335   6.432  0.00  0.00    +0.000 NA
ATOM     19  C   UNL     1      47.882   2.650   6.156  0.00  0.00    +0.000 A 
ATOM     20  C   UNL     1      46.974   3.512   6.755  0.00  0.00    +0.000 A 
ATOM     21  C   UNL     1      46.115   2.926   7.691  0.00  0.00    +0.000 A 
ENDBRANCH  12  13
ENDBRANCH   5  12
TORSDOF 5
ENDMDL
MODEL 3
REMARK VINA RESULT:    -6.668      1.385      2.236
REMARK INTER + INTRA:          -9.089
REMARK INTER:                  -8.645
REMARK INTRA:                  -0.444
REMARK UNBOUND:                -0.667
REMARK  Name = 
REMARK  5 active torsions:
REMARK  status: ('A' for Active; 'I' for Inactive)
REMARK    1  A    between atoms: N_1  and  C_2
REMARK    2  A    between atoms: C_2  and  C_3
REMARK    3  A    between atoms: C_3  and  C_4
REMARK    4  A    between atoms: C_8  and  C_9
REMARK    5  A    between atoms: C_9  and  N_10
REMARK                            x       y       z     vdW  Elec       q    Type
REMARK                         _______ _______ _______ _____ _____    ______ ____
ROOT
ATOM      1  C   UNL     1      45.665   3.287   8.014  0.00  0.00    +0.000 A 
ATOM      2  C   UNL     1      44.892   2.193   8.388  0.00  0.00    +0.000 A 
ATOM      3  N   UNL     1      44.150   2.141   9.514  0.00  0.00    +0.000 NA
ATOM      4  C   UNL     1      44.179   3.230  10.313  0.00  0.00    +0.000 A 
ATOM      5  C   UNL     1      44.917   4.378  10.047  0.00  0.00    +0.000 A 
ATOM      6  C   UNL     1      45.664   4.397   8.863  0.00  0.00    +0.000 A 
ENDROOT
BRANCH   1   7
ATOM      7  C   UNL     1      46.444   3.278   6.726  0.00  0.00    +0.000 C 
BRANCH   7   8
ATOM      8  C   UNL     1      47.742   2.478   6.865  0.00  0.00    +0.000 C 
BRANCH   8   9
ATOM      9  N   UNL     1      48.275   2.104   5.558  0.00  0.00    +0.000 NA
ATOM     10  H   UNL     1      48.959   1.356   5.678  0.00  0.00    +0.000 HD
ATOM     11  H   UNL     1      48.788   2.888   5.158  0.00  0.00    +0.000 HD
ENDBRANCH   8   9
ENDBRANCH   7   8
ENDBRANCH   1   7
BRANCH   5  12
ATOM     12  C   UNL     1      44.977   5.494  11.041  0.00  0.00    +0.000 C 
BRANCH  12  13
ATOM     13  N   UNL     1      46.020   5.352  12.060  0.00  0.00    +0.000 N 
ATOM     14  C   UNL     1      45.918   4.495  13.133  0.00  0.00    +0.000 A 
ATOM     15  C   UNL     1      46.721   4.979  14.139  0.00  0.00    +0.000 A 
ATOM     16  C   UNL     1      47.405   6.120  13.639  0.00  0.00    +0.000 A 
ATOM     17  C   UNL     1      48.304   7.038  14.196  0.00  0.00    +0.000 A 
ATOM     18  N   UNL     1      48.857   8.013  13.433  0.00  0.00    +0.000 NA
ATOM     19  C   UNL     1      48.532   8.075  12.125  0.00  0.00    +0.000 A 
ATOM     20  C   UNL     1      47.618   7.247  11.490  0.00  0.00    +0.000 A 
ATOM     21  C   UNL     1      47.030   6.267  12.298  0.00  0.00    +0.000 A 
ENDBRANCH  12  13
ENDBRANCH   5  12
TORSDOF 5
ENDMDL
MODEL 4
REMARK VINA RESULT:    -6.425      1.609      6.196
REMARK INTER + INTRA:          -8.783
REMARK INTER:                  -8.429
REMARK INTRA:                  -0.354
REMARK UNBOUND:                -0.667
REMARK  Name = 
REMARK  5 active torsions:
REMARK  status: ('A' for Active; 'I' for Inactive)
REMARK    1  A    between atoms: N_1  and  C_2
REMARK    2  A    between atoms: C_2  and  C_3
REMARK    3  A    between atoms: C_3  and  C_4
REMARK    4  A    between atoms: C_8  and  C_9
REMARK    5  A    between atoms: C_9  and  N_10
REMARK                            x       y       z     vdW  Elec       q    Type
REMARK                         _______ _______ _______ _____ _____    ______ ____
ROOT
ATOM      1  C   UNL     1      46.877   4.921  14.209  0.00  0.00    +0.000 A 
ATOM      2  C   UNL     1      47.719   6.024  14.297  0.00  0.00    +0.000 A 
ATOM      3  N   UNL     1      47.545   7.166  13.598  0.00  0.00    +0.000 NA
ATOM      4  C   UNL     1      46.482   7.214  12.767  0.00  0.00    +0.000 A 
ATOM      5  C   UNL     1      45.575   6.174  12.592  0.00  0.00    +0.000 A 
ATOM      6  C   UNL     1      45.784   5.012  13.342  0.00  0.00    +0.000 A 
ENDROOT
BRANCH   1   7
ATOM      7  C   UNL     1      47.124   3.693  15.044  0.00  0.00    +0.000 C 
BRANCH   7   8
ATOM      8  C   UNL     1      47.379   4.057  16.509  0.00  0.00    +0.000 C 
BRANCH   8   9
ATOM      9  N   UNL     1      46.556   3.250  17.405  0.00  0.00    +0.000 NA
ATOM     10  H   UNL     1      45.833   3.840  17.818  0.00  0.00    +0.000 HD
ATOM     11  H   UNL     1      47.121   2.915  18.185  0.00  0.00    +0.000 HD
ENDBRANCH   8   9
ENDBRANCH   7   8
ENDBRANCH   1   7
BRANCH   5  12
ATOM     12  C   UNL     1      44.489   6.273  11.568  0.00  0.00    +0.000 C 
BRANCH  12  13
ATOM     13  N   UNL     1      44.021   4.988  11.043  0.00  0.00    +0.000 N 
ATOM     14  C   UNL     1      43.200   4.137  11.748  0.00  0.00    +0.000 A 
ATOM     15  C   UNL     1      43.401   2.863  11.270  0.00  0.00    +0.000 A 
ATOM     16  C   UNL     1      44.307   2.947  10.179  0.00  0.00    +0.000 A 
ATOM     17  C   UNL     1      44.908   2.000   9.338  0.00  0.00    +0.000 A 
ATOM     18  N   UNL     1      45.700   2.394   8.311  0.00  0.00    +0.000 NA
ATOM     19  C   UNL     1      45.892   3.715   8.109  0.00  0.00    +0.000 A 
ATOM     20  C   UNL     1      45.384   4.726   8.912  0.00  0.00    +0.000 A 
ATOM     21  C   UNL     1      44.595   4.303   9.987  0.00  0.00    +0.000 A 
ENDBRANCH  12  13
ENDBRANCH   5  12
TORSDOF 5
ENDMDL
MODEL 5
REMARK VINA RESULT:    -6.014      1.884      5.681
REMARK INTER + INTRA:          -8.263
REMARK INTER:                  -7.637
REMARK INTRA:                  -0.626
REMARK UNBOUND:                -0.667
REMARK  Name = 
REMARK  5 active torsions:
REMARK  status: ('A' for Active; 'I' for Inactive)
REMARK    1  A    between atoms: N_1  and  C_2
REMARK    2  A    between atoms: C_2  and  C_3
REMARK    3  A    between atoms: C_3  and  C_4
REMARK    4  A    between atoms: C_8  and  C_9
REMARK    5  A    between atoms: C_9  and  N_10
REMARK                            x       y       z     vdW  Elec       q    Type
REMARK                         _______ _______ _______ _____ _____    ______ ____
ROOT
ATOM      1  C   UNL     1      48.089   7.181  12.274  0.00  0.00    +0.000 A 
ATOM      2  C   UNL     1      48.393   6.257  13.267  0.00  0.00    +0.000 A 
ATOM      3  N   UNL     1      47.523   5.337  13.737  0.00  0.00    +0.000 NA
ATOM      4  C   UNL     1      46.286   5.338  13.195  0.00  0.00    +0.000 A 
ATOM      5  C   UNL     1      45.866   6.215  12.201  0.00  0.00    +0.000 A 
ATOM      6  C   UNL     1      46.800   7.145  11.733  0.00  0.00    +0.000 A 
ENDROOT
BRANCH   1   7
ATOM      7  C   UNL     1      49.125   8.157  11.784  0.00  0.00    +0.000 C 
BRANCH   7   8
ATOM      8  C   UNL     1      48.555   9.576  11.696  0.00  0.00    +0.000 C 
BRANCH   8   9
ATOM      9  N   UNL     1      48.389  10.162  13.023  0.00  0.00    +0.000 NA
ATOM     10  H   UNL     1      49.309  10.320  13.436  0.00  0.00    +0.000 HD
ATOM     11  H   UNL     1      47.918   9.498  13.637  0.00  0.00    +0.000 HD
ENDBRANCH   8   9
ENDBRANCH   7   8
ENDBRANCH   1   7
BRANCH   5  12
ATOM     12  C   UNL     1      44.443   6.216  11.736  0.00  0.00    +0.000 C 
BRANCH  12  13
ATOM     13  N   UNL     1      43.976   4.940  11.191  0.00  0.00    +0.000 N 
ATOM     14  C   UNL     1      43.206   4.048  11.905  0.00  0.00    +0.000 A 
ATOM     15  C   UNL     1      43.409   2.795  11.375  0.00  0.00    +0.000 A 
ATOM     16  C   UNL     1      44.260   2.934  10.246  0.00  0.00    +0.000 A 
ATOM     17  C   UNL     1      44.838   2.028   9.346  0.00  0.00    +0.000 A 
ATOM     18  N   UNL     1      45.573   2.472   8.296  0.00  0.00    +0.000 NA
ATOM     19  C   UNL     1      45.729   3.802   8.131  0.00  0.00    +0.000 A 
ATOM     20  C   UNL     1      45.241   4.776   8.991  0.00  0.00    +0.000 A 
ATOM     21  C   UNL     1      44.512   4.302  10.086  0.00  0.00    +0.000 A 
ENDBRANCH  12  13
ENDBRANCH   5  12
TORSDOF 5
ENDMDL
MODEL 6
REMARK VINA RESULT:    -5.728      2.096      3.575
REMARK INTER + INTRA:          -7.902
REMARK INTER:                  -7.352
REMARK INTRA:                  -0.551
REMARK UNBOUND:                -0.667
REMARK  Name = 
REMARK  5 active torsions:
REMARK  status: ('A' for Active; 'I' for Inactive)
REMARK    1  A    between atoms: N_1  and  C_2
REMARK    2  A    between atoms: C_2  and  C_3
REMARK    3  A    between atoms: C_3  and  C_4
REMARK    4  A    between atoms: C_8  and  C_9
REMARK    5  A    between atoms: C_9  and  N_10
REMARK                            x       y       z     vdW  Elec       q    Type
REMARK                         _______ _______ _______ _____ _____    ______ ____
ROOT
ATOM      1  C   UNL     1      44.592   3.951  10.015  0.00  0.00    +0.000 A 
ATOM      2  C   UNL     1      43.754   3.018  10.616  0.00  0.00    +0.000 A 
ATOM      3  N   UNL     1      43.594   2.895  11.950  0.00  0.00    +0.000 NA
ATOM      4  C   UNL     1      44.303   3.739  12.729  0.00  0.00    +0.000 A 
ATOM      5  C   UNL     1      45.175   4.709  12.244  0.00  0.00    +0.000 A 
ATOM      6  C   UNL     1      45.305   4.812  10.854  0.00  0.00    +0.000 A 
ENDROOT
BRANCH   1   7
ATOM      7  C   UNL     1      44.696   4.044   8.516  0.00  0.00    +0.000 C 
BRANCH   7   8
ATOM      8  C   UNL     1      45.987   3.398   8.006  0.00  0.00    +0.000 C 
BRANCH   8   9
ATOM      9  N   UNL     1      46.794   4.353   7.252  0.00  0.00    +0.000 NA
ATOM     10  H   UNL     1      46.421   5.292   7.395  0.00  0.00    +0.000 HD
ATOM     11  H   UNL     1      46.705   4.168   6.253  0.00  0.00    +0.000 HD
ENDBRANCH   8   9
ENDBRANCH   7   8
ENDBRANCH   1   7
BRANCH   5  12
ATOM     12  C   UNL     1      46.003   5.528  13.182  0.00  0.00    +0.000 C 
BRANCH  12  13
ATOM     13  N   UNL     1      46.788   6.586  12.542  0.00  0.00    +0.000 N 
ATOM     14  C   UNL     1      48.165   6.586  12.498  0.00  0.00    +0.000 A 
ATOM     15  C   UNL     1      48.584   7.889  12.365  0.00  0.00    +0.000 A 
ATOM     16  C   UNL     1      47.429   8.706  12.234  0.00  0.00    +0.000 A 
ATOM     17  C   UNL     1      47.222  10.086  12.112  0.00  0.00    +0.000 A 
ATOM     18  N   UNL     1      45.974  10.583  11.931  0.00  0.00    +0.000 NA
ATOM     19  C   UNL     1      44.937   9.723  11.861  0.00  0.00    +0.000 A 
ATOM     20  C   UNL     1      45.030   8.347  12.019  0.00  0.00    +0.000 A 
ATOM     21  C   UNL     1      46.319   7.852  12.238  0.00  0.00    +0.000 A 
ENDBRANCH  12  13
ENDBRANCH   5  12
TORSDOF 5
ENDMDL
MODEL 7
REMARK VINA RESULT:    -5.581      1.673      2.367
REMARK INTER + INTRA:          -7.716
REMARK INTER:                  -7.255
REMARK INTRA:                  -0.461
REMARK UNBOUND:                -0.667
REMARK  Name = 
REMARK  5 active torsions:
REMARK  status: ('A' for Active; 'I' for Inactive)
REMARK    1  A    between atoms: N_1  and  C_2
REMARK    2  A    between atoms: C_2  and  C_3
REMARK    3  A    between atoms: C_3  and  C_4
REMARK    4  A    between atoms: C_8  and  C_9
REMARK    5  A    between atoms: C_9  and  N_10
REMARK                            x       y       z     vdW  Elec       q    Type
REMARK                         _______ _______ _______ _____ _____    ______ ____
ROOT
ATOM      1  C   UNL     1      45.097   4.002   9.510  0.00  0.00    +0.000 A 
ATOM      2  C   UNL     1      44.258   2.899   9.627  0.00  0.00    +0.000 A 
ATOM      3  N   UNL     1      43.657   2.525  10.776  0.00  0.00    +0.000 NA
ATOM      4  C   UNL     1      43.903   3.282  11.867  0.00  0.00    +0.000 A 
ATOM      5  C   UNL     1      44.727   4.403  11.873  0.00  0.00    +0.000 A 
ATOM      6  C   UNL     1      45.323   4.765  10.660  0.00  0.00    +0.000 A 
ENDROOT
BRANCH   1   7
ATOM      7  C   UNL     1      45.709   4.369   8.185  0.00  0.00    +0.000 C 
BRANCH   7   8
ATOM      8  C   UNL     1      46.200   3.128   7.435  0.00  0.00    +0.000 C 
BRANCH   8   9
ATOM      9  N   UNL     1      47.201   3.479   6.431  0.00  0.00    +0.000 NA
ATOM     10  H   UNL     1      48.048   2.935   6.599  0.00  0.00    +0.000 HD
ATOM     11  H   UNL     1      47.471   4.456   6.539  0.00  0.00    +0.000 HD
ENDBRANCH   8   9
ENDBRANCH   7   8
ENDBRANCH   1   7
BRANCH   5  12
ATOM     12  C   UNL     1      45.030   5.120  13.151  0.00  0.00    +0.000 C 
BRANCH  12  13
ATOM     13  N   UNL     1      45.494   6.499  12.986  0.00  0.00    +0.000 N 
ATOM     14  C   UNL     1      44.731   7.490  12.410  0.00  0.00    +0.000 A 
ATOM     15  C   UNL     1      45.586   8.442  11.906  0.00  0.00    +0.000 A 
ATOM     16  C   UNL     1      46.910   8.069  12.260  0.00  0.00    +0.000 A 
ATOM     17  C   UNL     1      48.177   8.609  11.999  0.00  0.00    +0.000 A 
ATOM     18  N   UNL     1      49.289   8.054  12.541  0.00  0.00    +0.000 NA
ATOM     19  C   UNL     1      49.151   6.979  13.344  0.00  0.00    +0.000 A 
ATOM     20  C   UNL     1      47.951   6.341  13.624  0.00  0.00    +0.000 A 
ATOM     21  C   UNL     1      46.816   6.904  13.031  0.00  0.00    +0.000 A 
ENDBRANCH  12  13
ENDBRANCH   5  12
TORSDOF 5
ENDMDL
MODEL 8
REMARK VINA RESULT:    -5.424      2.170      3.950
REMARK INTER + INTRA:          -7.519
REMARK INTER:                  -7.170
REMARK INTRA:                  -0.349
REMARK UNBOUND:                -0.667
REMARK  Name = 
REMARK  5 active torsions:
REMARK  status: ('A' for Active; 'I' for Inactive)
REMARK    1  A    between atoms: N_1  and  C_2
REMARK    2  A    between atoms: C_2  and  C_3
REMARK    3  A    between atoms: C_3  and  C_4
REMARK    4  A    between atoms: C_8  and  C_9
REMARK    5  A    between atoms: C_9  and  N_10
REMARK                            x       y       z     vdW  Elec       q    Type
REMARK                         _______ _______ _______ _____ _____    ______ ____
ROOT
ATOM      1  C   UNL     1      44.250   3.598  11.042  0.00  0.00    +0.000 A 
ATOM      2  C   UNL     1      43.073   4.247  11.400  0.00  0.00    +0.000 A 
ATOM      3  N   UNL     1      42.978   5.140  12.408  0.00  0.00    +0.000 NA
ATOM      4  C   UNL     1      44.109   5.400  13.099  0.00  0.00    +0.000 A 
ATOM      5  C   UNL     1      45.341   4.810  12.837  0.00  0.00    +0.000 A 
ATOM      6  C   UNL     1      45.401   3.899  11.777  0.00  0.00    +0.000 A 
ENDROOT
BRANCH   1   7
ATOM      7  C   UNL     1      44.280   2.635   9.886  0.00  0.00    +0.000 C 
BRANCH   7   8
ATOM      8  C   UNL     1      45.232   3.114   8.787  0.00  0.00    +0.000 C 
BRANCH   8   9
ATOM      9  N   UNL     1      44.894   4.464   8.345  0.00  0.00    +0.000 NA
ATOM     10  H   UNL     1      45.540   5.127   8.774  0.00  0.00    +0.000 HD
ATOM     11  H   UNL     1      43.967   4.717   8.687  0.00  0.00    +0.000 HD
ENDBRANCH   8   9
ENDBRANCH   7   8
ENDBRANCH   1   7
BRANCH   5  12
ATOM     12  C   UNL     1      46.518   5.074  13.723  0.00  0.00    +0.000 C 
BRANCH  12  13
ATOM     13  N   UNL     1      47.289   6.271  13.378  0.00  0.00    +0.000 N 
ATOM     14  C   UNL     1      47.289   6.834  12.122  0.00  0.00    +0.000 A 
ATOM     15  C   UNL     1      48.465   7.533  11.972  0.00  0.00    +0.000 A 
ATOM     16  C   UNL     1      49.167   7.470  13.205  0.00  0.00    +0.000 A 
ATOM     17  C   UNL     1      50.412   7.943  13.642  0.00  0.00    +0.000 A 
ATOM     18  N   UNL     1      50.798   7.784  14.932  0.00  0.00    +0.000 NA
ATOM     19  C   UNL     1      49.956   7.169  15.788  0.00  0.00    +0.000 A 
ATOM     20  C   UNL     1      48.728   6.622  15.446  0.00  0.00    +0.000 A 
ATOM     21  C   UNL     1      48.358   6.765  14.104  0.00  0.00    +0.000 A 
ENDBRANCH  12  13
ENDBRANCH   5  12
TORSDOF 5
ENDMDL
MODEL 9
REMARK VINA RESULT:    -5.390      2.432      3.923
REMARK INTER + INTRA:          -7.476
REMARK INTER:                  -7.058
REMARK INTRA:                  -0.418
REMARK UNBOUND:                -0.667
REMARK  Name = 
REMARK  5 active torsions:
REMARK  status: ('A' for Active; 'I' for Inactive)
REMARK    1  A    between atoms: N_1  and  C_2
REMARK    2  A    between atoms: C_2  and  C_3
REMARK    3  A    between atoms: C_3  and  C_4
REMARK    4  A    between atoms: C_8  and  C_9
REMARK    5  A    between atoms: C_9  and  N_10
REMARK                            x       y       z     vdW  Elec       q    Type
REMARK                         _______ _______ _______ _____ _____    ______ ____
ROOT
ATOM      1  C   UNL     1      45.011   4.306  10.212  0.00  0.00    +0.000 A 
ATOM      2  C   UNL     1      44.894   3.207  11.054  0.00  0.00    +0.000 A 
ATOM      3  N   UNL     1      45.146   3.240  12.381  0.00  0.00    +0.000 NA
ATOM      4  C   UNL     1      45.537   4.425  12.896  0.00  0.00    +0.000 A 
ATOM      5  C   UNL     1      45.694   5.590  12.152  0.00  0.00    +0.000 A 
ATOM      6  C   UNL     1      45.412   5.517  10.784  0.00  0.00    +0.000 A 
ENDROOT
BRANCH   1   7
ATOM      7  C   UNL     1      44.684   4.194   8.746  0.00  0.00    +0.000 C 
BRANCH   7   8
ATOM      8  C   UNL     1      45.790   3.459   7.984  0.00  0.00    +0.000 C 
BRANCH   8   9
ATOM      9  N   UNL     1      46.723   4.399   7.368  0.00  0.00    +0.000 NA
ATOM     10  H   UNL     1      47.492   4.577   8.014  0.00  0.00    +0.000 HD
ATOM     11  H   UNL     1      46.263   5.298   7.227  0.00  0.00    +0.000 HD
ENDBRANCH   8   9
ENDBRANCH   7   8
ENDBRANCH   1   7
BRANCH   5  12
ATOM     12  C   UNL     1      46.237   6.832  12.785  0.00  0.00    +0.000 C 
BRANCH  12  13
ATOM     13  N   UNL     1      47.591   6.702  13.329  0.00  0.00    +0.000 N 
ATOM     14  C   UNL     1      47.854   6.274  14.610  0.00  0.00    +0.000 A 
ATOM     15  C   UNL     1      49.078   6.779  14.982  0.00  0.00    +0.000 A 
ATOM     16  C   UNL     1      49.623   7.465  13.864  0.00  0.00    +0.000 A 
ATOM     17  C   UNL     1      50.795   8.203  13.651  0.00  0.00    +0.000 A 
ATOM     18  N   UNL     1      51.085   8.698  12.423  0.00  0.00    +0.000 NA
ATOM     19  C   UNL     1      50.228   8.459  11.409  0.00  0.00    +0.000 A 
ATOM     20  C   UNL     1      49.021   7.786  11.526  0.00  0.00    +0.000 A 
ATOM     21  C   UNL     1      48.720   7.309  12.806  0.00  0.00    +0.000 A 
ENDBRANCH  12  13
ENDBRANCH   5  12
TORSDOF 5
ENDMDL
