MODEL 1
REMARK VINA RESULT:    -8.636      0.000      0.000
REMARK INTER + INTRA:         -12.628
REMARK INTER:                 -11.665
REMARK INTRA:                  -0.964
REMARK UNBOUND:                -0.964
REMARK  Name = 
REMARK  6 active torsions:
REMARK  status: ('A' for Active; 'I' for Inactive)
REMARK    1  A    between atoms: C_2  and  C_4
REMARK    2  A    between atoms: C_7  and  N_8
REMARK    3  A    between atoms: N_8  and  C_9
REMARK    4  A    between atoms: C_9  and  C_10
REMARK    5  A    between atoms: C_10  and  C_11
REMARK    6  A    between atoms: C_15  and  C_16
REMARK                            x       y       z     vdW  Elec       q    Type
REMARK                         _______ _______ _______ _____ _____    ______ ____
ROOT
ATOM      1  C   UNL     1      43.102   4.262  11.319  0.00  0.00    +0.000 C 
ENDROOT
BRANCH   1   2
ATOM      2  N   UNL     1      43.770   4.766  10.123  0.00  0.00    +0.000 N 
ATOM      3  H   UNL     1      43.230   5.428   9.571  0.00  0.00    +0.000 HD
BRANCH   2   7
ATOM      4  C   UNL     1      46.316   2.300   7.833  0.00  0.00    +0.000 A 
ATOM      5  C   UNL     1      45.451   1.716   8.759  0.00  0.00    +0.000 A 
ATOM      6  C   UNL     1      44.583   2.520   9.509  0.00  0.00    +0.000 A 
ATOM      7  C   UNL     1      44.536   3.908   9.332  0.00  0.00    +0.000 A 
ATOM      8  C   UNL     1      45.411   4.476   8.395  0.00  0.00    +0.000 A 
ATOM      9  C   UNL     1      46.299   3.684   7.656  0.00  0.00    +0.000 A 
BRANCH   4  11
ATOM     10  N   UNL     1      48.417   2.142   6.606  0.00  0.00    +0.000 N 
ATOM     11  C   UNL     1      47.308   1.495   7.075  0.00  0.00    +0.000 C 
ATOM     12  O   UNL     1      47.156   0.293   6.891  0.00  0.00    +0.000 OA
ATOM     13  H   UNL     1      49.121   1.562   6.165  0.00  0.00    +0.000 HD
ATOM     14  H   UNL     1      48.697   3.052   6.939  0.00  0.00    +0.000 HD
ENDBRANCH   4  11
ENDBRANCH   2   7
ENDBRANCH   1   2
BRANCH   1  15
ATOM     15  C   UNL     1      43.275   5.236  12.488  0.00  0.00    +0.000 C 
BRANCH  15  16
ATOM     16  C   UNL     1      44.738   5.430  12.808  0.00  0.00    +0.000 A 
ATOM     17  C   UNL     1      45.483   4.396  13.380  0.00  0.00    +0.000 A 
ATOM     18  C   UNL     1      46.843   4.567  13.619  0.00  0.00    +0.000 A 
ATOM     19  C   UNL     1      47.471   5.766  13.272  0.00  0.00    +0.000 A 
ATOM     20  C   UNL     1      46.762   6.819  12.664  0.00  0.00    +0.000 A 
ATOM     21  C   UNL     1      45.383   6.629  12.458  0.00  0.00    +0.000 A 
BRANCH  20  22
ATOM     22  C   UNL     1      47.444   8.054  12.225  0.00  0.00    +0.000 A 
ATOM     23  C   UNL     1      48.791   8.076  11.833  0.00  0.00    +0.000 A 
ATOM     24  C   UNL     1      49.401   9.271  11.453  0.00  0.00    +0.000 A 
ATOM     25  C   UNL     1      48.648  10.427  11.463  0.00  0.00    +0.000 A 
ATOM     26  N   UNL     1      47.352  10.471  11.832  0.00  0.00    +0.000 NA
ATOM     27  C   UNL     1      46.792   9.292  12.206  0.00  0.00    +0.000 A 
ENDBRANCH  20  22
ENDBRANCH  15  16
ENDBRANCH   1  15
TORSDOF 6
ENDMDL
MODEL 2
REMARK VINA RESULT:    -8.350      2.590      4.153
REMARK INTER + INTRA:         -12.242
REMARK INTER:                 -11.356
REMARK INTRA:                  -0.886
REMARK UNBOUND:                -0.964
REMARK  Name = 
REMARK  6 active torsions:
REMARK  status: ('A' for Active; 'I' for Inactive)
REMARK    1  A    between atoms: C_2  and  C_4
REMARK    2  A    between atoms: C_7  and  N_8
REMARK    3  A    between atoms: N_8  and  C_9
REMARK    4  A    between atoms: C_9  and  C_10
REMARK    5  A    between atoms: C_10  and  C_11
REMARK    6  A    between atoms: C_15  and  C_16
REMARK                            x       y       z     vdW  Elec       q    Type
REMARK                         _______ _______ _______ _____ _____    ______ ____
ROOT
ATOM      1  C   UNL     1      44.023   5.520  11.061  0.00  0.00    +0.000 C 
ENDROOT
BRANCH   1   2
ATOM      2  N   UNL     1      43.702   4.723   9.882  0.00  0.00    +0.000 N 
ATOM      3  H   UNL     1      42.834   4.195   9.938  0.00  0.00    +0.000 HD
BRANCH   2   7
ATOM      4  C   UNL     1      46.541   2.490   7.698  0.00  0.00    +0.000 A 
ATOM      5  C   UNL     1      46.565   3.884   7.627  0.00  0.00    +0.000 A 
ATOM      6  C   UNL     1      45.646   4.639   8.365  0.00  0.00    +0.000 A 
ATOM      7  C   UNL     1      44.708   4.028   9.208  0.00  0.00    +0.000 A 
ATOM      8  C   UNL     1      44.701   2.627   9.269  0.00  0.00    +0.000 A 
ATOM      9  C   UNL     1      45.602   1.862   8.517  0.00  0.00    +0.000 A 
BRANCH   4  11
ATOM     10  N   UNL     1      48.483   2.276   6.240  0.00  0.00    +0.000 N 
ATOM     11  C   UNL     1      47.445   1.650   6.872  0.00  0.00    +0.000 C 
ATOM     12  O   UNL     1      47.286   0.439   6.773  0.00  0.00    +0.000 OA
ATOM     13  H   UNL     1      49.135   1.676   5.750  0.00  0.00    +0.000 HD
ATOM     14  H   UNL     1      48.790   3.204   6.487  0.00  0.00    +0.000 HD
ENDBRANCH   4  11
ENDBRANCH   2   7
ENDBRANCH   1   2
BRANCH   1  15
ATOM     15  C   UNL     1      44.499   4.624  12.208  0.00  0.00    +0.000 C 
BRANCH  15  16
ATOM     16  C   UNL     1      45.764   5.173  12.824  0.00  0.00    +0.000 A 
ATOM     17  C   UNL     1      46.429   6.252  12.237  0.00  0.00    +0.000 A 
ATOM     18  C   UNL     1      47.562   6.784  12.844  0.00  0.00    +0.000 A 
ATOM     19  C   UNL     1      48.027   6.255  14.051  0.00  0.00    +0.000 A 
ATOM     20  C   UNL     1      47.365   5.190  14.690  0.00  0.00    +0.000 A 
ATOM     21  C   UNL     1      46.238   4.653  14.041  0.00  0.00    +0.000 A 
BRANCH  20  22
ATOM     22  C   UNL     1      47.811   4.684  16.005  0.00  0.00    +0.000 A 
ATOM     23  C   UNL     1      47.336   3.484  16.554  0.00  0.00    +0.000 A 
ATOM     24  C   UNL     1      47.764   3.059  17.812  0.00  0.00    +0.000 A 
ATOM     25  C   UNL     1      48.670   3.841  18.497  0.00  0.00    +0.000 A 
ATOM     26  N   UNL     1      49.160   5.005  18.025  0.00  0.00    +0.000 NA
ATOM     27  C   UNL     1      48.715   5.394  16.802  0.00  0.00    +0.000 A 
ENDBRANCH  20  22
ENDBRANCH  15  16
ENDBRANCH   1  15
TORSDOF 6
ENDMDL
MODEL 3
REMARK VINA RESULT:    -8.335      1.085      1.587
REMARK INTER + INTRA:         -12.222
REMARK INTER:                 -11.178
REMARK INTRA:                  -1.044
REMARK UNBOUND:                -0.964
REMARK  Name = 
REMARK  6 active torsions:
REMARK  status: ('A' for Active; 'I' for Inactive)
REMARK    1  A    between atoms: C_2  and  C_4
REMARK    2  A    between atoms: C_7  and  N_8
REMARK    3  A    between atoms: N_8  and  C_9
REMARK    4  A    between atoms: C_9  and  C_10
REMARK    5  A    between atoms: C_10  and  C_11
REMARK    6  A    between atoms: C_15  and  C_16
REMARK                            x       y       z     vdW  Elec       q    Type
REMARK                         _______ _______ _______ _____ _____    ______ ____
ROOT
ATOM      1  C   UNL     1      43.482   3.338  11.772  0.00  0.00    +0.000 C 
ENDROOT
BRANCH   1   2
ATOM      2  N   UNL     1      43.556   3.892  10.424  0.00  0.00    +0.000 N 
ATOM      3  H   UNL     1      42.667   3.962   9.935  0.00  0.00    +0.000 HD
BRANCH   2   7
ATOM      4  C   UNL     1      46.549   2.683   7.706  0.00  0.00    +0.000 A 
ATOM      5  C   UNL     1      46.302   4.044   7.890  0.00  0.00    +0.000 A 
ATOM      6  C   UNL     1      45.329   4.461   8.807  0.00  0.00    +0.000 A 
ATOM      7  C   UNL     1      44.608   3.540   9.576  0.00  0.00    +0.000 A 
ATOM      8  C   UNL     1      44.872   2.177   9.380  0.00  0.00    +0.000 A 
ATOM      9  C   UNL     1      45.827   1.749   8.449  0.00  0.00    +0.000 A 
BRANCH   4  11
ATOM     10  N   UNL     1      47.800   3.027   5.642  0.00  0.00    +0.000 N 
ATOM     11  C   UNL     1      47.514   2.195   6.687  0.00  0.00    +0.000 C 
ATOM     12  O   UNL     1      48.053   1.099   6.785  0.00  0.00    +0.000 OA
ATOM     13  H   UNL     1      48.521   2.713   5.004  0.00  0.00    +0.000 HD
ATOM     14  H   UNL     1      47.576   4.010   5.652  0.00  0.00    +0.000 HD
ENDBRANCH   4  11
ENDBRANCH   2   7
ENDBRANCH   1   2
BRANCH   1  15
ATOM     15  C   UNL     1      43.372   4.455  12.813  0.00  0.00    +0.000 C 
BRANCH  15  16
ATOM     16  C   UNL     1      44.691   5.173  12.967  0.00  0.00    +0.000 A 
ATOM     17  C   UNL     1      45.842   4.472  13.336  0.00  0.00    +0.000 A 
ATOM     18  C   UNL     1      47.063   5.134  13.421  0.00  0.00    +0.000 A 
ATOM     19  C   UNL     1      47.145   6.496  13.119  0.00  0.00    +0.000 A 
ATOM     20  C   UNL     1      46.015   7.229  12.712  0.00  0.00    +0.000 A 
ATOM     21  C   UNL     1      44.788   6.541  12.661  0.00  0.00    +0.000 A 
BRANCH  20  22
ATOM     22  C   UNL     1      46.120   8.649  12.316  0.00  0.00    +0.000 A 
ATOM     23  C   UNL     1      47.350   9.317  12.216  0.00  0.00    +0.000 A 
ATOM     24  C   UNL     1      47.399  10.667  11.866  0.00  0.00    +0.000 A 
ATOM     25  C   UNL     1      46.213  11.324  11.614  0.00  0.00    +0.000 A 
ATOM     26  N   UNL     1      45.001  10.739  11.697  0.00  0.00    +0.000 NA
ATOM     27  C   UNL     1      44.989   9.427  12.049  0.00  0.00    +0.000 A 
ENDBRANCH  20  22
ENDBRANCH  15  16
ENDBRANCH   1  15
TORSDOF 6
ENDMDL
MODEL 4
REMARK VINA RESULT:    -7.932      1.889      2.667
REMARK INTER + INTRA:         -11.679
REMARK INTER:                 -10.610
REMARK INTRA:                  -1.069
REMARK UNBOUND:                -0.964
REMARK  Name = 
REMARK  6 active torsions:
REMARK  status: ('A' for Active; 'I' for Inactive)
REMARK    1  A    between atoms: C_2  and  C_4
REMARK    2  A    between atoms: C_7  and  N_8
REMARK    3  A    between atoms: N_8  and  C_9
REMARK    4  A    between atoms: C_9  and  C_10
REMARK    5  A    between atoms: C_10  and  C_11
REMARK    6  A    between atoms: C_15  and  C_16
REMARK                            x       y       z     vdW  Elec       q    Type
REMARK                         _______ _______ _______ _____ _____    ______ ____
ROOT
ATOM      1  C   UNL     1      43.917   3.213  12.087  0.00  0.00    +0.000 C 
ENDROOT
BRANCH   1   2
ATOM      2  N   UNL     1      43.582   3.265  10.668  0.00  0.00    +0.000 N 
ATOM      3  H   UNL     1      42.727   2.780  10.406  0.00  0.00    +0.000 HD
BRANCH   2   7
ATOM      4  C   UNL     1      46.430   2.740   7.597  0.00  0.00    +0.000 A 
ATOM      5  C   UNL     1      46.065   4.032   7.978  0.00  0.00    +0.000 A 
ATOM      6  C   UNL     1      45.140   4.222   9.012  0.00  0.00    +0.000 A 
ATOM      7  C   UNL     1      44.585   3.138   9.704  0.00  0.00    +0.000 A 
ATOM      8  C   UNL     1      44.965   1.848   9.309  0.00  0.00    +0.000 A 
ATOM      9  C   UNL     1      45.872   1.646   8.262  0.00  0.00    +0.000 A 
BRANCH   4  11
ATOM     10  N   UNL     1      47.172   3.252   5.332  0.00  0.00    +0.000 N 
ATOM     11  C   UNL     1      47.345   2.491   6.454  0.00  0.00    +0.000 C 
ATOM     12  O   UNL     1      48.237   1.652   6.515  0.00  0.00    +0.000 OA
ATOM     13  H   UNL     1      47.856   3.126   4.596  0.00  0.00    +0.000 HD
ATOM     14  H   UNL     1      46.627   4.101   5.330  0.00  0.00    +0.000 HD
ENDBRANCH   4  11
ENDBRANCH   2   7
ENDBRANCH   1   2
BRANCH   1  15
ATOM     15  C   UNL     1      43.450   4.485  12.801  0.00  0.00    +0.000 C 
BRANCH  15  16
ATOM     16  C   UNL     1      44.374   5.639  12.492  0.00  0.00    +0.000 A 
ATOM     17  C   UNL     1      43.972   6.659  11.627  0.00  0.00    +0.000 A 
ATOM     18  C   UNL     1      44.810   7.745  11.394  0.00  0.00    +0.000 A 
ATOM     19  C   UNL     1      46.047   7.827  12.037  0.00  0.00    +0.000 A 
ATOM     20  C   UNL     1      46.475   6.836  12.941  0.00  0.00    +0.000 A 
ATOM     21  C   UNL     1      45.619   5.736  13.138  0.00  0.00    +0.000 A 
BRANCH  20  22
ATOM     22  C   UNL     1      47.747   6.965  13.680  0.00  0.00    +0.000 A 
ATOM     23  C   UNL     1      48.765   7.846  13.285  0.00  0.00    +0.000 A 
ATOM     24  C   UNL     1      49.963   7.914  13.998  0.00  0.00    +0.000 A 
ATOM     25  C   UNL     1      50.118   7.103  15.102  0.00  0.00    +0.000 A 
ATOM     26  N   UNL     1      49.179   6.234  15.529  0.00  0.00    +0.000 NA
ATOM     27  C   UNL     1      48.030   6.187  14.807  0.00  0.00    +0.000 A 
ENDBRANCH  20  22
ENDBRANCH  15  16
ENDBRANCH   1  15
TORSDOF 6
ENDMDL
MODEL 5
REMARK VINA RESULT:    -7.841      1.627      2.032
REMARK INTER + INTRA:         -11.556
REMARK INTER:                 -10.808
REMARK INTRA:                  -0.747
REMARK UNBOUND:                -0.964
REMARK  Name = 
REMARK  6 active torsions:
REMARK  status: ('A' for Active; 'I' for Inactive)
REMARK    1  A    between atoms: C_2  and  C_4
REMARK    2  A    between atoms: C_7  and  N_8
REMARK    3  A    between atoms: N_8  and  C_9
REMARK    4  A    between atoms: C_9  and  C_10
REMARK    5  A    between atoms: C_10  and  C_11
REMARK    6  A    between atoms: C_15  and  C_16
REMARK                            x       y       z     vdW  Elec       q    Type
REMARK                         _______ _______ _______ _____ _____    ______ ____
ROOT
ATOM      1  C   UNL     1      44.161   5.309  11.228  0.00  0.00    +0.000 C 
ENDROOT
BRANCH   1   2
ATOM      2  N   UNL     1      43.709   4.816   9.931  0.00  0.00    +0.000 N 
ATOM      3  H   UNL     1      42.718   4.595   9.873  0.00  0.00    +0.000 HD
BRANCH   2   7
ATOM      4  C   UNL     1      46.327   2.250   7.841  0.00  0.00    +0.000 A 
ATOM      5  C   UNL     1      45.405   1.705   8.735  0.00  0.00    +0.000 A 
ATOM      6  C   UNL     1      44.512   2.541   9.417  0.00  0.00    +0.000 A 
ATOM      7  C   UNL     1      44.500   3.926   9.203  0.00  0.00    +0.000 A 
ATOM      8  C   UNL     1      45.432   4.455   8.299  0.00  0.00    +0.000 A 
ATOM      9  C   UNL     1      46.344   3.629   7.628  0.00  0.00    +0.000 A 
BRANCH   4  11
ATOM     10  N   UNL     1      48.384   2.052   6.547  0.00  0.00    +0.000 N 
ATOM     11  C   UNL     1      47.343   1.409   7.157  0.00  0.00    +0.000 C 
ATOM     12  O   UNL     1      47.269   0.186   7.153  0.00  0.00    +0.000 OA
ATOM     13  H   UNL     1      49.109   1.461   6.159  0.00  0.00    +0.000 HD
ATOM     14  H   UNL     1      48.612   3.017   6.734  0.00  0.00    +0.000 HD
ENDBRANCH   4  11
ENDBRANCH   2   7
ENDBRANCH   1   2
BRANCH   1  15
ATOM     15  C   UNL     1      45.161   6.456  11.054  0.00  0.00    +0.000 C 
BRANCH  15  16
ATOM     16  C   UNL     1      46.258   6.367  12.087  0.00  0.00    +0.000 A 
ATOM     17  C   UNL     1      46.122   5.532  13.199  0.00  0.00    +0.000 A 
ATOM     18  C   UNL     1      47.162   5.417  14.115  0.00  0.00    +0.000 A 
ATOM     19  C   UNL     1      48.353   6.121  13.917  0.00  0.00    +0.000 A 
ATOM     20  C   UNL     1      48.542   6.947  12.793  0.00  0.00    +0.000 A 
ATOM     21  C   UNL     1      47.463   7.066  11.896  0.00  0.00    +0.000 A 
BRANCH  20  22
ATOM     22  C   UNL     1      49.829   7.627  12.544  0.00  0.00    +0.000 A 
ATOM     23  C   UNL     1      50.377   7.762  11.258  0.00  0.00    +0.000 A 
ATOM     24  C   UNL     1      51.610   8.388  11.073  0.00  0.00    +0.000 A 
ATOM     25  C   UNL     1      52.272   8.877  12.180  0.00  0.00    +0.000 A 
ATOM     26  N   UNL     1      51.800   8.774  13.439  0.00  0.00    +0.000 NA
ATOM     27  C   UNL     1      50.602   8.151  13.584  0.00  0.00    +0.000 A 
ENDBRANCH  20  22
ENDBRANCH  15  16
ENDBRANCH   1  15
TORSDOF 6
ENDMDL
MODEL 6
REMARK VINA RESULT:    -7.489      3.449      7.273
REMARK INTER + INTRA:         -11.079
REMARK INTER:                 -10.223
REMARK INTRA:                  -0.856
REMARK UNBOUND:                -0.964
REMARK  Name = 
REMARK  6 active torsions:
REMARK  status: ('A' for Active; 'I' for Inactive)
REMARK    1  A    between atoms: C_2  and  C_4
REMARK    2  A    between atoms: C_7  and  N_8
REMARK    3  A    between atoms: N_8  and  C_9
REMARK    4  A    between atoms: C_9  and  C_10
REMARK    5  A    between atoms: C_10  and  C_11
REMARK    6  A    between atoms: C_15  and  C_16
REMARK                            x       y       z     vdW  Elec       q    Type
REMARK                         _______ _______ _______ _____ _____    ______ ____
ROOT
ATOM      1  C   UNL     1      47.384   7.322  11.775  0.00  0.00    +0.000 C 
ENDROOT
BRANCH   1   2
ATOM      2  N   UNL     1      47.895   7.532  13.127  0.00  0.00    +0.000 N 
ATOM      3  H   UNL     1      48.747   8.083  13.187  0.00  0.00    +0.000 HD
BRANCH   2   7
ATOM      4  C   UNL     1      47.683   4.576  16.132  0.00  0.00    +0.000 A 
ATOM      5  C   UNL     1      46.985   4.389  14.938  0.00  0.00    +0.000 A 
ATOM      6  C   UNL     1      47.066   5.349  13.922  0.00  0.00    +0.000 A 
ATOM      7  C   UNL     1      47.861   6.494  14.059  0.00  0.00    +0.000 A 
ATOM      8  C   UNL     1      48.557   6.664  15.265  0.00  0.00    +0.000 A 
ATOM      9  C   UNL     1      48.465   5.720  16.296  0.00  0.00    +0.000 A 
BRANCH   4  11
ATOM     10  N   UNL     1      48.584   3.594  18.173  0.00  0.00    +0.000 N 
ATOM     11  C   UNL     1      47.563   3.623  17.265  0.00  0.00    +0.000 C 
ATOM     12  O   UNL     1      46.580   2.904  17.400  0.00  0.00    +0.000 OA
ATOM     13  H   UNL     1      48.447   3.000  18.982  0.00  0.00    +0.000 HD
ATOM     14  H   UNL     1      49.276   4.325  18.236  0.00  0.00    +0.000 HD
ENDBRANCH   4  11
ENDBRANCH   2   7
ENDBRANCH   1   2
BRANCH   1  15
ATOM     15  C   UNL     1      45.885   7.629  11.708  0.00  0.00    +0.000 C 
BRANCH  15  16
ATOM     16  C   UNL     1      45.116   6.425  11.220  0.00  0.00    +0.000 A 
ATOM     17  C   UNL     1      43.767   6.265  11.545  0.00  0.00    +0.000 A 
ATOM     18  C   UNL     1      43.055   5.180  11.044  0.00  0.00    +0.000 A 
ATOM     19  C   UNL     1      43.680   4.258  10.200  0.00  0.00    +0.000 A 
ATOM     20  C   UNL     1      45.029   4.403   9.824  0.00  0.00    +0.000 A 
ATOM     21  C   UNL     1      45.733   5.494  10.366  0.00  0.00    +0.000 A 
BRANCH  20  22
ATOM     22  C   UNL     1      45.666   3.473   8.869  0.00  0.00    +0.000 A 
ATOM     23  C   UNL     1      46.341   3.913   7.720  0.00  0.00    +0.000 A 
ATOM     24  C   UNL     1      46.904   2.997   6.831  0.00  0.00    +0.000 A 
ATOM     25  C   UNL     1      46.789   1.652   7.112  0.00  0.00    +0.000 A 
ATOM     26  N   UNL     1      46.151   1.167   8.196  0.00  0.00    +0.000 NA
ATOM     27  C   UNL     1      45.606   2.085   9.036  0.00  0.00    +0.000 A 
ENDBRANCH  20  22
ENDBRANCH  15  16
ENDBRANCH   1  15
TORSDOF 6
ENDMDL
MODEL 7
REMARK VINA RESULT:    -7.247      2.469      3.286
REMARK INTER + INTRA:         -10.752
REMARK INTER:                  -9.752
REMARK INTRA:                  -1.000
REMARK UNBOUND:                -0.964
REMARK  Name = 
REMARK  6 active torsions:
REMARK  status: ('A' for Active; 'I' for Inactive)
REMARK    1  A    between atoms: C_2  and  C_4
REMARK    2  A    between atoms: C_7  and  N_8
REMARK    3  A    between atoms: N_8  and  C_9
REMARK    4  A    between atoms: C_9  and  C_10
REMARK    5  A    between atoms: C_10  and  C_11
REMARK    6  A    between atoms: C_15  and  C_16
REMARK                            x       y       z     vdW  Elec       q    Type
REMARK                         _______ _______ _______ _____ _____    ______ ____
ROOT
ATOM      1  C   UNL     1      44.189   4.821  11.796  0.00  0.00    +0.000 C 
ENDROOT
BRANCH   1   2
ATOM      2  N   UNL     1      43.668   3.829  10.860  0.00  0.00    +0.000 N 
ATOM      3  H   UNL     1      43.170   3.052  11.286  0.00  0.00    +0.000 HD
BRANCH   2   7
ATOM      4  C   UNL     1      46.177   2.803   7.625  0.00  0.00    +0.000 A 
ATOM      5  C   UNL     1      45.677   1.794   8.450  0.00  0.00    +0.000 A 
ATOM      6  C   UNL     1      44.824   2.117   9.512  0.00  0.00    +0.000 A 
ATOM      7  C   UNL     1      44.429   3.438   9.756  0.00  0.00    +0.000 A 
ATOM      8  C   UNL     1      44.939   4.438   8.916  0.00  0.00    +0.000 A 
ATOM      9  C   UNL     1      45.811   4.128   7.864  0.00  0.00    +0.000 A 
BRANCH   4  11
ATOM     10  N   UNL     1      48.219   1.724   6.844  0.00  0.00    +0.000 N 
ATOM     11  C   UNL     1      47.147   2.515   6.538  0.00  0.00    +0.000 C 
ATOM     12  O   UNL     1      46.989   2.948   5.403  0.00  0.00    +0.000 OA
ATOM     13  H   UNL     1      48.823   1.470   6.072  0.00  0.00    +0.000 HD
ATOM     14  H   UNL     1      48.256   1.157   7.678  0.00  0.00    +0.000 HD
ENDBRANCH   4  11
ENDBRANCH   2   7
ENDBRANCH   1   2
BRANCH   1  15
ATOM     15  C   UNL     1      45.474   4.319  12.460  0.00  0.00    +0.000 C 
BRANCH  15  16
ATOM     16  C   UNL     1      46.484   5.435  12.578  0.00  0.00    +0.000 A 
ATOM     17  C   UNL     1      46.532   6.453  11.623  0.00  0.00    +0.000 A 
ATOM     18  C   UNL     1      47.430   7.505  11.772  0.00  0.00    +0.000 A 
ATOM     19  C   UNL     1      48.273   7.557  12.885  0.00  0.00    +0.000 A 
ATOM     20  C   UNL     1      48.232   6.568  13.885  0.00  0.00    +0.000 A 
ATOM     21  C   UNL     1      47.333   5.501  13.696  0.00  0.00    +0.000 A 
BRANCH  20  22
ATOM     22  C   UNL     1      49.067   6.666  15.100  0.00  0.00    +0.000 A 
ATOM     23  C   UNL     1      48.678   6.114  16.331  0.00  0.00    +0.000 A 
ATOM     24  C   UNL     1      49.485   6.256  17.460  0.00  0.00    +0.000 A 
ATOM     25  C   UNL     1      50.676   6.941  17.335  0.00  0.00    +0.000 A 
ATOM     26  N   UNL     1      51.102   7.495  16.183  0.00  0.00    +0.000 NA
ATOM     27  C   UNL     1      50.288   7.347  15.106  0.00  0.00    +0.000 A 
ENDBRANCH  20  22
ENDBRANCH  15  16
ENDBRANCH   1  15
TORSDOF 6
ENDMDL
MODEL 8
REMARK VINA RESULT:    -7.204      2.878      6.907
REMARK INTER + INTRA:         -10.695
REMARK INTER:                  -9.820
REMARK INTRA:                  -0.875
REMARK UNBOUND:                -0.964
REMARK  Name = 
REMARK  6 active torsions:
REMARK  status: ('A' for Active; 'I' for Inactive)
REMARK    1  A    between atoms: C_2  and  C_4
REMARK    2  A    between atoms: C_7  and  N_8
REMARK    3  A    between atoms: N_8  and  C_9
REMARK    4  A    between atoms: C_9  and  C_10
REMARK    5  A    between atoms: C_10  and  C_11
REMARK    6  A    between atoms: C_15  and  C_16
REMARK                            x       y       z     vdW  Elec       q    Type
REMARK                         _______ _______ _______ _____ _____    ______ ____
ROOT
ATOM      1  C   UNL     1      44.935   6.832  12.821  0.00  0.00    +0.000 C 
ENDROOT
BRANCH   1   2
ATOM      2  N   UNL     1      45.852   7.926  13.122  0.00  0.00    +0.000 N 
ATOM      3  H   UNL     1      45.441   8.856  13.095  0.00  0.00    +0.000 HD
BRANCH   2   7
ATOM      4  C   UNL     1      49.858   8.078  11.802  0.00  0.00    +0.000 A 
ATOM      5  C   UNL     1      49.385   6.920  12.418  0.00  0.00    +0.000 A 
ATOM      6  C   UNL     1      48.051   6.845  12.839  0.00  0.00    +0.000 A 
ATOM      7  C   UNL     1      47.159   7.904  12.630  0.00  0.00    +0.000 A 
ATOM      8  C   UNL     1      47.652   9.059  12.007  0.00  0.00    +0.000 A 
ATOM      9  C   UNL     1      48.989   9.152  11.602  0.00  0.00    +0.000 A 
BRANCH   4  11
ATOM     10  N   UNL     1      51.846   7.222  10.680  0.00  0.00    +0.000 N 
ATOM     11  C   UNL     1      51.283   8.230  11.412  0.00  0.00    +0.000 C 
ATOM     12  O   UNL     1      51.930   9.227  11.713  0.00  0.00    +0.000 OA
ATOM     13  H   UNL     1      52.791   7.381  10.353  0.00  0.00    +0.000 HD
ATOM     14  H   UNL     1      51.296   6.519  10.210  0.00  0.00    +0.000 HD
ENDBRANCH   4  11
ENDBRANCH   2   7
ENDBRANCH   1   2
BRANCH   1  15
ATOM     15  C   UNL     1      44.734   6.692  11.310  0.00  0.00    +0.000 C 
BRANCH  15  16
ATOM     16  C   UNL     1      44.578   5.241  10.925  0.00  0.00    +0.000 A 
ATOM     17  C   UNL     1      43.639   4.432  11.569  0.00  0.00    +0.000 A 
ATOM     18  C   UNL     1      43.466   3.111  11.167  0.00  0.00    +0.000 A 
ATOM     19  C   UNL     1      44.217   2.595  10.108  0.00  0.00    +0.000 A 
ATOM     20  C   UNL     1      45.149   3.387   9.412  0.00  0.00    +0.000 A 
ATOM     21  C   UNL     1      45.323   4.712   9.856  0.00  0.00    +0.000 A 
BRANCH  20  22
ATOM     22  C   UNL     1      45.884   2.864   8.242  0.00  0.00    +0.000 A 
ATOM     23  C   UNL     1      46.160   3.648   7.111  0.00  0.00    +0.000 A 
ATOM     24  C   UNL     1      46.832   3.103   6.016  0.00  0.00    +0.000 A 
ATOM     25  C   UNL     1      47.225   1.783   6.076  0.00  0.00    +0.000 A 
ATOM     26  N   UNL     1      46.986   0.979   7.132  0.00  0.00    +0.000 NA
ATOM     27  C   UNL     1      46.321   1.538   8.176  0.00  0.00    +0.000 A 
ENDBRANCH  20  22
ENDBRANCH  15  16
ENDBRANCH   1  15
TORSDOF 6
ENDMDL
MODEL 9
REMARK VINA RESULT:    -6.831      3.712      7.513
REMARK INTER + INTRA:         -10.191
REMARK INTER:                  -9.033
REMARK INTRA:                  -1.158
REMARK UNBOUND:                -0.964
REMARK  Name = 
REMARK  6 active torsions:
REMARK  status: ('A' for Active; 'I' for Inactive)
REMARK    1  A    between atoms: C_2  and  C_4
REMARK    2  A    between atoms: C_7  and  N_8
REMARK    3  A    between atoms: N_8  and  C_9
REMARK    4  A    between atoms: C_9  and  C_10
REMARK    5  A    between atoms: C_10  and  C_11
REMARK    6  A    between atoms: C_15  and  C_16
REMARK                            x       y       z     vdW  Elec       q    Type
REMARK                         _______ _______ _______ _____ _____    ______ ____
ROOT
ATOM      1  C   UNL     1      49.527   7.325  12.870  0.00  0.00    +0.000 C 
ENDROOT
BRANCH   1   2
ATOM      2  N   UNL     1      49.355   7.693  14.272  0.00  0.00    +0.000 N 
ATOM      3  H   UNL     1      50.101   8.260  14.666  0.00  0.00    +0.000 HD
BRANCH   2   7
ATOM      4  C   UNL     1      47.915   4.689  16.862  0.00  0.00    +0.000 A 
ATOM      5  C   UNL     1      48.847   5.612  17.337  0.00  0.00    +0.000 A 
ATOM      6  C   UNL     1      49.315   6.630  16.497  0.00  0.00    +0.000 A 
ATOM      7  C   UNL     1      48.846   6.767  15.184  0.00  0.00    +0.000 A 
ATOM      8  C   UNL     1      47.908   5.832  14.725  0.00  0.00    +0.000 A 
ATOM      9  C   UNL     1      47.450   4.797  15.551  0.00  0.00    +0.000 A 
BRANCH   4  11
ATOM     10  N   UNL     1      48.186   3.240  18.804  0.00  0.00    +0.000 N 
ATOM     11  C   UNL     1      47.452   3.548  17.693  0.00  0.00    +0.000 C 
ATOM     12  O   UNL     1      46.441   2.915  17.411  0.00  0.00    +0.000 OA
ATOM     13  H   UNL     1      47.809   2.515  19.402  0.00  0.00    +0.000 HD
ATOM     14  H   UNL     1      48.864   3.873  19.200  0.00  0.00    +0.000 HD
ENDBRANCH   4  11
ENDBRANCH   2   7
ENDBRANCH   1   2
BRANCH   1  15
ATOM     15  C   UNL     1      48.713   8.251  11.961  0.00  0.00    +0.000 C 
BRANCH  15  16
ATOM     16  C   UNL     1      47.272   7.805  11.899  0.00  0.00    +0.000 A 
ATOM     17  C   UNL     1      46.256   8.609  12.420  0.00  0.00    +0.000 A 
ATOM     18  C   UNL     1      44.927   8.213  12.306  0.00  0.00    +0.000 A 
ATOM     19  C   UNL     1      44.604   7.019  11.656  0.00  0.00    +0.000 A 
ATOM     20  C   UNL     1      45.596   6.198  11.089  0.00  0.00    +0.000 A 
ATOM     21  C   UNL     1      46.933   6.609  11.242  0.00  0.00    +0.000 A 
BRANCH  20  22
ATOM     22  C   UNL     1      45.246   4.978  10.332  0.00  0.00    +0.000 A 
ATOM     23  C   UNL     1      45.574   4.808   8.978  0.00  0.00    +0.000 A 
ATOM     24  C   UNL     1      45.199   3.650   8.296  0.00  0.00    +0.000 A 
ATOM     25  C   UNL     1      44.508   2.675   8.985  0.00  0.00    +0.000 A 
ATOM     26  N   UNL     1      44.161   2.781  10.284  0.00  0.00    +0.000 NA
ATOM     27  C   UNL     1      44.534   3.925  10.915  0.00  0.00    +0.000 A 
ENDBRANCH  20  22
ENDBRANCH  15  16
ENDBRANCH   1  15
TORSDOF 6
ENDMDL
