MODEL 1
REMARK VINA RESULT:    -7.879      0.000      0.000
REMARK INTER + INTRA:         -10.081
REMARK INTER:                  -9.721
REMARK INTRA:                  -0.360
REMARK UNBOUND:                -0.360
REMARK  Name = 
REMARK  4 active torsions:
REMARK  status: ('A' for Active; 'I' for Inactive)
REMARK    1  A    between atoms: C_2  and  C_4
REMARK    2  A    between atoms: C_7  and  N_8
REMARK    3  A    between atoms: N_8  and  C_9
REMARK    4  A    between atoms: C_9  and  C_10
REMARK                            x       y       z     vdW  Elec       q    Type
REMARK                         _______ _______ _______ _____ _____    ______ ____
ROOT
ATOM      1  C   UNL     1      46.427   4.630  13.485  0.00  0.00    +0.000 A 
ATOM      2  N   UNL     1      46.070   3.327  13.264  0.00  0.00    +0.000 NA
ATOM      3  C   UNL     1      45.341   3.080  12.144  0.00  0.00    +0.000 A 
ATOM      4  C   UNL     1      44.914   4.042  11.227  0.00  0.00    +0.000 A 
ATOM      5  C   UNL     1      45.296   5.355  11.509  0.00  0.00    +0.000 A 
ATOM      6  C   UNL     1      46.076   5.668  12.624  0.00  0.00    +0.000 A 
ATOM      7 CL   UNL     1      46.547   7.319  12.799  0.00  0.00    +0.000 Cl
ENDROOT
BRANCH   1   9
ATOM      8  N   UNL     1      46.737   4.290  15.892  0.00  0.00    +0.000 N 
ATOM      9  C   UNL     1      47.206   4.870  14.741  0.00  0.00    +0.000 C 
ATOM     10  O   UNL     1      48.218   5.565  14.798  0.00  0.00    +0.000 OA
ATOM     11  H   UNL     1      47.251   4.463  16.747  0.00  0.00    +0.000 HD
ATOM     12  H   UNL     1      45.898   3.736  15.901  0.00  0.00    +0.000 HD
ENDBRANCH   1   9
BRANCH   4  13
ATOM     13  N   UNL     1      44.152   3.706  10.124  0.00  0.00    +0.000 N 
ATOM     14  H   UNL     1      43.203   3.374  10.262  0.00  0.00    +0.000 HD
BRANCH  13  15
ATOM     15  C   UNL     1      44.512   4.097   8.772  0.00  0.00    +0.000 C 
BRANCH  15  16
ATOM     16  C   UNL     1      45.551   3.170   8.201  0.00  0.00    +0.000 A 
ATOM     17  C   UNL     1      45.556   1.809   8.537  0.00  0.00    +0.000 A 
ATOM     18  C   UNL     1      46.492   0.945   7.966  0.00  0.00    +0.000 A 
ATOM     19  C   UNL     1      47.422   1.431   7.049  0.00  0.00    +0.000 A 
ATOM     20  C   UNL     1      47.433   2.783   6.716  0.00  0.00    +0.000 A 
ATOM     21  C   UNL     1      46.516   3.652   7.305  0.00  0.00    +0.000 A 
ENDBRANCH  15  16
ENDBRANCH  13  15
ENDBRANCH   4  13
TORSDOF 4
ENDMDL
MODEL 2
REMARK VINA RESULT:    -7.550      3.550      6.015
REMARK INTER + INTRA:          -9.675
REMARK INTER:                  -9.377
REMARK INTRA:                  -0.298
REMARK UNBOUND:                -0.360
REMARK  Name = 
REMARK  4 active torsions:
REMARK  status: ('A' for Active; 'I' for Inactive)
REMARK    1  A    between atoms: C_2  and  C_4
REMARK    2  A    between atoms: C_7  and  N_8
REMARK    3  A    between atoms: N_8  and  C_9
REMARK    4  A    between atoms: C_9  and  C_10
REMARK                            x       y       z     vdW  Elec       q    Type
REMARK                         _______ _______ _______ _____ _____    ______ ____
ROOT
ATOM      1  C   UNL     1      46.159   1.973   7.986  0.00  0.00    +0.000 A 
ATOM      2  N   UNL     1      45.500   1.646   9.140  0.00  0.00    +0.000 NA
ATOM      3  C   UNL     1      44.716   2.612   9.686  0.00  0.00    +0.000 A 
ATOM      4  C   UNL     1      44.554   3.904   9.180  0.00  0.00    +0.000 A 
ATOM      5  C   UNL     1      45.260   4.186   8.009  0.00  0.00    +0.000 A 
ATOM      6  C   UNL     1      46.052   3.223   7.380  0.00  0.00    +0.000 A 
ATOM      7 CL   UNL     1      46.796   3.685   5.893  0.00  0.00    +0.000 Cl
ENDROOT
BRANCH   1   9
ATOM      8  N   UNL     1      46.624  -0.403   7.605  0.00  0.00    +0.000 N 
ATOM      9  C   UNL     1      47.034   0.894   7.428  0.00  0.00    +0.000 C 
ATOM     10  O   UNL     1      48.095   1.105   6.843  0.00  0.00    +0.000 OA
ATOM     11  H   UNL     1      47.221  -1.137   7.245  0.00  0.00    +0.000 HD
ATOM     12  H   UNL     1      45.779  -0.627   8.102  0.00  0.00    +0.000 HD
ENDBRANCH   1   9
BRANCH   4  13
ATOM     13  N   UNL     1      43.755   4.836   9.814  0.00  0.00    +0.000 N 
ATOM     14  H   UNL     1      43.051   5.331   9.277  0.00  0.00    +0.000 HD
BRANCH  13  15
ATOM     15  C   UNL     1      43.644   4.922  11.260  0.00  0.00    +0.000 C 
BRANCH  15  16
ATOM     16  C   UNL     1      44.933   5.402  11.872  0.00  0.00    +0.000 A 
ATOM     17  C   UNL     1      45.490   4.741  12.975  0.00  0.00    +0.000 A 
ATOM     18  C   UNL     1      46.710   5.161  13.508  0.00  0.00    +0.000 A 
ATOM     19  C   UNL     1      47.388   6.235  12.936  0.00  0.00    +0.000 A 
ATOM     20  C   UNL     1      46.839   6.906  11.845  0.00  0.00    +0.000 A 
ATOM     21  C   UNL     1      45.608   6.505  11.330  0.00  0.00    +0.000 A 
ENDBRANCH  15  16
ENDBRANCH  13  15
ENDBRANCH   4  13
TORSDOF 4
ENDMDL
MODEL 3
REMARK VINA RESULT:    -7.492      1.229      1.754
REMARK INTER + INTRA:          -9.605
REMARK INTER:                  -9.268
REMARK INTRA:                  -0.336
REMARK UNBOUND:                -0.360
REMARK  Name = 
REMARK  4 active torsions:
REMARK  status: ('A' for Active; 'I' for Inactive)
REMARK    1  A    between atoms: C_2  and  C_4
REMARK    2  A    between atoms: C_7  and  N_8
REMARK    3  A    between atoms: N_8  and  C_9
REMARK    4  A    between atoms: C_9  and  C_10
REMARK                            x       y       z     vdW  Elec       q    Type
REMARK                         _______ _______ _______ _____ _____    ______ ____
ROOT
ATOM      1  C   UNL     1      46.808   4.716  14.050  0.00  0.00    +0.000 A 
ATOM      2  N   UNL     1      45.774   3.893  13.694  0.00  0.00    +0.000 NA
ATOM      3  C   UNL     1      45.166   4.162  12.509  0.00  0.00    +0.000 A 
ATOM      4  C   UNL     1      45.495   5.213  11.650  0.00  0.00    +0.000 A 
ATOM      5  C   UNL     1      46.548   6.027  12.070  0.00  0.00    +0.000 A 
ATOM      6  C   UNL     1      47.237   5.780  13.260  0.00  0.00    +0.000 A 
ATOM      7 CL   UNL     1      48.574   6.815  13.609  0.00  0.00    +0.000 Cl
ENDROOT
BRANCH   1   9
ATOM      8  N   UNL     1      47.534   5.434  16.278  0.00  0.00    +0.000 N 
ATOM      9  C   UNL     1      47.436   4.408  15.374  0.00  0.00    +0.000 C 
ATOM     10  O   UNL     1      47.880   3.304  15.681  0.00  0.00    +0.000 OA
ATOM     11  H   UNL     1      47.974   5.235  17.168  0.00  0.00    +0.000 HD
ATOM     12  H   UNL     1      47.211   6.362  16.062  0.00  0.00    +0.000 HD
ENDBRANCH   1   9
BRANCH   4  13
ATOM     13  N   UNL     1      44.806   5.430  10.472  0.00  0.00    +0.000 N 
ATOM     14  H   UNL     1      44.972   6.286   9.953  0.00  0.00    +0.000 HD
BRANCH  13  15
ATOM     15  C   UNL     1      44.098   4.374   9.770  0.00  0.00    +0.000 C 
BRANCH  15  16
ATOM     16  C   UNL     1      45.036   3.587   8.892  0.00  0.00    +0.000 A 
ATOM     17  C   UNL     1      45.838   4.236   7.944  0.00  0.00    +0.000 A 
ATOM     18  C   UNL     1      46.741   3.508   7.167  0.00  0.00    +0.000 A 
ATOM     19  C   UNL     1      46.857   2.130   7.340  0.00  0.00    +0.000 A 
ATOM     20  C   UNL     1      46.057   1.474   8.273  0.00  0.00    +0.000 A 
ATOM     21  C   UNL     1      45.136   2.196   9.030  0.00  0.00    +0.000 A 
ENDBRANCH  15  16
ENDBRANCH  13  15
ENDBRANCH   4  13
TORSDOF 4
ENDMDL
MODEL 4
REMARK VINA RESULT:    -7.217      1.805      2.023
REMARK INTER + INTRA:          -9.264
REMARK INTER:                  -8.775
REMARK INTRA:                  -0.489
REMARK UNBOUND:                -0.360
REMARK  Name = 
REMARK  4 active torsions:
REMARK  status: ('A' for Active; 'I' for Inactive)
REMARK    1  A    between atoms: C_2  and  C_4
REMARK    2  A    between atoms: C_7  and  N_8
REMARK    3  A    between atoms: N_8  and  C_9
REMARK    4  A    between atoms: C_9  and  C_10
REMARK                            x       y       z     vdW  Elec       q    Type
REMARK                         _______ _______ _______ _____ _____    ______ ____
ROOT
ATOM      1  C   UNL     1      46.649   6.128  12.731  0.00  0.00    +0.000 A 
ATOM      2  N   UNL     1      46.242   6.479  11.473  0.00  0.00    +0.000 NA
ATOM      3  C   UNL     1      45.539   5.545  10.780  0.00  0.00    +0.000 A 
ATOM      4  C   UNL     1      45.223   4.265  11.240  0.00  0.00    +0.000 A 
ATOM      5  C   UNL     1      45.674   3.957  12.525  0.00  0.00    +0.000 A 
ATOM      6  C   UNL     1      46.370   4.887  13.300  0.00  0.00    +0.000 A 
ATOM      7 CL   UNL     1      46.788   4.400  14.902  0.00  0.00    +0.000 Cl
ENDROOT
BRANCH   1   9
ATOM      8  N   UNL     1      46.775   8.288  13.883  0.00  0.00    +0.000 N 
ATOM      9  C   UNL     1      47.445   7.170  13.454  0.00  0.00    +0.000 C 
ATOM     10  O   UNL     1      48.653   7.087  13.665  0.00  0.00    +0.000 OA
ATOM     11  H   UNL     1      47.312   9.003  14.357  0.00  0.00    +0.000 HD
ATOM     12  H   UNL     1      45.792   8.414  13.710  0.00  0.00    +0.000 HD
ENDBRANCH   1   9
BRANCH   4  13
ATOM     13  N   UNL     1      44.523   3.366  10.458  0.00  0.00    +0.000 N 
ATOM     14  H   UNL     1      43.895   2.706  10.905  0.00  0.00    +0.000 HD
BRANCH  13  15
ATOM     15  C   UNL     1      44.389   3.514   9.019  0.00  0.00    +0.000 C 
BRANCH  15  16
ATOM     16  C   UNL     1      45.535   2.854   8.299  0.00  0.00    +0.000 A 
ATOM     17  C   UNL     1      45.769   1.479   8.440  0.00  0.00    +0.000 A 
ATOM     18  C   UNL     1      46.803   0.863   7.732  0.00  0.00    +0.000 A 
ATOM     19  C   UNL     1      47.601   1.613   6.870  0.00  0.00    +0.000 A 
ATOM     20  C   UNL     1      47.383   2.982   6.731  0.00  0.00    +0.000 A 
ATOM     21  C   UNL     1      46.370   3.603   7.458  0.00  0.00    +0.000 A 
ENDBRANCH  15  16
ENDBRANCH  13  15
ENDBRANCH   4  13
TORSDOF 4
ENDMDL
MODEL 5
REMARK VINA RESULT:    -7.122      2.337      3.053
REMARK INTER + INTRA:          -9.147
REMARK INTER:                  -8.860
REMARK INTRA:                  -0.287
REMARK UNBOUND:                -0.360
REMARK  Name = 
REMARK  4 active torsions:
REMARK  status: ('A' for Active; 'I' for Inactive)
REMARK    1  A    between atoms: C_2  and  C_4
REMARK    2  A    between atoms: C_7  and  N_8
REMARK    3  A    between atoms: N_8  and  C_9
REMARK    4  A    between atoms: C_9  and  C_10
REMARK                            x       y       z     vdW  Elec       q    Type
REMARK                         _______ _______ _______ _____ _____    ______ ____
ROOT
ATOM      1  C   UNL     1      44.634   6.900  11.506  0.00  0.00    +0.000 A 
ATOM      2  N   UNL     1      43.459   6.239  11.270  0.00  0.00    +0.000 NA
ATOM      3  C   UNL     1      43.549   4.901  11.054  0.00  0.00    +0.000 A 
ATOM      4  C   UNL     1      44.734   4.162  11.032  0.00  0.00    +0.000 A 
ATOM      5  C   UNL     1      45.902   4.889  11.267  0.00  0.00    +0.000 A 
ATOM      6  C   UNL     1      45.872   6.260  11.531  0.00  0.00    +0.000 A 
ATOM      7 CL   UNL     1      47.383   7.012  11.890  0.00  0.00    +0.000 Cl
ENDROOT
BRANCH   1   9
ATOM      8  N   UNL     1      43.626   9.049  10.897  0.00  0.00    +0.000 N 
ATOM      9  C   UNL     1      44.501   8.377  11.711  0.00  0.00    +0.000 C 
ATOM     10  O   UNL     1      45.140   9.013  12.547  0.00  0.00    +0.000 OA
ATOM     11  H   UNL     1      43.545  10.051  11.021  0.00  0.00    +0.000 HD
ATOM     12  H   UNL     1      43.102   8.577  10.180  0.00  0.00    +0.000 HD
ENDBRANCH   1   9
BRANCH   4  13
ATOM     13  N   UNL     1      44.737   2.803  10.780  0.00  0.00    +0.000 N 
ATOM     14  H   UNL     1      44.831   2.157  11.556  0.00  0.00    +0.000 HD
BRANCH  13  15
ATOM     15  C   UNL     1      44.298   2.238   9.516  0.00  0.00    +0.000 C 
BRANCH  15  16
ATOM     16  C   UNL     1      45.393   2.305   8.485  0.00  0.00    +0.000 A 
ATOM     17  C   UNL     1      46.175   1.176   8.201  0.00  0.00    +0.000 A 
ATOM     18  C   UNL     1      47.157   1.230   7.210  0.00  0.00    +0.000 A 
ATOM     19  C   UNL     1      47.357   2.406   6.489  0.00  0.00    +0.000 A 
ATOM     20  C   UNL     1      46.593   3.535   6.771  0.00  0.00    +0.000 A 
ATOM     21  C   UNL     1      45.631   3.492   7.778  0.00  0.00    +0.000 A 
ENDBRANCH  15  16
ENDBRANCH  13  15
ENDBRANCH   4  13
TORSDOF 4
ENDMDL
MODEL 6
REMARK VINA RESULT:    -6.734      1.597      1.913
REMARK INTER + INTRA:          -8.669
REMARK INTER:                  -8.136
REMARK INTRA:                  -0.533
REMARK UNBOUND:                -0.360
REMARK  Name = 
REMARK  4 active torsions:
REMARK  status: ('A' for Active; 'I' for Inactive)
REMARK    1  A    between atoms: C_2  and  C_4
REMARK    2  A    between atoms: C_7  and  N_8
REMARK    3  A    between atoms: N_8  and  C_9
REMARK    4  A    between atoms: C_9  and  C_10
REMARK                            x       y       z     vdW  Elec       q    Type
REMARK                         _______ _______ _______ _____ _____    ______ ____
ROOT
ATOM      1  C   UNL     1      47.611   6.193  13.902  0.00  0.00    +0.000 A 
ATOM      2  N   UNL     1      47.437   4.882  14.255  0.00  0.00    +0.000 NA
ATOM      3  C   UNL     1      46.497   4.188  13.562  0.00  0.00    +0.000 A 
ATOM      4  C   UNL     1      45.690   4.708  12.547  0.00  0.00    +0.000 A 
ATOM      5  C   UNL     1      45.902   6.053  12.238  0.00  0.00    +0.000 A 
ATOM      6  C   UNL     1      46.879   6.809  12.889  0.00  0.00    +0.000 A 
ATOM      7 CL   UNL     1      47.091   8.433  12.343  0.00  0.00    +0.000 Cl
ENDROOT
BRANCH   1   9
ATOM      8  N   UNL     1      48.182   7.704  15.745  0.00  0.00    +0.000 N 
ATOM      9  C   UNL     1      48.635   6.935  14.704  0.00  0.00    +0.000 C 
ATOM     10  O   UNL     1      49.841   6.906  14.471  0.00  0.00    +0.000 OA
ATOM     11  H   UNL     1      48.869   8.221  16.280  0.00  0.00    +0.000 HD
ATOM     12  H   UNL     1      47.201   7.782  15.958  0.00  0.00    +0.000 HD
ENDBRANCH   1   9
BRANCH   4  13
ATOM     13  N   UNL     1      44.738   3.936  11.910  0.00  0.00    +0.000 N 
ATOM     14  H   UNL     1      44.227   3.241  12.443  0.00  0.00    +0.000 HD
BRANCH  13  15
ATOM     15  C   UNL     1      44.201   4.272  10.602  0.00  0.00    +0.000 C 
BRANCH  15  16
ATOM     16  C   UNL     1      45.014   3.637   9.506  0.00  0.00    +0.000 A 
ATOM     17  C   UNL     1      45.136   2.243   9.424  0.00  0.00    +0.000 A 
ATOM     18  C   UNL     1      45.850   1.658   8.377  0.00  0.00    +0.000 A 
ATOM     19  C   UNL     1      46.437   2.459   7.399  0.00  0.00    +0.000 A 
ATOM     20  C   UNL     1      46.330   3.845   7.476  0.00  0.00    +0.000 A 
ATOM     21  C   UNL     1      45.641   4.432   8.536  0.00  0.00    +0.000 A 
ENDBRANCH  15  16
ENDBRANCH  13  15
ENDBRANCH   4  13
TORSDOF 4
ENDMDL
MODEL 7
REMARK VINA RESULT:    -6.109      2.389      3.457
REMARK INTER + INTRA:          -7.897
REMARK INTER:                  -7.607
REMARK INTRA:                  -0.291
REMARK UNBOUND:                -0.360
REMARK  Name = 
REMARK  4 active torsions:
REMARK  status: ('A' for Active; 'I' for Inactive)
REMARK    1  A    between atoms: C_2  and  C_4
REMARK    2  A    between atoms: C_7  and  N_8
REMARK    3  A    between atoms: N_8  and  C_9
REMARK    4  A    between atoms: C_9  and  C_10
REMARK                            x       y       z     vdW  Elec       q    Type
REMARK                         _______ _______ _______ _____ _____    ______ ____
ROOT
ATOM      1  C   UNL     1      47.567   3.948  15.544  0.00  0.00    +0.000 A 
ATOM      2  N   UNL     1      47.092   3.273  14.452  0.00  0.00    +0.000 NA
ATOM      3  C   UNL     1      46.904   4.003  13.322  0.00  0.00    +0.000 A 
ATOM      4  C   UNL     1      47.133   5.375  13.197  0.00  0.00    +0.000 A 
ATOM      5  C   UNL     1      47.605   6.014  14.344  0.00  0.00    +0.000 A 
ATOM      6  C   UNL     1      47.853   5.311  15.526  0.00  0.00    +0.000 A 
ATOM      7 CL   UNL     1      48.519   6.215  16.837  0.00  0.00    +0.000 Cl
ENDROOT
BRANCH   1   9
ATOM      8  N   UNL     1      48.989   2.622  17.036  0.00  0.00    +0.000 N 
ATOM      9  C   UNL     1      47.736   3.119  16.779  0.00  0.00    +0.000 C 
ATOM     10  O   UNL     1      46.821   2.848  17.553  0.00  0.00    +0.000 OA
ATOM     11  H   UNL     1      49.104   2.046  17.861  0.00  0.00    +0.000 HD
ATOM     12  H   UNL     1      49.763   2.793  16.417  0.00  0.00    +0.000 HD
ENDBRANCH   1   9
BRANCH   4  13
ATOM     13  N   UNL     1      46.890   6.046  12.013  0.00  0.00    +0.000 N 
ATOM     14  H   UNL     1      47.665   6.241  11.389  0.00  0.00    +0.000 HD
BRANCH  13  15
ATOM     15  C   UNL     1      45.557   6.207  11.461  0.00  0.00    +0.000 C 
BRANCH  15  16
ATOM     16  C   UNL     1      45.252   5.125  10.460  0.00  0.00    +0.000 A 
ATOM     17  C   UNL     1      45.804   5.168   9.172  0.00  0.00    +0.000 A 
ATOM     18  C   UNL     1      45.558   4.137   8.264  0.00  0.00    +0.000 A 
ATOM     19  C   UNL     1      44.770   3.050   8.640  0.00  0.00    +0.000 A 
ATOM     20  C   UNL     1      44.209   3.002   9.913  0.00  0.00    +0.000 A 
ATOM     21  C   UNL     1      44.431   4.044  10.811  0.00  0.00    +0.000 A 
ENDBRANCH  15  16
ENDBRANCH  13  15
ENDBRANCH   4  13
TORSDOF 4
ENDMDL
MODEL 8
REMARK VINA RESULT:    -6.052      3.212      7.130
REMARK INTER + INTRA:          -7.828
REMARK INTER:                  -7.495
REMARK INTRA:                  -0.333
REMARK UNBOUND:                -0.360
REMARK  Name = 
REMARK  4 active torsions:
REMARK  status: ('A' for Active; 'I' for Inactive)
REMARK    1  A    between atoms: C_2  and  C_4
REMARK    2  A    between atoms: C_7  and  N_8
REMARK    3  A    between atoms: N_8  and  C_9
REMARK    4  A    between atoms: C_9  and  C_10
REMARK                            x       y       z     vdW  Elec       q    Type
REMARK                         _______ _______ _______ _____ _____    ______ ____
ROOT
ATOM      1  C   UNL     1      45.128   3.835  12.168  0.00  0.00    +0.000 A 
ATOM      2  N   UNL     1      45.893   2.948  12.877  0.00  0.00    +0.000 NA
ATOM      3  C   UNL     1      46.670   3.470  13.861  0.00  0.00    +0.000 A 
ATOM      4  C   UNL     1      46.766   4.825  14.185  0.00  0.00    +0.000 A 
ATOM      5  C   UNL     1      45.974   5.685  13.421  0.00  0.00    +0.000 A 
ATOM      6  C   UNL     1      45.126   5.205  12.420  0.00  0.00    +0.000 A 
ATOM      7 CL   UNL     1      44.140   6.372  11.617  0.00  0.00    +0.000 Cl
ENDROOT
BRANCH   1   9
ATOM      8  N   UNL     1      44.971   2.528  10.100  0.00  0.00    +0.000 N 
ATOM      9  C   UNL     1      44.305   3.229  11.073  0.00  0.00    +0.000 C 
ATOM     10  O   UNL     1      43.084   3.340  10.992  0.00  0.00    +0.000 OA
ATOM     11  H   UNL     1      44.421   2.131   9.349  0.00  0.00    +0.000 HD
ATOM     12  H   UNL     1      45.973   2.434  10.108  0.00  0.00    +0.000 HD
ENDBRANCH   1   9
BRANCH   4  13
ATOM     13  N   UNL     1      47.603   5.274  15.188  0.00  0.00    +0.000 N 
ATOM     14  H   UNL     1      48.108   6.144  15.057  0.00  0.00    +0.000 HD
BRANCH  13  15
ATOM     15  C   UNL     1      47.564   4.745  16.540  0.00  0.00    +0.000 C 
BRANCH  15  16
ATOM     16  C   UNL     1      48.850   4.040  16.882  0.00  0.00    +0.000 A 
ATOM     17  C   UNL     1      49.947   4.759  17.376  0.00  0.00    +0.000 A 
ATOM     18  C   UNL     1      51.120   4.093  17.737  0.00  0.00    +0.000 A 
ATOM     19  C   UNL     1      51.201   2.707  17.619  0.00  0.00    +0.000 A 
ATOM     20  C   UNL     1      50.120   1.985  17.120  0.00  0.00    +0.000 A 
ATOM     21  C   UNL     1      48.958   2.650  16.733  0.00  0.00    +0.000 A 
ENDBRANCH  15  16
ENDBRANCH  13  15
ENDBRANCH   4  13
TORSDOF 4
ENDMDL
MODEL 9
REMARK VINA RESULT:    -5.893      3.580      6.239
REMARK INTER + INTRA:          -7.632
REMARK INTER:                  -7.142
REMARK INTRA:                  -0.490
REMARK UNBOUND:                -0.360
REMARK  Name = 
REMARK  4 active torsions:
REMARK  status: ('A' for Active; 'I' for Inactive)
REMARK    1  A    between atoms: C_2  and  C_4
REMARK    2  A    between atoms: C_7  and  N_8
REMARK    3  A    between atoms: N_8  and  C_9
REMARK    4  A    between atoms: C_9  and  C_10
REMARK                            x       y       z     vdW  Elec       q    Type
REMARK                         _______ _______ _______ _____ _____    ______ ____
ROOT
ATOM      1  C   UNL     1      44.600   3.720  12.026  0.00  0.00    +0.000 A 
ATOM      2  N   UNL     1      45.721   3.299  12.688  0.00  0.00    +0.000 NA
ATOM      3  C   UNL     1      46.423   4.250  13.357  0.00  0.00    +0.000 A 
ATOM      4  C   UNL     1      46.106   5.610  13.400  0.00  0.00    +0.000 A 
ATOM      5  C   UNL     1      44.960   5.984  12.697  0.00  0.00    +0.000 A 
ATOM      6  C   UNL     1      44.176   5.046  12.021  0.00  0.00    +0.000 A 
ATOM      7 CL   UNL     1      42.739   5.639  11.269  0.00  0.00    +0.000 Cl
ENDROOT
BRANCH   1   9
ATOM      8  N   UNL     1      44.371   2.276  10.058  0.00  0.00    +0.000 N 
ATOM      9  C   UNL     1      43.866   2.650  11.278  0.00  0.00    +0.000 C 
ATOM     10  O   UNL     1      42.840   2.110  11.684  0.00  0.00    +0.000 OA
ATOM     11  H   UNL     1      43.869   1.566   9.541  0.00  0.00    +0.000 HD
ATOM     12  H   UNL     1      45.192   2.709   9.671  0.00  0.00    +0.000 HD
ENDBRANCH   1   9
BRANCH   4  13
ATOM     13  N   UNL     1      46.892   6.516  14.086  0.00  0.00    +0.000 N 
ATOM     14  H   UNL     1      46.550   6.906  14.958  0.00  0.00    +0.000 HD
BRANCH  13  15
ATOM     15  C   UNL     1      48.304   6.705  13.801  0.00  0.00    +0.000 C 
BRANCH  15  16
ATOM     16  C   UNL     1      48.526   7.938  12.967  0.00  0.00    +0.000 A 
ATOM     17  C   UNL     1      49.717   8.109  12.248  0.00  0.00    +0.000 A 
ATOM     18  C   UNL     1      49.897   9.231  11.438  0.00  0.00    +0.000 A 
ATOM     19  C   UNL     1      48.886  10.184  11.331  0.00  0.00    +0.000 A 
ATOM     20  C   UNL     1      47.703  10.030  12.049  0.00  0.00    +0.000 A 
ATOM     21  C   UNL     1      47.532   8.924  12.880  0.00  0.00    +0.000 A 
ENDBRANCH  15  16
ENDBRANCH  13  15
ENDBRANCH   4  13
TORSDOF 4
ENDMDL
