MODEL 1
REMARK VINA RESULT:    -8.683      0.000      0.000
REMARK INTER + INTRA:         -11.938
REMARK INTER:                 -11.221
REMARK INTRA:                  -0.716
REMARK UNBOUND:                -0.716
REMARK  Name = 
REMARK  5 active torsions:
REMARK  status: ('A' for Active; 'I' for Inactive)
REMARK    1  A    between atoms: C_2  and  C_4
REMARK    2  A    between atoms: C_7  and  N_8
REMARK    3  A    between atoms: N_8  and  C_9
REMARK    4  A    between atoms: C_9  and  C_10
REMARK    5  A    between atoms: C_15  and  C_16
REMARK                            x       y       z     vdW  Elec       q    Type
REMARK                         _______ _______ _______ _____ _____    ______ ____
ROOT
ATOM      1  C   UNL     1      43.570   4.494  11.142  0.00  0.00    +0.000 C 
ENDROOT
BRANCH   1   2
ATOM      2  C   UNL     1      44.813   4.884  11.913  0.00  0.00    +0.000 A 
ATOM      3  C   UNL     1      45.399   4.015  12.837  0.00  0.00    +0.000 A 
ATOM      4  C   UNL     1      46.540   4.410  13.531  0.00  0.00    +0.000 A 
ATOM      5  C   UNL     1      47.102   5.667  13.300  0.00  0.00    +0.000 A 
ATOM      6  F   UNL     1      48.219   5.974  13.977  0.00  0.00    +0.000 F 
ATOM      7  C   UNL     1      46.548   6.583  12.389  0.00  0.00    +0.000 A 
ATOM      8  C   UNL     1      45.387   6.159  11.711  0.00  0.00    +0.000 A 
BRANCH   7   9
ATOM      9  C   UNL     1      47.143   7.917  12.139  0.00  0.00    +0.000 A 
ATOM     10  C   UNL     1      46.430   9.108  12.332  0.00  0.00    +0.000 A 
ATOM     11  N   UNL     1      46.919  10.362  12.130  0.00  0.00    +0.000 NA
ATOM     12  C   UNL     1      48.196  10.447  11.706  0.00  0.00    +0.000 A 
ATOM     13  C   UNL     1      48.990   9.343  11.472  0.00  0.00    +0.000 A 
ATOM     14  F   UNL     1      50.250   9.485  11.043  0.00  0.00    +0.000 F 
ATOM     15  C   UNL     1      48.465   8.073  11.689  0.00  0.00    +0.000 A 
ENDBRANCH   7   9
ENDBRANCH   1   2
BRANCH   1  16
ATOM     16  N   UNL     1      43.772   4.846   9.742  0.00  0.00    +0.000 N 
ATOM     17  H   UNL     1      44.052   5.816   9.629  0.00  0.00    +0.000 HD
BRANCH  16  21
ATOM     18  C   UNL     1      46.275   2.229   7.814  0.00  0.00    +0.000 A 
ATOM     19  C   UNL     1      46.328   3.585   7.539  0.00  0.00    +0.000 A 
ATOM     20  N   UNL     1      45.486   4.482   8.122  0.00  0.00    +0.000 NA
ATOM     21  C   UNL     1      44.584   3.987   8.996  0.00  0.00    +0.000 A 
ATOM     22  C   UNL     1      44.540   2.608   9.246  0.00  0.00    +0.000 A 
ATOM     23  N   UNL     1      45.363   1.694   8.670  0.00  0.00    +0.000 NA
BRANCH  18  25
ATOM     24  N   UNL     1      48.310   1.907   6.546  0.00  0.00    +0.000 N 
ATOM     25  C   UNL     1      47.261   1.306   7.188  0.00  0.00    +0.000 C 
ATOM     26  O   UNL     1      47.140   0.090   7.234  0.00  0.00    +0.000 OA
ATOM     27  H   UNL     1      49.002   1.338   6.079  0.00  0.00    +0.000 HD
ATOM     28  H   UNL     1      48.368   2.919   6.508  0.00  0.00    +0.000 HD
ENDBRANCH  18  25
ENDBRANCH  16  21
ENDBRANCH   1  16
TORSDOF 5
ENDMDL
MODEL 2
REMARK VINA RESULT:    -8.481      2.370      4.003
REMARK INTER + INTRA:         -11.676
REMARK INTER:                 -11.488
REMARK INTRA:                  -0.188
REMARK UNBOUND:                -0.716
REMARK  Name = 
REMARK  5 active torsions:
REMARK  status: ('A' for Active; 'I' for Inactive)
REMARK    1  A    between atoms: C_2  and  C_4
REMARK    2  A    between atoms: C_7  and  N_8
REMARK    3  A    between atoms: N_8  and  C_9
REMARK    4  A    between atoms: C_9  and  C_10
REMARK    5  A    between atoms: C_15  and  C_16
REMARK                            x       y       z     vdW  Elec       q    Type
REMARK                         _______ _______ _______ _____ _____    ______ ____
ROOT
ATOM      1  C   UNL     1      44.001   4.774  11.353  0.00  0.00    +0.000 C 
ENDROOT
BRANCH   1   2
ATOM      2  C   UNL     1      45.285   5.394  11.861  0.00  0.00    +0.000 A 
ATOM      3  C   UNL     1      45.986   6.337  11.107  0.00  0.00    +0.000 A 
ATOM      4  C   UNL     1      47.167   6.883  11.606  0.00  0.00    +0.000 A 
ATOM      5  C   UNL     1      47.646   6.493  12.858  0.00  0.00    +0.000 A 
ATOM      6  F   UNL     1      48.771   7.080  13.294  0.00  0.00    +0.000 F 
ATOM      7  C   UNL     1      46.985   5.541  13.653  0.00  0.00    +0.000 A 
ATOM      8  C   UNL     1      45.800   4.999  13.116  0.00  0.00    +0.000 A 
BRANCH   7   9
ATOM      9  C   UNL     1      47.489   5.127  14.984  0.00  0.00    +0.000 A 
ATOM     10  C   UNL     1      48.403   5.897  15.716  0.00  0.00    +0.000 A 
ATOM     11  N   UNL     1      48.897   5.579  16.944  0.00  0.00    +0.000 NA
ATOM     12  C   UNL     1      48.462   4.423  17.486  0.00  0.00    +0.000 A 
ATOM     13  C   UNL     1      47.570   3.581  16.853  0.00  0.00    +0.000 A 
ATOM     14  F   UNL     1      47.178   2.440  17.433  0.00  0.00    +0.000 F 
ATOM     15  C   UNL     1      47.080   3.932  15.599  0.00  0.00    +0.000 A 
ENDBRANCH   7   9
ENDBRANCH   1   2
BRANCH   1  16
ATOM     16  N   UNL     1      43.963   4.928   9.904  0.00  0.00    +0.000 N 
ATOM     17  H   UNL     1      44.188   5.875   9.614  0.00  0.00    +0.000 HD
BRANCH  16  21
ATOM     18  C   UNL     1      46.178   2.063   7.976  0.00  0.00    +0.000 A 
ATOM     19  C   UNL     1      46.272   3.393   7.604  0.00  0.00    +0.000 A 
ATOM     20  N   UNL     1      45.522   4.369   8.186  0.00  0.00    +0.000 NA
ATOM     21  C   UNL     1      44.670   3.981   9.159  0.00  0.00    +0.000 A 
ATOM     22  C   UNL     1      44.583   2.625   9.508  0.00  0.00    +0.000 A 
ATOM     23  N   UNL     1      45.314   1.633   8.935  0.00  0.00    +0.000 NA
BRANCH  18  25
ATOM     24  N   UNL     1      46.789  -0.254   7.649  0.00  0.00    +0.000 N 
ATOM     25  C   UNL     1      47.066   1.051   7.342  0.00  0.00    +0.000 C 
ATOM     26  O   UNL     1      47.990   1.361   6.603  0.00  0.00    +0.000 OA
ATOM     27  H   UNL     1      47.370  -0.991   7.272  0.00  0.00    +0.000 HD
ATOM     28  H   UNL     1      46.030  -0.476   8.284  0.00  0.00    +0.000 HD
ENDBRANCH  18  25
ENDBRANCH  16  21
ENDBRANCH   1  16
TORSDOF 5
ENDMDL
MODEL 3
REMARK VINA RESULT:    -8.044      1.607      2.072
REMARK INTER + INTRA:         -11.111
REMARK INTER:                 -10.583
REMARK INTRA:                  -0.528
REMARK UNBOUND:                -0.716
REMARK  Name = 
REMARK  5 active torsions:
REMARK  status: ('A' for Active; 'I' for Inactive)
REMARK    1  A    between atoms: C_2  and  C_4
REMARK    2  A    between atoms: C_7  and  N_8
REMARK    3  A    between atoms: N_8  and  C_9
REMARK    4  A    between atoms: C_9  and  C_10
REMARK    5  A    between atoms: C_15  and  C_16
REMARK                            x       y       z     vdW  Elec       q    Type
REMARK                         _______ _______ _______ _____ _____    ______ ____
ROOT
ATOM      1  C   UNL     1      43.838   3.525  11.648  0.00  0.00    +0.000 C 
ENDROOT
BRANCH   1   2
ATOM      2  C   UNL     1      44.996   4.269  12.280  0.00  0.00    +0.000 A 
ATOM      3  C   UNL     1      45.934   3.612  13.079  0.00  0.00    +0.000 A 
ATOM      4  C   UNL     1      46.983   4.331  13.647  0.00  0.00    +0.000 A 
ATOM      5  C   UNL     1      47.101   5.702  13.415  0.00  0.00    +0.000 A 
ATOM      6  F   UNL     1      48.152   6.330  13.965  0.00  0.00    +0.000 F 
ATOM      7  C   UNL     1      46.180   6.414  12.628  0.00  0.00    +0.000 A 
ATOM      8  C   UNL     1      45.123   5.662  12.076  0.00  0.00    +0.000 A 
BRANCH   7   9
ATOM      9  C   UNL     1      46.303   7.869  12.376  0.00  0.00    +0.000 A 
ATOM     10  C   UNL     1      47.542   8.502  12.206  0.00  0.00    +0.000 A 
ATOM     11  N   UNL     1      47.724   9.829  11.964  0.00  0.00    +0.000 NA
ATOM     12  C   UNL     1      46.610  10.584  11.887  0.00  0.00    +0.000 A 
ATOM     13  C   UNL     1      45.338  10.072  12.048  0.00  0.00    +0.000 A 
ATOM     14  F   UNL     1      44.266  10.868  11.971  0.00  0.00    +0.000 F 
ATOM     15  C   UNL     1      45.181   8.711  12.293  0.00  0.00    +0.000 A 
ENDBRANCH   7   9
ENDBRANCH   1   2
BRANCH   1  16
ATOM     16  N   UNL     1      43.737   3.939  10.254  0.00  0.00    +0.000 N 
ATOM     17  H   UNL     1      43.573   4.937  10.162  0.00  0.00    +0.000 HD
BRANCH  16  21
ATOM     18  C   UNL     1      46.568   2.781   7.519  0.00  0.00    +0.000 A 
ATOM     19  C   UNL     1      45.952   1.845   8.334  0.00  0.00    +0.000 A 
ATOM     20  N   UNL     1      45.042   2.192   9.285  0.00  0.00    +0.000 NA
ATOM     21  C   UNL     1      44.757   3.506   9.401  0.00  0.00    +0.000 A 
ATOM     22  C   UNL     1      45.404   4.436   8.574  0.00  0.00    +0.000 A 
ATOM     23  N   UNL     1      46.322   4.114   7.626  0.00  0.00    +0.000 NA
BRANCH  18  25
ATOM     24  N   UNL     1      47.434   3.014   5.273  0.00  0.00    +0.000 N 
ATOM     25  C   UNL     1      47.511   2.334   6.458  0.00  0.00    +0.000 C 
ATOM     26  O   UNL     1      48.299   1.414   6.627  0.00  0.00    +0.000 OA
ATOM     27  H   UNL     1      48.029   2.745   4.502  0.00  0.00    +0.000 HD
ATOM     28  H   UNL     1      46.753   3.757   5.158  0.00  0.00    +0.000 HD
ENDBRANCH  18  25
ENDBRANCH  16  21
ENDBRANCH   1  16
TORSDOF 5
ENDMDL
MODEL 4
REMARK VINA RESULT:    -7.920      1.714      2.392
REMARK INTER + INTRA:         -10.952
REMARK INTER:                 -10.194
REMARK INTRA:                  -0.757
REMARK UNBOUND:                -0.716
REMARK  Name = 
REMARK  5 active torsions:
REMARK  status: ('A' for Active; 'I' for Inactive)
REMARK    1  A    between atoms: C_2  and  C_4
REMARK    2  A    between atoms: C_7  and  N_8
REMARK    3  A    between atoms: N_8  and  C_9
REMARK    4  A    between atoms: C_9  and  C_10
REMARK    5  A    between atoms: C_15  and  C_16
REMARK                            x       y       z     vdW  Elec       q    Type
REMARK                         _______ _______ _______ _____ _____    ______ ____
ROOT
ATOM      1  C   UNL     1      44.564   4.973  11.378  0.00  0.00    +0.000 C 
ENDROOT
BRANCH   1   2
ATOM      2  C   UNL     1      45.133   6.359  11.599  0.00  0.00    +0.000 A 
ATOM      3  C   UNL     1      44.330   7.498  11.508  0.00  0.00    +0.000 A 
ATOM      4  C   UNL     1      44.890   8.756  11.714  0.00  0.00    +0.000 A 
ATOM      5  C   UNL     1      46.247   8.881  12.016  0.00  0.00    +0.000 A 
ATOM      6  F   UNL     1      46.716  10.119  12.235  0.00  0.00    +0.000 F 
ATOM      7  C   UNL     1      47.101   7.769  12.110  0.00  0.00    +0.000 A 
ATOM      8  C   UNL     1      46.508   6.510  11.885  0.00  0.00    +0.000 A 
BRANCH   7   9
ATOM      9  C   UNL     1      48.542   7.896  12.434  0.00  0.00    +0.000 A 
ATOM     10  C   UNL     1      49.022   7.880  13.751  0.00  0.00    +0.000 A 
ATOM     11  N   UNL     1      50.330   7.983  14.115  0.00  0.00    +0.000 NA
ATOM     12  C   UNL     1      51.223   8.113  13.114  0.00  0.00    +0.000 A 
ATOM     13  C   UNL     1      50.865   8.151  11.782  0.00  0.00    +0.000 A 
ATOM     14  F   UNL     1      51.794   8.290  10.828  0.00  0.00    +0.000 F 
ATOM     15  C   UNL     1      49.522   8.041  11.438  0.00  0.00    +0.000 A 
ENDBRANCH   7   9
ENDBRANCH   1   2
BRANCH   1  16
ATOM     16  N   UNL     1      44.112   4.881   9.995  0.00  0.00    +0.000 N 
ATOM     17  H   UNL     1      43.963   5.796   9.580  0.00  0.00    +0.000 HD
BRANCH  16  21
ATOM     18  C   UNL     1      46.441   2.343   7.767  0.00  0.00    +0.000 A 
ATOM     19  C   UNL     1      46.443   3.704   7.514  0.00  0.00    +0.000 A 
ATOM     20  N   UNL     1      45.653   4.575   8.199  0.00  0.00    +0.000 NA
ATOM     21  C   UNL     1      44.854   4.050   9.152  0.00  0.00    +0.000 A 
ATOM     22  C   UNL     1      44.859   2.666   9.379  0.00  0.00    +0.000 A 
ATOM     23  N   UNL     1      45.632   1.777   8.703  0.00  0.00    +0.000 NA
BRANCH  18  25
ATOM     24  N   UNL     1      48.460   2.060   6.465  0.00  0.00    +0.000 N 
ATOM     25  C   UNL     1      47.370   1.449   7.025  0.00  0.00    +0.000 C 
ATOM     26  O   UNL     1      47.173   0.247   6.911  0.00  0.00    +0.000 OA
ATOM     27  H   UNL     1      49.118   1.515   5.926  0.00  0.00    +0.000 HD
ATOM     28  H   UNL     1      48.582   3.063   6.559  0.00  0.00    +0.000 HD
ENDBRANCH  18  25
ENDBRANCH  16  21
ENDBRANCH   1  16
TORSDOF 5
ENDMDL
MODEL 5
REMARK VINA RESULT:    -7.679      2.277      2.936
REMARK INTER + INTRA:         -10.640
REMARK INTER:                 -10.053
REMARK INTRA:                  -0.587
REMARK UNBOUND:                -0.716
REMARK  Name = 
REMARK  5 active torsions:
REMARK  status: ('A' for Active; 'I' for Inactive)
REMARK    1  A    between atoms: C_2  and  C_4
REMARK    2  A    between atoms: C_7  and  N_8
REMARK    3  A    between atoms: N_8  and  C_9
REMARK    4  A    between atoms: C_9  and  C_10
REMARK    5  A    between atoms: C_15  and  C_16
REMARK                            x       y       z     vdW  Elec       q    Type
REMARK                         _______ _______ _______ _____ _____    ______ ____
ROOT
ATOM      1  C   UNL     1      44.449   3.738  11.789  0.00  0.00    +0.000 C 
ENDROOT
BRANCH   1   2
ATOM      2  C   UNL     1      44.987   5.117  12.110  0.00  0.00    +0.000 A 
ATOM      3  C   UNL     1      44.361   6.271  11.633  0.00  0.00    +0.000 A 
ATOM      4  C   UNL     1      44.888   7.522  11.945  0.00  0.00    +0.000 A 
ATOM      5  C   UNL     1      46.033   7.624  12.737  0.00  0.00    +0.000 A 
ATOM      6  F   UNL     1      46.470   8.859  13.027  0.00  0.00    +0.000 F 
ATOM      7  C   UNL     1      46.707   6.495  13.234  0.00  0.00    +0.000 A 
ATOM      8  C   UNL     1      46.157   5.243  12.892  0.00  0.00    +0.000 A 
BRANCH   7   9
ATOM      9  C   UNL     1      47.921   6.599  14.078  0.00  0.00    +0.000 A 
ATOM     10  C   UNL     1      48.057   5.912  15.291  0.00  0.00    +0.000 A 
ATOM     11  N   UNL     1      49.145   5.957  16.107  0.00  0.00    +0.000 NA
ATOM     12  C   UNL     1      50.169   6.734  15.699  0.00  0.00    +0.000 A 
ATOM     13  C   UNL     1      50.143   7.464  14.528  0.00  0.00    +0.000 A 
ATOM     14  F   UNL     1      51.185   8.227  14.175  0.00  0.00    +0.000 F 
ATOM     15  C   UNL     1      49.018   7.398  13.713  0.00  0.00    +0.000 A 
ENDBRANCH   7   9
ENDBRANCH   1   2
BRANCH   1  16
ATOM     16  N   UNL     1      44.007   3.733  10.400  0.00  0.00    +0.000 N 
ATOM     17  H   UNL     1      43.539   4.596  10.144  0.00  0.00    +0.000 HD
BRANCH  16  21
ATOM     18  C   UNL     1      46.617   2.760   7.387  0.00  0.00    +0.000 A 
ATOM     19  C   UNL     1      46.112   1.780   8.225  0.00  0.00    +0.000 A 
ATOM     20  N   UNL     1      45.280   2.064   9.264  0.00  0.00    +0.000 NA
ATOM     21  C   UNL     1      44.959   3.363   9.447  0.00  0.00    +0.000 A 
ATOM     22  C   UNL     1      45.496   4.339   8.594  0.00  0.00    +0.000 A 
ATOM     23  N   UNL     1      46.335   4.080   7.558  0.00  0.00    +0.000 NA
BRANCH  18  25
ATOM     24  N   UNL     1      47.286   3.107   5.089  0.00  0.00    +0.000 N 
ATOM     25  C   UNL     1      47.476   2.380   6.233  0.00  0.00    +0.000 C 
ATOM     26  O   UNL     1      48.292   1.472   6.295  0.00  0.00    +0.000 OA
ATOM     27  H   UNL     1      47.819   2.884   4.261  0.00  0.00    +0.000 HD
ATOM     28  H   UNL     1      46.584   3.839   5.064  0.00  0.00    +0.000 HD
ENDBRANCH  18  25
ENDBRANCH  16  21
ENDBRANCH   1  16
TORSDOF 5
ENDMDL
MODEL 6
REMARK VINA RESULT:    -7.031      4.388      7.562
REMARK INTER + INTRA:          -9.803
REMARK INTER:                  -9.140
REMARK INTRA:                  -0.663
REMARK UNBOUND:                -0.716
REMARK  Name = 
REMARK  5 active torsions:
REMARK  status: ('A' for Active; 'I' for Inactive)
REMARK    1  A    between atoms: C_2  and  C_4
REMARK    2  A    between atoms: C_7  and  N_8
REMARK    3  A    between atoms: N_8  and  C_9
REMARK    4  A    between atoms: C_9  and  C_10
REMARK    5  A    between atoms: C_15  and  C_16
REMARK                            x       y       z     vdW  Elec       q    Type
REMARK                         _______ _______ _______ _____ _____    ______ ____
ROOT
ATOM      1  C   UNL     1      48.460   7.948  12.628  0.00  0.00    +0.000 C 
ENDROOT
BRANCH   1   2
ATOM      2  C   UNL     1      47.034   7.653  12.213  0.00  0.00    +0.000 A 
ATOM      3  C   UNL     1      45.983   8.502  12.567  0.00  0.00    +0.000 A 
ATOM      4  C   UNL     1      44.683   8.196  12.171  0.00  0.00    +0.000 A 
ATOM      5  C   UNL     1      44.431   7.049  11.417  0.00  0.00    +0.000 A 
ATOM      6  F   UNL     1      43.162   6.829  11.039  0.00  0.00    +0.000 F 
ATOM      7  C   UNL     1      45.450   6.157  11.041  0.00  0.00    +0.000 A 
ATOM      8  C   UNL     1      46.752   6.487  11.467  0.00  0.00    +0.000 A 
BRANCH   7   9
ATOM      9  C   UNL     1      45.187   4.939  10.238  0.00  0.00    +0.000 A 
ATOM     10  C   UNL     1      44.517   3.823  10.758  0.00  0.00    +0.000 A 
ATOM     11  N   UNL     1      44.237   2.681  10.073  0.00  0.00    +0.000 NA
ATOM     12  C   UNL     1      44.647   2.635   8.789  0.00  0.00    +0.000 A 
ATOM     13  C   UNL     1      45.323   3.669   8.175  0.00  0.00    +0.000 A 
ATOM     14  F   UNL     1      45.716   3.566   6.899  0.00  0.00    +0.000 F 
ATOM     15  C   UNL     1      45.595   4.826   8.898  0.00  0.00    +0.000 A 
ENDBRANCH   7   9
ENDBRANCH   1   2
BRANCH   1  16
ATOM     16  N   UNL     1      49.051   6.716  13.136  0.00  0.00    +0.000 N 
ATOM     17  H   UNL     1      50.065   6.739  13.110  0.00  0.00    +0.000 HD
BRANCH  16  21
ATOM     18  C   UNL     1      47.957   5.355  16.849  0.00  0.00    +0.000 A 
ATOM     19  C   UNL     1      47.550   4.687  15.706  0.00  0.00    +0.000 A 
ATOM     20  N   UNL     1      47.852   5.129  14.455  0.00  0.00    +0.000 NA
ATOM     21  C   UNL     1      48.579   6.263  14.372  0.00  0.00    +0.000 A 
ATOM     22  C   UNL     1      48.967   6.930  15.543  0.00  0.00    +0.000 A 
ATOM     23  N   UNL     1      48.669   6.513  16.801  0.00  0.00    +0.000 NA
BRANCH  18  25
ATOM     24  N   UNL     1      46.661   5.436  18.889  0.00  0.00    +0.000 N 
ATOM     25  C   UNL     1      47.645   4.790  18.190  0.00  0.00    +0.000 C 
ATOM     26  O   UNL     1      48.233   3.820  18.645  0.00  0.00    +0.000 OA
ATOM     27  H   UNL     1      46.417   5.119  19.817  0.00  0.00    +0.000 HD
ATOM     28  H   UNL     1      46.208   6.252  18.492  0.00  0.00    +0.000 HD
ENDBRANCH  18  25
ENDBRANCH  16  21
ENDBRANCH   1  16
TORSDOF 5
ENDMDL
MODEL 7
REMARK VINA RESULT:    -6.812      6.149      8.414
REMARK INTER + INTRA:          -9.519
REMARK INTER:                  -8.887
REMARK INTRA:                  -0.632
REMARK UNBOUND:                -0.716
REMARK  Name = 
REMARK  5 active torsions:
REMARK  status: ('A' for Active; 'I' for Inactive)
REMARK    1  A    between atoms: C_2  and  C_4
REMARK    2  A    between atoms: C_7  and  N_8
REMARK    3  A    between atoms: N_8  and  C_9
REMARK    4  A    between atoms: C_9  and  C_10
REMARK    5  A    between atoms: C_15  and  C_16
REMARK                            x       y       z     vdW  Elec       q    Type
REMARK                         _______ _______ _______ _____ _____    ______ ____
ROOT
ATOM      1  C   UNL     1      48.061   3.942  17.059  0.00  0.00    +0.000 C 
ENDROOT
BRANCH   1   2
ATOM      2  C   UNL     1      47.775   4.760  15.817  0.00  0.00    +0.000 A 
ATOM      3  C   UNL     1      48.546   5.877  15.488  0.00  0.00    +0.000 A 
ATOM      4  C   UNL     1      48.250   6.607  14.340  0.00  0.00    +0.000 A 
ATOM      5  C   UNL     1      47.191   6.222  13.517  0.00  0.00    +0.000 A 
ATOM      6  F   UNL     1      46.978   6.950  12.409  0.00  0.00    +0.000 F 
ATOM      7  C   UNL     1      46.378   5.113  13.806  0.00  0.00    +0.000 A 
ATOM      8  C   UNL     1      46.695   4.401  14.980  0.00  0.00    +0.000 A 
BRANCH   7   9
ATOM      9  C   UNL     1      45.254   4.699  12.933  0.00  0.00    +0.000 A 
ATOM     10  C   UNL     1      45.300   3.542  12.143  0.00  0.00    +0.000 A 
ATOM     11  N   UNL     1      44.303   3.102  11.328  0.00  0.00    +0.000 NA
ATOM     12  C   UNL     1      43.185   3.854  11.288  0.00  0.00    +0.000 A 
ATOM     13  C   UNL     1      43.031   5.018  12.014  0.00  0.00    +0.000 A 
ATOM     14  F   UNL     1      41.902   5.732  11.929  0.00  0.00    +0.000 F 
ATOM     15  C   UNL     1      44.066   5.443  12.840  0.00  0.00    +0.000 A 
ENDBRANCH   7   9
ENDBRANCH   1   2
BRANCH   1  16
ATOM     16  N   UNL     1      49.330   4.391  17.618  0.00  0.00    +0.000 N 
ATOM     17  H   UNL     1      49.220   4.783  18.549  0.00  0.00    +0.000 HD
BRANCH  16  21
ATOM     18  C   UNL     1      52.282   1.541  17.656  0.00  0.00    +0.000 A 
ATOM     19  C   UNL     1      52.548   2.836  18.068  0.00  0.00    +0.000 A 
ATOM     20  N   UNL     1      51.611   3.822  18.029  0.00  0.00    +0.000 NA
ATOM     21  C   UNL     1      50.389   3.481  17.566  0.00  0.00    +0.000 A 
ATOM     22  C   UNL     1      50.148   2.166  17.141  0.00  0.00    +0.000 A 
ATOM     23  N   UNL     1      51.070   1.169  17.161  0.00  0.00    +0.000 NA
BRANCH  18  25
ATOM     24  N   UNL     1      52.970  -0.628  18.475  0.00  0.00    +0.000 N 
ATOM     25  C   UNL     1      53.331   0.493  17.776  0.00  0.00    +0.000 C 
ATOM     26  O   UNL     1      54.447   0.624  17.293  0.00  0.00    +0.000 OA
ATOM     27  H   UNL     1      53.644  -1.368  18.616  0.00  0.00    +0.000 HD
ATOM     28  H   UNL     1      52.044  -0.695  18.882  0.00  0.00    +0.000 HD
ENDBRANCH  18  25
ENDBRANCH  16  21
ENDBRANCH   1  16
TORSDOF 5
ENDMDL
MODEL 8
REMARK VINA RESULT:    -6.734      5.194      8.347
REMARK INTER + INTRA:          -9.419
REMARK INTER:                  -8.639
REMARK INTRA:                  -0.779
REMARK UNBOUND:                -0.716
REMARK  Name = 
REMARK  5 active torsions:
REMARK  status: ('A' for Active; 'I' for Inactive)
REMARK    1  A    between atoms: C_2  and  C_4
REMARK    2  A    between atoms: C_7  and  N_8
REMARK    3  A    between atoms: N_8  and  C_9
REMARK    4  A    between atoms: C_9  and  C_10
REMARK    5  A    between atoms: C_15  and  C_16
REMARK                            x       y       z     vdW  Elec       q    Type
REMARK                         _______ _______ _______ _____ _____    ______ ____
ROOT
ATOM      1  C   UNL     1      49.177   7.296  13.910  0.00  0.00    +0.000 C 
ENDROOT
BRANCH   1   2
ATOM      2  C   UNL     1      47.828   7.453  13.241  0.00  0.00    +0.000 A 
ATOM      3  C   UNL     1      47.321   8.711  12.911  0.00  0.00    +0.000 A 
ATOM      4  C   UNL     1      46.074   8.816  12.300  0.00  0.00    +0.000 A 
ATOM      5  C   UNL     1      45.334   7.668  12.013  0.00  0.00    +0.000 A 
ATOM      6  F   UNL     1      44.154   7.837  11.395  0.00  0.00    +0.000 F 
ATOM      7  C   UNL     1      45.792   6.379  12.333  0.00  0.00    +0.000 A 
ATOM      8  C   UNL     1      47.052   6.306  12.961  0.00  0.00    +0.000 A 
BRANCH   7   9
ATOM      9  C   UNL     1      45.010   5.157  12.027  0.00  0.00    +0.000 A 
ATOM     10  C   UNL     1      44.363   4.409  13.020  0.00  0.00    +0.000 A 
ATOM     11  N   UNL     1      43.624   3.286  12.806  0.00  0.00    +0.000 NA
ATOM     12  C   UNL     1      43.519   2.871  11.527  0.00  0.00    +0.000 A 
ATOM     13  C   UNL     1      44.122   3.522  10.470  0.00  0.00    +0.000 A 
ATOM     14  F   UNL     1      43.992   3.061   9.220  0.00  0.00    +0.000 F 
ATOM     15  C   UNL     1      44.869   4.668  10.717  0.00  0.00    +0.000 A 
ENDBRANCH   7   9
ENDBRANCH   1   2
BRANCH   1  16
ATOM     16  N   UNL     1      49.090   7.861  15.250  0.00  0.00    +0.000 N 
ATOM     17  H   UNL     1      48.434   8.634  15.298  0.00  0.00    +0.000 HD
BRANCH  16  21
ATOM     18  C   UNL     1      48.739   5.331  18.462  0.00  0.00    +0.000 A 
ATOM     19  C   UNL     1      48.968   4.829  17.191  0.00  0.00    +0.000 A 
ATOM     20  N   UNL     1      49.046   5.628  16.093  0.00  0.00    +0.000 NA
ATOM     21  C   UNL     1      48.891   6.954  16.295  0.00  0.00    +0.000 A 
ATOM     22  C   UNL     1      48.645   7.437  17.589  0.00  0.00    +0.000 A 
ATOM     23  N   UNL     1      48.554   6.658  18.698  0.00  0.00    +0.000 NA
BRANCH  18  25
ATOM     24  N   UNL     1      48.360   3.119  19.363  0.00  0.00    +0.000 N 
ATOM     25  C   UNL     1      48.722   4.412  19.631  0.00  0.00    +0.000 C 
ATOM     26  O   UNL     1      49.003   4.784  20.762  0.00  0.00    +0.000 OA
ATOM     27  H   UNL     1      48.304   2.448  20.117  0.00  0.00    +0.000 HD
ATOM     28  H   UNL     1      48.111   2.848  18.418  0.00  0.00    +0.000 HD
ENDBRANCH  18  25
ENDBRANCH  16  21
ENDBRANCH   1  16
TORSDOF 5
ENDMDL
MODEL 9
REMARK VINA RESULT:    -6.630      4.929      8.133
REMARK INTER + INTRA:          -9.284
REMARK INTER:                  -8.729
REMARK INTRA:                  -0.555
REMARK UNBOUND:                -0.716
REMARK  Name = 
REMARK  5 active torsions:
REMARK  status: ('A' for Active; 'I' for Inactive)
REMARK    1  A    between atoms: C_2  and  C_4
REMARK    2  A    between atoms: C_7  and  N_8
REMARK    3  A    between atoms: N_8  and  C_9
REMARK    4  A    between atoms: C_9  and  C_10
REMARK    5  A    between atoms: C_15  and  C_16
REMARK                            x       y       z     vdW  Elec       q    Type
REMARK                         _______ _______ _______ _____ _____    ______ ____
ROOT
ATOM      1  C   UNL     1      45.402   4.005  13.384  0.00  0.00    +0.000 C 
ENDROOT
BRANCH   1   2
ATOM      2  C   UNL     1      44.934   4.114  11.949  0.00  0.00    +0.000 A 
ATOM      3  C   UNL     1      43.827   4.892  11.601  0.00  0.00    +0.000 A 
ATOM      4  C   UNL     1      43.424   4.964  10.270  0.00  0.00    +0.000 A 
ATOM      5  C   UNL     1      44.125   4.268   9.285  0.00  0.00    +0.000 A 
ATOM      6  F   UNL     1      43.704   4.406   8.018  0.00  0.00    +0.000 F 
ATOM      7  C   UNL     1      45.238   3.463   9.581  0.00  0.00    +0.000 A 
ATOM      8  C   UNL     1      45.616   3.400  10.938  0.00  0.00    +0.000 A 
BRANCH   7   9
ATOM      9  C   UNL     1      45.988   2.724   8.537  0.00  0.00    +0.000 A 
ATOM     10  C   UNL     1      46.727   3.373   7.539  0.00  0.00    +0.000 A 
ATOM     11  N   UNL     1      47.443   2.755   6.559  0.00  0.00    +0.000 NA
ATOM     12  C   UNL     1      47.426   1.407   6.563  0.00  0.00    +0.000 A 
ATOM     13  C   UNL     1      46.725   0.663   7.490  0.00  0.00    +0.000 A 
ATOM     14  F   UNL     1      46.735  -0.675   7.442  0.00  0.00    +0.000 F 
ATOM     15  C   UNL     1      46.004   1.320   8.482  0.00  0.00    +0.000 A 
ENDBRANCH   7   9
ENDBRANCH   1   2
BRANCH   1  16
ATOM     16  N   UNL     1      46.537   4.902  13.563  0.00  0.00    +0.000 N 
ATOM     17  H   UNL     1      46.323   5.852  13.274  0.00  0.00    +0.000 HD
BRANCH  16  21
ATOM     18  C   UNL     1      48.628   4.779  17.091  0.00  0.00    +0.000 A 
ATOM     19  C   UNL     1      47.605   3.878  16.847  0.00  0.00    +0.000 A 
ATOM     20  N   UNL     1      46.857   3.913  15.711  0.00  0.00    +0.000 NA
ATOM     21  C   UNL     1      47.159   4.876  14.814  0.00  0.00    +0.000 A 
ATOM     22  C   UNL     1      48.190   5.785  15.090  0.00  0.00    +0.000 A 
ATOM     23  N   UNL     1      48.944   5.776  16.221  0.00  0.00    +0.000 NA
BRANCH  18  25
ATOM     24  N   UNL     1      49.202   3.546  19.091  0.00  0.00    +0.000 N 
ATOM     25  C   UNL     1      49.449   4.654  18.326  0.00  0.00    +0.000 C 
ATOM     26  O   UNL     1      50.283   5.489  18.646  0.00  0.00    +0.000 OA
ATOM     27  H   UNL     1      49.707   3.413  19.956  0.00  0.00    +0.000 HD
ATOM     28  H   UNL     1      48.487   2.884  18.809  0.00  0.00    +0.000 HD
ENDBRANCH  18  25
ENDBRANCH  16  21
ENDBRANCH   1  16
TORSDOF 5
ENDMDL
