MODEL 1
REMARK VINA RESULT:    -7.394      0.000      0.000
REMARK INTER + INTRA:         -11.876
REMARK INTER:                 -10.419
REMARK INTRA:                  -1.457
REMARK UNBOUND:                -1.457
REMARK  Name = 
REMARK  8 active torsions:
REMARK  status: ('A' for Active; 'I' for Inactive)
REMARK    1  A    between atoms: C_1  and  C_2
REMARK    2  A    between atoms: C_2  and  N_3
REMARK    3  A    between atoms: N_3  and  C_4
REMARK    4  A    between atoms: C_4  and  C_5
REMARK    5  A    between atoms: C_8  and  C_9
REMARK    6  A    between atoms: C_9  and  N_10
REMARK    7  A    between atoms: C_11  and  C_13
REMARK    8  A    between atoms: C_20  and  C_22
REMARK                            x       y       z     vdW  Elec       q    Type
REMARK                         _______ _______ _______ _____ _____    ______ ____
ROOT
ATOM      1  C   UNL     1      47.330   7.716  13.738  0.00  0.00    +0.000 C 
ENDROOT
BRANCH   1   2
ATOM      2  C   UNL     1      46.443   6.556  13.382  0.00  0.00    +0.000 A 
ATOM      3  C   UNL     1      46.720   5.259  13.814  0.00  0.00    +0.000 A 
ATOM      4  C   UNL     1      46.012   4.186  13.272  0.00  0.00    +0.000 A 
ATOM      5  C   UNL     1      45.022   4.436  12.323  0.00  0.00    +0.000 A 
ATOM      6  N   UNL     1      44.687   5.694  11.942  0.00  0.00    +0.000 NA
ATOM      7  C   UNL     1      45.395   6.714  12.478  0.00  0.00    +0.000 A 
BRANCH   5   8
ATOM      8  C   UNL     1      44.329   3.292  11.618  0.00  0.00    +0.000 C 
BRANCH   8   9
ATOM      9  N   UNL     1      45.117   2.747  10.532  0.00  0.00    +0.000 N 
ATOM     10  C   UNL     1      44.996   3.180   9.236  0.00  0.00    +0.000 C 
ATOM     11  O   UNL     1      44.222   4.065   8.885  0.00  0.00    +0.000 OA
ATOM     12  H   UNL     1      45.707   1.938  10.698  0.00  0.00    +0.000 HD
BRANCH  10  13
ATOM     13  C   UNL     1      45.899   2.495   8.301  0.00  0.00    +0.000 A 
ATOM     14  C   UNL     1      46.644   3.150   7.334  0.00  0.00    +0.000 A 
ATOM     15  S   UNL     1      47.598   2.032   6.454  0.00  0.00    +0.000 S 
ATOM     16  C   UNL     1      46.958   0.762   7.411  0.00  0.00    +0.000 A 
ATOM     17  N   UNL     1      46.087   1.107   8.335  0.00  0.00    +0.000 NA
ENDBRANCH  10  13
ENDBRANCH   8   9
ENDBRANCH   5   8
ENDBRANCH   1   2
BRANCH   1  18
ATOM     18  N   UNL     1      48.782   7.586  13.624  0.00  0.00    +0.000 N 
ATOM     19  C   UNL     1      49.662   7.832  14.698  0.00  0.00    +0.000 C 
ATOM     20  O   UNL     1      50.878   7.709  14.568  0.00  0.00    +0.000 OA
BRANCH  19  21
ATOM     21  C   UNL     1      49.124   8.198  16.016  0.00  0.00    +0.000 A 
ATOM     22  C   UNL     1      48.835   9.492  16.419  0.00  0.00    +0.000 A 
ATOM     23  S   UNL     1      48.100   9.576  17.960  0.00  0.00    +0.000 S 
ATOM     24  C   UNL     1      48.035   7.878  18.080  0.00  0.00    +0.000 A 
ATOM     25  N   UNL     1      47.419   7.269  19.127  0.00  0.00    +0.000 NA
ATOM     26  C   UNL     1      47.389   5.982  19.047  0.00  0.00    +0.000 A 
ATOM     27  N   UNL     1      47.956   5.246  18.034  0.00  0.00    +0.000 N 
ATOM     28  C   UNL     1      48.699   5.814  17.021  0.00  0.00    +0.000 A 
ATOM     29  O   UNL     1      49.383   5.127  16.271  0.00  0.00    +0.000 OA
ATOM     30  C   UNL     1      48.652   7.264  17.009  0.00  0.00    +0.000 A 
ATOM     31  H   UNL     1      47.957   4.238  18.065  0.00  0.00    +0.000 HD
ENDBRANCH  19  21
BRANCH  18  33
ATOM     32  C   UNL     1      49.647   8.204  11.387  0.00  0.00    +0.000 C 
ATOM     33  C   UNL     1      49.387   7.087  12.387  0.00  0.00    +0.000 C 
ENDBRANCH  18  33
ENDBRANCH   1  18
TORSDOF 7
ENDMDL
MODEL 2
REMARK VINA RESULT:    -6.926      2.406      3.312
REMARK INTER + INTRA:         -11.217
REMARK INTER:                  -9.887
REMARK INTRA:                  -1.329
REMARK UNBOUND:                -1.457
REMARK  Name = 
REMARK  8 active torsions:
REMARK  status: ('A' for Active; 'I' for Inactive)
REMARK    1  A    between atoms: C_1  and  C_2
REMARK    2  A    between atoms: C_2  and  N_3
REMARK    3  A    between atoms: N_3  and  C_4
REMARK    4  A    between atoms: C_4  and  C_5
REMARK    5  A    between atoms: C_8  and  C_9
REMARK    6  A    between atoms: C_9  and  N_10
REMARK    7  A    between atoms: C_11  and  C_13
REMARK    8  A    between atoms: C_20  and  C_22
REMARK                            x       y       z     vdW  Elec       q    Type
REMARK                         _______ _______ _______ _____ _____    ______ ____
ROOT
ATOM      1  C   UNL     1      48.904   6.613  14.931  0.00  0.00    +0.000 C 
ENDROOT
BRANCH   1   2
ATOM      2  C   UNL     1      47.698   6.413  14.057  0.00  0.00    +0.000 A 
ATOM      3  C   UNL     1      47.075   5.171  13.937  0.00  0.00    +0.000 A 
ATOM      4  C   UNL     1      46.115   4.975  12.944  0.00  0.00    +0.000 A 
ATOM      5  C   UNL     1      45.780   6.035  12.104  0.00  0.00    +0.000 A 
ATOM      6  N   UNL     1      46.322   7.271  12.248  0.00  0.00    +0.000 NA
ATOM      7  C   UNL     1      47.255   7.430  13.214  0.00  0.00    +0.000 A 
BRANCH   5   8
ATOM      8  C   UNL     1      44.845   5.823  10.935  0.00  0.00    +0.000 C 
BRANCH   8   9
ATOM      9  N   UNL     1      45.439   5.023   9.884  0.00  0.00    +0.000 N 
ATOM     10  C   UNL     1      44.879   3.854   9.435  0.00  0.00    +0.000 C 
ATOM     11  O   UNL     1      43.832   3.389   9.874  0.00  0.00    +0.000 OA
ATOM     12  H   UNL     1      46.359   5.263   9.531  0.00  0.00    +0.000 HD
BRANCH  10  13
ATOM     13  C   UNL     1      45.645   3.212   8.359  0.00  0.00    +0.000 A 
ATOM     14  C   UNL     1      46.027   1.880   8.376  0.00  0.00    +0.000 A 
ATOM     15  S   UNL     1      46.877   1.481   6.944  0.00  0.00    +0.000 S 
ATOM     16  C   UNL     1      46.683   3.095   6.402  0.00  0.00    +0.000 A 
ATOM     17  N   UNL     1      46.034   3.910   7.207  0.00  0.00    +0.000 NA
ENDBRANCH  10  13
ENDBRANCH   8   9
ENDBRANCH   5   8
ENDBRANCH   1   2
BRANCH   1  18
ATOM     18  N   UNL     1      48.796   7.407  16.154  0.00  0.00    +0.000 N 
ATOM     19  C   UNL     1      48.561   6.837  17.423  0.00  0.00    +0.000 C 
ATOM     20  O   UNL     1      48.481   7.534  18.432  0.00  0.00    +0.000 OA
BRANCH  19  21
ATOM     21  C   UNL     1      48.456   5.377  17.561  0.00  0.00    +0.000 A 
ATOM     22  C   UNL     1      47.272   4.661  17.493  0.00  0.00    +0.000 A 
ATOM     23  S   UNL     1      47.495   2.968  17.561  0.00  0.00    +0.000 S 
ATOM     24  C   UNL     1      49.190   3.139  17.558  0.00  0.00    +0.000 A 
ATOM     25  N   UNL     1      50.008   2.054  17.500  0.00  0.00    +0.000 NA
ATOM     26  C   UNL     1      51.263   2.342  17.436  0.00  0.00    +0.000 A 
ATOM     27  N   UNL     1      51.779   3.616  17.464  0.00  0.00    +0.000 N 
ATOM     28  C   UNL     1      50.997   4.736  17.651  0.00  0.00    +0.000 A 
ATOM     29  O   UNL     1      51.496   5.826  17.907  0.00  0.00    +0.000 OA
ATOM     30  C   UNL     1      49.572   4.464  17.605  0.00  0.00    +0.000 A 
ATOM     31  H   UNL     1      52.776   3.770  17.479  0.00  0.00    +0.000 HD
ENDBRANCH  19  21
BRANCH  18  33
ATOM     32  C   UNL     1      50.110   9.233  15.118  0.00  0.00    +0.000 C 
ATOM     33  C   UNL     1      49.032   8.852  16.124  0.00  0.00    +0.000 C 
ENDBRANCH  18  33
ENDBRANCH   1  18
TORSDOF 7
ENDMDL
MODEL 3
REMARK VINA RESULT:    -6.666      3.085      4.436
REMARK INTER + INTRA:         -10.850
REMARK INTER:                  -9.757
REMARK INTRA:                  -1.094
REMARK UNBOUND:                -1.457
REMARK  Name = 
REMARK  8 active torsions:
REMARK  status: ('A' for Active; 'I' for Inactive)
REMARK    1  A    between atoms: C_1  and  C_2
REMARK    2  A    between atoms: C_2  and  N_3
REMARK    3  A    between atoms: N_3  and  C_4
REMARK    4  A    between atoms: C_4  and  C_5
REMARK    5  A    between atoms: C_8  and  C_9
REMARK    6  A    between atoms: C_9  and  N_10
REMARK    7  A    between atoms: C_11  and  C_13
REMARK    8  A    between atoms: C_20  and  C_22
REMARK                            x       y       z     vdW  Elec       q    Type
REMARK                         _______ _______ _______ _____ _____    ______ ____
ROOT
ATOM      1  C   UNL     1      49.128   6.207  16.594  0.00  0.00    +0.000 C 
ENDROOT
BRANCH   1   2
ATOM      2  C   UNL     1      48.233   5.660  15.518  0.00  0.00    +0.000 A 
ATOM      3  C   UNL     1      47.995   6.359  14.335  0.00  0.00    +0.000 A 
ATOM      4  C   UNL     1      46.983   5.932  13.474  0.00  0.00    +0.000 A 
ATOM      5  C   UNL     1      46.243   4.798  13.805  0.00  0.00    +0.000 A 
ATOM      6  N   UNL     1      46.505   4.062  14.915  0.00  0.00    +0.000 NA
ATOM      7  C   UNL     1      47.486   4.504  15.734  0.00  0.00    +0.000 A 
BRANCH   5   8
ATOM      8  C   UNL     1      45.054   4.385  12.967  0.00  0.00    +0.000 C 
BRANCH   8   9
ATOM      9  N   UNL     1      45.431   3.964  11.634  0.00  0.00    +0.000 N 
ATOM     10  C   UNL     1      44.523   3.501  10.717  0.00  0.00    +0.000 C 
ATOM     11  O   UNL     1      43.320   3.408  10.939  0.00  0.00    +0.000 OA
ATOM     12  H   UNL     1      46.414   3.900  11.388  0.00  0.00    +0.000 HD
BRANCH  10  13
ATOM     13  C   UNL     1      45.123   3.139   9.426  0.00  0.00    +0.000 A 
ATOM     14  C   UNL     1      45.310   4.036   8.387  0.00  0.00    +0.000 A 
ATOM     15  S   UNL     1      46.063   3.263   7.056  0.00  0.00    +0.000 S 
ATOM     16  C   UNL     1      46.087   1.798   7.945  0.00  0.00    +0.000 A 
ATOM     17  N   UNL     1      45.576   1.840   9.157  0.00  0.00    +0.000 NA
ENDBRANCH  10  13
ENDBRANCH   8   9
ENDBRANCH   5   8
ENDBRANCH   1   2
BRANCH   1  18
ATOM     18  N   UNL     1      48.777   6.021  18.001  0.00  0.00    +0.000 N 
ATOM     19  C   UNL     1      49.614   5.356  18.921  0.00  0.00    +0.000 C 
ATOM     20  O   UNL     1      49.289   5.222  20.099  0.00  0.00    +0.000 OA
BRANCH  19  21
ATOM     21  C   UNL     1      50.924   4.850  18.486  0.00  0.00    +0.000 A 
ATOM     22  C   UNL     1      52.119   5.537  18.621  0.00  0.00    +0.000 A 
ATOM     23  S   UNL     1      53.484   4.629  18.138  0.00  0.00    +0.000 S 
ATOM     24  C   UNL     1      52.529   3.248  17.851  0.00  0.00    +0.000 A 
ATOM     25  N   UNL     1      53.094   2.060  17.509  0.00  0.00    +0.000 NA
ATOM     26  C   UNL     1      52.252   1.090  17.391  0.00  0.00    +0.000 A 
ATOM     27  N   UNL     1      50.891   1.208  17.546  0.00  0.00    +0.000 N 
ATOM     28  C   UNL     1      50.266   2.417  17.767  0.00  0.00    +0.000 A 
ATOM     29  O   UNL     1      49.049   2.532  17.667  0.00  0.00    +0.000 OA
ATOM     30  C   UNL     1      51.185   3.509  18.026  0.00  0.00    +0.000 A 
ATOM     31  H   UNL     1      50.281   0.424  17.373  0.00  0.00    +0.000 HD
ENDBRANCH  19  21
BRANCH  18  33
ATOM     32  C   UNL     1      47.710   8.118  18.774  0.00  0.00    +0.000 C 
ATOM     33  C   UNL     1      47.557   6.621  18.546  0.00  0.00    +0.000 C 
ENDBRANCH  18  33
ENDBRANCH   1  18
TORSDOF 7
ENDMDL
MODEL 4
REMARK VINA RESULT:    -6.653      1.750      2.328
REMARK INTER + INTRA:         -10.833
REMARK INTER:                  -9.500
REMARK INTRA:                  -1.333
REMARK UNBOUND:                -1.457
REMARK  Name = 
REMARK  8 active torsions:
REMARK  status: ('A' for Active; 'I' for Inactive)
REMARK    1  A    between atoms: C_1  and  C_2
REMARK    2  A    between atoms: C_2  and  N_3
REMARK    3  A    between atoms: N_3  and  C_4
REMARK    4  A    between atoms: C_4  and  C_5
REMARK    5  A    between atoms: C_8  and  C_9
REMARK    6  A    between atoms: C_9  and  N_10
REMARK    7  A    between atoms: C_11  and  C_13
REMARK    8  A    between atoms: C_20  and  C_22
REMARK                            x       y       z     vdW  Elec       q    Type
REMARK                         _______ _______ _______ _____ _____    ______ ____
ROOT
ATOM      1  C   UNL     1      47.811   8.079  14.442  0.00  0.00    +0.000 C 
ENDROOT
BRANCH   1   2
ATOM      2  C   UNL     1      47.051   7.481  13.293  0.00  0.00    +0.000 A 
ATOM      3  C   UNL     1      46.000   8.159  12.675  0.00  0.00    +0.000 A 
ATOM      4  C   UNL     1      45.176   7.479  11.777  0.00  0.00    +0.000 A 
ATOM      5  C   UNL     1      45.435   6.138  11.498  0.00  0.00    +0.000 A 
ATOM      6  N   UNL     1      46.494   5.480  12.033  0.00  0.00    +0.000 NA
ATOM      7  C   UNL     1      47.271   6.161  12.906  0.00  0.00    +0.000 A 
BRANCH   5   8
ATOM      8  C   UNL     1      44.486   5.336  10.637  0.00  0.00    +0.000 C 
BRANCH   8   9
ATOM      9  N   UNL     1      45.175   4.524   9.656  0.00  0.00    +0.000 N 
ATOM     10  C   UNL     1      44.943   3.180   9.509  0.00  0.00    +0.000 C 
ATOM     11  O   UNL     1      44.133   2.552  10.184  0.00  0.00    +0.000 OA
ATOM     12  H   UNL     1      45.940   4.924   9.123  0.00  0.00    +0.000 HD
BRANCH  10  13
ATOM     13  C   UNL     1      45.746   2.558   8.448  0.00  0.00    +0.000 A 
ATOM     14  C   UNL     1      46.268   3.255   7.370  0.00  0.00    +0.000 A 
ATOM     15  S   UNL     1      47.170   2.207   6.359  0.00  0.00    +0.000 S 
ATOM     16  C   UNL     1      46.805   0.906   7.413  0.00  0.00    +0.000 A 
ATOM     17  N   UNL     1      46.062   1.192   8.461  0.00  0.00    +0.000 NA
ENDBRANCH  10  13
ENDBRANCH   8   9
ENDBRANCH   5   8
ENDBRANCH   1   2
BRANCH   1  18
ATOM     18  N   UNL     1      49.232   7.779  14.614  0.00  0.00    +0.000 N 
ATOM     19  C   UNL     1      49.720   6.921  15.621  0.00  0.00    +0.000 C 
ATOM     20  O   UNL     1      50.922   6.686  15.733  0.00  0.00    +0.000 OA
BRANCH  19  21
ATOM     21  C   UNL     1      48.780   6.251  16.531  0.00  0.00    +0.000 A 
ATOM     22  C   UNL     1      48.247   4.988  16.326  0.00  0.00    +0.000 A 
ATOM     23  S   UNL     1      47.287   4.436  17.628  0.00  0.00    +0.000 S 
ATOM     24  C   UNL     1      47.658   5.816  18.555  0.00  0.00    +0.000 A 
ATOM     25  N   UNL     1      47.235   5.934  19.842  0.00  0.00    +0.000 NA
ATOM     26  C   UNL     1      47.649   7.000  20.438  0.00  0.00    +0.000 A 
ATOM     27  N   UNL     1      48.416   7.979  19.852  0.00  0.00    +0.000 N 
ATOM     28  C   UNL     1      48.760   7.962  18.517  0.00  0.00    +0.000 A 
ATOM     29  O   UNL     1      49.236   8.950  17.970  0.00  0.00    +0.000 OA
ATOM     30  C   UNL     1      48.417   6.723  17.845  0.00  0.00    +0.000 A 
ATOM     31  H   UNL     1      48.650   8.822  20.354  0.00  0.00    +0.000 HD
ENDBRANCH  19  21
BRANCH  18  33
ATOM     32  C   UNL     1      50.565   9.749  13.923  0.00  0.00    +0.000 C 
ATOM     33  C   UNL     1      50.219   8.290  13.660  0.00  0.00    +0.000 C 
ENDBRANCH  18  33
ENDBRANCH   1  18
TORSDOF 7
ENDMDL
MODEL 5
REMARK VINA RESULT:    -6.566      2.426      3.720
REMARK INTER + INTRA:         -10.710
REMARK INTER:                  -9.415
REMARK INTRA:                  -1.295
REMARK UNBOUND:                -1.457
REMARK  Name = 
REMARK  8 active torsions:
REMARK  status: ('A' for Active; 'I' for Inactive)
REMARK    1  A    between atoms: C_1  and  C_2
REMARK    2  A    between atoms: C_2  and  N_3
REMARK    3  A    between atoms: N_3  and  C_4
REMARK    4  A    between atoms: C_4  and  C_5
REMARK    5  A    between atoms: C_8  and  C_9
REMARK    6  A    between atoms: C_9  and  N_10
REMARK    7  A    between atoms: C_11  and  C_13
REMARK    8  A    between atoms: C_20  and  C_22
REMARK                            x       y       z     vdW  Elec       q    Type
REMARK                         _______ _______ _______ _____ _____    ______ ____
ROOT
ATOM      1  C   UNL     1      49.269   7.977  15.637  0.00  0.00    +0.000 C 
ENDROOT
BRANCH   1   2
ATOM      2  C   UNL     1      48.319   7.697  14.507  0.00  0.00    +0.000 A 
ATOM      3  C   UNL     1      47.468   8.680  14.001  0.00  0.00    +0.000 A 
ATOM      4  C   UNL     1      46.447   8.321  13.121  0.00  0.00    +0.000 A 
ATOM      5  C   UNL     1      46.312   6.985  12.746  0.00  0.00    +0.000 A 
ATOM      6  N   UNL     1      47.173   6.025  13.169  0.00  0.00    +0.000 NA
ATOM      7  C   UNL     1      48.148   6.400  14.027  0.00  0.00    +0.000 A 
BRANCH   5   8
ATOM      8  C   UNL     1      45.139   6.539  11.902  0.00  0.00    +0.000 C 
BRANCH   8   9
ATOM      9  N   UNL     1      45.516   5.575  10.889  0.00  0.00    +0.000 N 
ATOM     10  C   UNL     1      44.599   4.806  10.218  0.00  0.00    +0.000 C 
ATOM     11  O   UNL     1      43.389   4.870  10.410  0.00  0.00    +0.000 OA
ATOM     12  H   UNL     1      46.497   5.369  10.734  0.00  0.00    +0.000 HD
BRANCH  10  13
ATOM     13  C   UNL     1      45.202   3.904   9.229  0.00  0.00    +0.000 A 
ATOM     14  C   UNL     1      45.275   2.529   9.386  0.00  0.00    +0.000 A 
ATOM     15  S   UNL     1      46.014   1.807   8.020  0.00  0.00    +0.000 S 
ATOM     16  C   UNL     1      46.188   3.361   7.318  0.00  0.00    +0.000 A 
ATOM     17  N   UNL     1      45.739   4.377   8.024  0.00  0.00    +0.000 NA
ENDBRANCH  10  13
ENDBRANCH   8   9
ENDBRANCH   5   8
ENDBRANCH   1   2
BRANCH   1  18
ATOM     18  N   UNL     1      48.762   8.089  17.005  0.00  0.00    +0.000 N 
ATOM     19  C   UNL     1      49.142   7.209  18.040  0.00  0.00    +0.000 C 
ATOM     20  O   UNL     1      48.701   7.336  19.180  0.00  0.00    +0.000 OA
BRANCH  19  21
ATOM     21  C   UNL     1      50.120   6.144  17.773  0.00  0.00    +0.000 A 
ATOM     22  C   UNL     1      51.483   6.252  17.992  0.00  0.00    +0.000 A 
ATOM     23  S   UNL     1      52.335   4.798  17.707  0.00  0.00    +0.000 S 
ATOM     24  C   UNL     1      50.890   3.950  17.402  0.00  0.00    +0.000 A 
ATOM     25  N   UNL     1      50.892   2.607  17.189  0.00  0.00    +0.000 NA
ATOM     26  C   UNL     1      49.719   2.093  17.041  0.00  0.00    +0.000 A 
ATOM     27  N   UNL     1      48.544   2.807  17.046  0.00  0.00    +0.000 N 
ATOM     28  C   UNL     1      48.504   4.182  17.131  0.00  0.00    +0.000 A 
ATOM     29  O   UNL     1      47.473   4.804  16.899  0.00  0.00    +0.000 OA
ATOM     30  C   UNL     1      49.791   4.785  17.421  0.00  0.00    +0.000 A 
ATOM     31  H   UNL     1      47.663   2.353  16.856  0.00  0.00    +0.000 HD
ENDBRANCH  19  21
BRANCH  18  33
ATOM     32  C   UNL     1      48.615  10.548  17.271  0.00  0.00    +0.000 C 
ATOM     33  C   UNL     1      47.899   9.209  17.386  0.00  0.00    +0.000 C 
ENDBRANCH  18  33
ENDBRANCH   1  18
TORSDOF 7
ENDMDL
MODEL 6
REMARK VINA RESULT:    -6.562      1.735      2.348
REMARK INTER + INTRA:         -10.704
REMARK INTER:                  -9.274
REMARK INTRA:                  -1.430
REMARK UNBOUND:                -1.457
REMARK  Name = 
REMARK  8 active torsions:
REMARK  status: ('A' for Active; 'I' for Inactive)
REMARK    1  A    between atoms: C_1  and  C_2
REMARK    2  A    between atoms: C_2  and  N_3
REMARK    3  A    between atoms: N_3  and  C_4
REMARK    4  A    between atoms: C_4  and  C_5
REMARK    5  A    between atoms: C_8  and  C_9
REMARK    6  A    between atoms: C_9  and  N_10
REMARK    7  A    between atoms: C_11  and  C_13
REMARK    8  A    between atoms: C_20  and  C_22
REMARK                            x       y       z     vdW  Elec       q    Type
REMARK                         _______ _______ _______ _____ _____    ______ ____
ROOT
ATOM      1  C   UNL     1      47.083   8.652  13.567  0.00  0.00    +0.000 C 
ENDROOT
BRANCH   1   2
ATOM      2  C   UNL     1      46.142   7.670  12.928  0.00  0.00    +0.000 A 
ATOM      3  C   UNL     1      46.358   6.294  12.998  0.00  0.00    +0.000 A 
ATOM      4  C   UNL     1      45.599   5.437  12.200  0.00  0.00    +0.000 A 
ATOM      5  C   UNL     1      44.622   5.974  11.364  0.00  0.00    +0.000 A 
ATOM      6  N   UNL     1      44.347   7.303  11.333  0.00  0.00    +0.000 NA
ATOM      7  C   UNL     1      45.103   8.110  12.112  0.00  0.00    +0.000 A 
BRANCH   5   8
ATOM      8  C   UNL     1      43.875   5.092  10.389  0.00  0.00    +0.000 C 
BRANCH   8   9
ATOM      9  N   UNL     1      44.759   4.381   9.490  0.00  0.00    +0.000 N 
ATOM     10  C   UNL     1      44.734   3.017   9.346  0.00  0.00    +0.000 C 
ATOM     11  O   UNL     1      43.962   2.284   9.957  0.00  0.00    +0.000 OA
ATOM     12  H   UNL     1      45.506   4.883   9.021  0.00  0.00    +0.000 HD
BRANCH  10  13
ATOM     13  C   UNL     1      45.711   2.510   8.374  0.00  0.00    +0.000 A 
ATOM     14  C   UNL     1      46.345   3.307   7.435  0.00  0.00    +0.000 A 
ATOM     15  S   UNL     1      47.435   2.377   6.497  0.00  0.00    +0.000 S 
ATOM     16  C   UNL     1      46.992   0.986   7.395  0.00  0.00    +0.000 A 
ATOM     17  N   UNL     1      46.093   1.162   8.340  0.00  0.00    +0.000 NA
ENDBRANCH  10  13
ENDBRANCH   8   9
ENDBRANCH   5   8
ENDBRANCH   1   2
BRANCH   1  18
ATOM     18  N   UNL     1      48.496   8.662  13.189  0.00  0.00    +0.000 N 
ATOM     19  C   UNL     1      49.530   8.287  14.071  0.00  0.00    +0.000 C 
ATOM     20  O   UNL     1      50.708   8.302  13.718  0.00  0.00    +0.000 OA
BRANCH  19  21
ATOM     21  C   UNL     1      49.204   7.823  15.428  0.00  0.00    +0.000 A 
ATOM     22  C   UNL     1      49.125   6.493  15.809  0.00  0.00    +0.000 A 
ATOM     23  S   UNL     1      48.854   6.281  17.483  0.00  0.00    +0.000 S 
ATOM     24  C   UNL     1      48.957   7.958  17.766  0.00  0.00    +0.000 A 
ATOM     25  N   UNL     1      48.915   8.464  19.027  0.00  0.00    +0.000 NA
ATOM     26  C   UNL     1      49.073   9.742  19.089  0.00  0.00    +0.000 A 
ATOM     27  N   UNL     1      49.230  10.567  18.001  0.00  0.00    +0.000 N 
ATOM     28  C   UNL     1      49.151  10.114  16.701  0.00  0.00    +0.000 A 
ATOM     29  O   UNL     1      49.059  10.894  15.760  0.00  0.00    +0.000 OA
ATOM     30  C   UNL     1      49.096   8.668  16.591  0.00  0.00    +0.000 A 
ATOM     31  H   UNL     1      49.281  11.568  18.114  0.00  0.00    +0.000 HD
ENDBRANCH  19  21
BRANCH  18  33
ATOM     32  C   UNL     1      48.540  10.401  11.426  0.00  0.00    +0.000 C 
ATOM     33  C   UNL     1      48.893   8.971  11.814  0.00  0.00    +0.000 C 
ENDBRANCH  18  33
ENDBRANCH   1  18
TORSDOF 7
ENDMDL
MODEL 7
REMARK VINA RESULT:    -6.448      3.567      5.672
REMARK INTER + INTRA:         -10.543
REMARK INTER:                  -8.534
REMARK INTRA:                  -2.009
REMARK UNBOUND:                -1.457
REMARK  Name = 
REMARK  8 active torsions:
REMARK  status: ('A' for Active; 'I' for Inactive)
REMARK    1  A    between atoms: C_1  and  C_2
REMARK    2  A    between atoms: C_2  and  N_3
REMARK    3  A    between atoms: N_3  and  C_4
REMARK    4  A    between atoms: C_4  and  C_5
REMARK    5  A    between atoms: C_8  and  C_9
REMARK    6  A    between atoms: C_9  and  N_10
REMARK    7  A    between atoms: C_11  and  C_13
REMARK    8  A    between atoms: C_20  and  C_22
REMARK                            x       y       z     vdW  Elec       q    Type
REMARK                         _______ _______ _______ _____ _____    ______ ____
ROOT
ATOM      1  C   UNL     1      50.132   8.068  18.296  0.00  0.00    +0.000 C 
ENDROOT
BRANCH   1   2
ATOM      2  C   UNL     1      49.794   7.961  16.836  0.00  0.00    +0.000 A 
ATOM      3  C   UNL     1      48.542   8.327  16.342  0.00  0.00    +0.000 A 
ATOM      4  C   UNL     1      48.194   7.993  15.033  0.00  0.00    +0.000 A 
ATOM      5  C   UNL     1      49.116   7.319  14.235  0.00  0.00    +0.000 A 
ATOM      6  N   UNL     1      50.365   7.016  14.671  0.00  0.00    +0.000 NA
ATOM      7  C   UNL     1      50.672   7.345  15.947  0.00  0.00    +0.000 A 
BRANCH   5   8
ATOM      8  C   UNL     1      48.726   6.824  12.861  0.00  0.00    +0.000 C 
BRANCH   8   9
ATOM      9  N   UNL     1      47.358   6.351  12.806  0.00  0.00    +0.000 N 
ATOM     10  C   UNL     1      46.989   5.096  13.220  0.00  0.00    +0.000 C 
ATOM     11  O   UNL     1      47.776   4.273  13.676  0.00  0.00    +0.000 OA
ATOM     12  H   UNL     1      46.651   6.914  12.346  0.00  0.00    +0.000 HD
BRANCH  10  13
ATOM     13  C   UNL     1      45.551   4.831  13.083  0.00  0.00    +0.000 A 
ATOM     14  C   UNL     1      44.582   5.821  13.105  0.00  0.00    +0.000 A 
ATOM     15  S   UNL     1      43.025   5.141  12.888  0.00  0.00    +0.000 S 
ATOM     16  C   UNL     1      43.740   3.587  12.784  0.00  0.00    +0.000 A 
ATOM     17  N   UNL     1      45.050   3.535  12.899  0.00  0.00    +0.000 NA
ENDBRANCH  10  13
ENDBRANCH   8   9
ENDBRANCH   5   8
ENDBRANCH   1   2
BRANCH   1  18
ATOM     18  N   UNL     1      49.190   7.578  19.301  0.00  0.00    +0.000 N 
ATOM     19  C   UNL     1      48.988   6.207  19.562  0.00  0.00    +0.000 C 
ATOM     20  O   UNL     1      48.190   5.830  20.418  0.00  0.00    +0.000 OA
BRANCH  19  21
ATOM     21  C   UNL     1      49.774   5.199  18.834  0.00  0.00    +0.000 A 
ATOM     22  C   UNL     1      51.099   4.894  19.096  0.00  0.00    +0.000 A 
ATOM     23  S   UNL     1      51.693   3.588  18.166  0.00  0.00    +0.000 S 
ATOM     24  C   UNL     1      50.159   3.315  17.476  0.00  0.00    +0.000 A 
ATOM     25  N   UNL     1      49.936   2.257  16.651  0.00  0.00    +0.000 NA
ATOM     26  C   UNL     1      48.713   2.140  16.261  0.00  0.00    +0.000 A 
ATOM     27  N   UNL     1      47.698   3.008  16.590  0.00  0.00    +0.000 N 
ATOM     28  C   UNL     1      47.906   4.161  17.317  0.00  0.00    +0.000 A 
ATOM     29  O   UNL     1      47.043   5.028  17.394  0.00  0.00    +0.000 OA
ATOM     30  C   UNL     1      49.241   4.264  17.875  0.00  0.00    +0.000 A 
ATOM     31  H   UNL     1      46.776   2.898  16.195  0.00  0.00    +0.000 HD
ENDBRANCH  19  21
BRANCH  18  33
ATOM     32  C   UNL     1      47.154   8.966  19.557  0.00  0.00    +0.000 C 
ATOM     33  C   UNL     1      48.475   8.518  20.168  0.00  0.00    +0.000 C 
ENDBRANCH  18  33
ENDBRANCH   1  18
TORSDOF 7
ENDMDL
MODEL 8
REMARK VINA RESULT:    -5.897      3.090      4.400
REMARK INTER + INTRA:          -9.767
REMARK INTER:                  -8.766
REMARK INTRA:                  -1.002
REMARK UNBOUND:                -1.457
REMARK  Name = 
REMARK  8 active torsions:
REMARK  status: ('A' for Active; 'I' for Inactive)
REMARK    1  A    between atoms: C_1  and  C_2
REMARK    2  A    between atoms: C_2  and  N_3
REMARK    3  A    between atoms: N_3  and  C_4
REMARK    4  A    between atoms: C_4  and  C_5
REMARK    5  A    between atoms: C_8  and  C_9
REMARK    6  A    between atoms: C_9  and  N_10
REMARK    7  A    between atoms: C_11  and  C_13
REMARK    8  A    between atoms: C_20  and  C_22
REMARK                            x       y       z     vdW  Elec       q    Type
REMARK                         _______ _______ _______ _____ _____    ______ ____
ROOT
ATOM      1  C   UNL     1      49.103   6.424  16.383  0.00  0.00    +0.000 C 
ENDROOT
BRANCH   1   2
ATOM      2  C   UNL     1      48.200   5.918  15.294  0.00  0.00    +0.000 A 
ATOM      3  C   UNL     1      47.934   6.670  14.150  0.00  0.00    +0.000 A 
ATOM      4  C   UNL     1      46.916   6.270  13.285  0.00  0.00    +0.000 A 
ATOM      5  C   UNL     1      46.198   5.110  13.570  0.00  0.00    +0.000 A 
ATOM      6  N   UNL     1      46.487   4.325  14.638  0.00  0.00    +0.000 NA
ATOM      7  C   UNL     1      47.474   4.741  15.464  0.00  0.00    +0.000 A 
BRANCH   5   8
ATOM      8  C   UNL     1      45.003   4.721  12.729  0.00  0.00    +0.000 C 
BRANCH   8   9
ATOM      9  N   UNL     1      45.381   4.127  11.464  0.00  0.00    +0.000 N 
ATOM     10  C   UNL     1      44.606   4.225  10.336  0.00  0.00    +0.000 C 
ATOM     11  O   UNL     1      43.535   4.824  10.298  0.00  0.00    +0.000 OA
ATOM     12  H   UNL     1      46.193   3.520  11.418  0.00  0.00    +0.000 HD
BRANCH  10  13
ATOM     13  C   UNL     1      45.186   3.556   9.165  0.00  0.00    +0.000 A 
ATOM     14  C   UNL     1      45.436   2.195   9.102  0.00  0.00    +0.000 A 
ATOM     15  S   UNL     1      46.086   1.774   7.574  0.00  0.00    +0.000 S 
ATOM     16  C   UNL     1      45.994   3.419   7.103  0.00  0.00    +0.000 A 
ATOM     17  N   UNL     1      45.517   4.259   7.998  0.00  0.00    +0.000 NA
ENDBRANCH  10  13
ENDBRANCH   8   9
ENDBRANCH   5   8
ENDBRANCH   1   2
BRANCH   1  18
ATOM     18  N   UNL     1      48.621   6.486  17.762  0.00  0.00    +0.000 N 
ATOM     19  C   UNL     1      48.911   5.495  18.723  0.00  0.00    +0.000 C 
ATOM     20  O   UNL     1      48.493   5.581  19.876  0.00  0.00    +0.000 OA
BRANCH  19  21
ATOM     21  C   UNL     1      49.767   4.355  18.363  0.00  0.00    +0.000 A 
ATOM     22  C   UNL     1      49.320   3.195  17.751  0.00  0.00    +0.000 A 
ATOM     23  S   UNL     1      50.579   2.112  17.346  0.00  0.00    +0.000 S 
ATOM     24  C   UNL     1      51.768   3.217  17.865  0.00  0.00    +0.000 A 
ATOM     25  N   UNL     1      53.092   2.957  17.699  0.00  0.00    +0.000 NA
ATOM     26  C   UNL     1      53.869   3.913  18.078  0.00  0.00    +0.000 A 
ATOM     27  N   UNL     1      53.445   5.092  18.644  0.00  0.00    +0.000 N 
ATOM     28  C   UNL     1      52.124   5.344  18.947  0.00  0.00    +0.000 A 
ATOM     29  O   UNL     1      51.803   6.289  19.658  0.00  0.00    +0.000 OA
ATOM     30  C   UNL     1      51.208   4.346  18.427  0.00  0.00    +0.000 A 
ATOM     31  H   UNL     1      54.109   5.772  18.981  0.00  0.00    +0.000 HD
ENDBRANCH  19  21
BRANCH  18  33
ATOM     32  C   UNL     1      48.256   8.918  17.467  0.00  0.00    +0.000 C 
ATOM     33  C   UNL     1      47.885   7.659  18.239  0.00  0.00    +0.000 C 
ENDBRANCH  18  33
ENDBRANCH   1  18
TORSDOF 7
ENDMDL
MODEL 9
REMARK VINA RESULT:    -5.849      3.782      7.288
REMARK INTER + INTRA:          -9.699
REMARK INTER:                  -8.155
REMARK INTRA:                  -1.544
REMARK UNBOUND:                -1.457
REMARK  Name = 
REMARK  8 active torsions:
REMARK  status: ('A' for Active; 'I' for Inactive)
REMARK    1  A    between atoms: C_1  and  C_2
REMARK    2  A    between atoms: C_2  and  N_3
REMARK    3  A    between atoms: N_3  and  C_4
REMARK    4  A    between atoms: C_4  and  C_5
REMARK    5  A    between atoms: C_8  and  C_9
REMARK    6  A    between atoms: C_9  and  N_10
REMARK    7  A    between atoms: C_11  and  C_13
REMARK    8  A    between atoms: C_20  and  C_22
REMARK                            x       y       z     vdW  Elec       q    Type
REMARK                         _______ _______ _______ _____ _____    ______ ____
ROOT
ATOM      1  C   UNL     1      49.532   8.446  14.884  0.00  0.00    +0.000 C 
ENDROOT
BRANCH   1   2
ATOM      2  C   UNL     1      49.517   7.334  15.894  0.00  0.00    +0.000 A 
ATOM      3  C   UNL     1      50.692   6.734  16.345  0.00  0.00    +0.000 A 
ATOM      4  C   UNL     1      50.622   5.560  17.095  0.00  0.00    +0.000 A 
ATOM      5  C   UNL     1      49.374   5.020  17.398  0.00  0.00    +0.000 A 
ATOM      6  N   UNL     1      48.216   5.625  17.030  0.00  0.00    +0.000 NA
ATOM      7  C   UNL     1      48.314   6.758  16.298  0.00  0.00    +0.000 A 
BRANCH   5   8
ATOM      8  C   UNL     1      49.263   3.681  18.091  0.00  0.00    +0.000 C 
BRANCH   8   9
ATOM      9  N   UNL     1      50.544   3.020  18.235  0.00  0.00    +0.000 N 
ATOM     10  C   UNL     1      50.990   2.067  17.356  0.00  0.00    +0.000 C 
ATOM     11  O   UNL     1      50.354   1.697  16.374  0.00  0.00    +0.000 OA
ATOM     12  H   UNL     1      51.097   3.177  19.072  0.00  0.00    +0.000 HD
BRANCH  10  13
ATOM     13  C   UNL     1      52.319   1.537  17.689  0.00  0.00    +0.000 A 
ATOM     14  C   UNL     1      53.478   2.295  17.660  0.00  0.00    +0.000 A 
ATOM     15  S   UNL     1      54.825   1.350  18.137  0.00  0.00    +0.000 S 
ATOM     16  C   UNL     1      53.783   0.006  18.346  0.00  0.00    +0.000 A 
ATOM     17  N   UNL     1      52.509   0.206  18.086  0.00  0.00    +0.000 NA
ENDBRANCH  10  13
ENDBRANCH   8   9
ENDBRANCH   5   8
ENDBRANCH   1   2
BRANCH   1  18
ATOM     18  N   UNL     1      50.032   8.198  13.532  0.00  0.00    +0.000 N 
ATOM     19  C   UNL     1      49.183   8.031  12.418  0.00  0.00    +0.000 C 
ATOM     20  O   UNL     1      49.638   7.829  11.293  0.00  0.00    +0.000 OA
BRANCH  19  21
ATOM     21  C   UNL     1      47.727   8.144  12.583  0.00  0.00    +0.000 A 
ATOM     22  C   UNL     1      46.998   9.305  12.380  0.00  0.00    +0.000 A 
ATOM     23  S   UNL     1      45.310   9.083  12.525  0.00  0.00    +0.000 S 
ATOM     24  C   UNL     1      45.497   7.403  12.741  0.00  0.00    +0.000 A 
ATOM     25  N   UNL     1      44.420   6.578  12.823  0.00  0.00    +0.000 NA
ATOM     26  C   UNL     1      44.718   5.327  12.917  0.00  0.00    +0.000 A 
ATOM     27  N   UNL     1      45.997   4.828  12.976  0.00  0.00    +0.000 N 
ATOM     28  C   UNL     1      47.114   5.635  13.026  0.00  0.00    +0.000 A 
ATOM     29  O   UNL     1      48.215   5.180  13.314  0.00  0.00    +0.000 OA
ATOM     30  C   UNL     1      46.827   7.039  12.800  0.00  0.00    +0.000 A 
ATOM     31  H   UNL     1      46.161   3.843  13.119  0.00  0.00    +0.000 HD
ENDBRANCH  19  21
BRANCH  18  33
ATOM     32  C   UNL     1      52.161   9.406  13.909  0.00  0.00    +0.000 C 
ATOM     33  C   UNL     1      51.471   8.215  13.258  0.00  0.00    +0.000 C 
ENDBRANCH  18  33
ENDBRANCH   1  18
TORSDOF 7
ENDMDL
