MODEL 1
REMARK VINA RESULT:    -8.709      0.000      0.000
REMARK INTER + INTRA:         -13.203
REMARK INTER:                 -12.273
REMARK INTRA:                  -0.929
REMARK UNBOUND:                -0.929
REMARK  Name = 
REMARK  7 active torsions:
REMARK  status: ('A' for Active; 'I' for Inactive)
REMARK    1  A    between atoms: C_5  and  C_6
REMARK    2  A    between atoms: C_6  and  N_7
REMARK    3  A    between atoms: N_7  and  C_8
REMARK    4  A    between atoms: C_8  and  C_9
REMARK    5  A    between atoms: C_12  and  C_13
REMARK    6  A    between atoms: C_13  and  N_14
REMARK    7  A    between atoms: C_15  and  C_17
REMARK                            x       y       z     vdW  Elec       q    Type
REMARK                         _______ _______ _______ _____ _____    ______ ____
ROOT
ATOM      1  C   UNL     1      44.687   4.829  11.622  0.00  0.00    +0.000 A 
ATOM      2  C   UNL     1      45.269   4.362  12.811  0.00  0.00    +0.000 A 
ATOM      3  C   UNL     1      46.355   5.029  13.386  0.00  0.00    +0.000 A 
ATOM      4  C   UNL     1      46.886   6.175  12.783  0.00  0.00    +0.000 A 
ATOM      5  C   UNL     1      46.338   6.614  11.571  0.00  0.00    +0.000 A 
ATOM      6  C   UNL     1      45.246   5.954  11.000  0.00  0.00    +0.000 A 
ENDROOT
BRANCH   1   7
ATOM      7  C   UNL     1      43.489   4.126  11.019  0.00  0.00    +0.000 C 
BRANCH   7   8
ATOM      8  N   UNL     1      43.758   3.706   9.643  0.00  0.00    +0.000 NA
ATOM      9  H   UNL     1      42.871   3.532   9.169  0.00  0.00    +0.000 HD
BRANCH   8  10
ATOM     10  C   UNL     1      44.527   2.458   9.606  0.00  0.00    +0.000 C 
BRANCH  10  15
ATOM     11  N   UNL     1      48.295   2.629   5.450  0.00  0.00    +0.000 N 
ATOM     12  C   UNL     1      47.329   2.559   6.452  0.00  0.00    +0.000 A 
ATOM     13  C   UNL     1      47.175   1.431   7.257  0.00  0.00    +0.000 A 
ATOM     14  N   UNL     1      46.281   1.350   8.275  0.00  0.00    +0.000 NA
ATOM     15  C   UNL     1      45.540   2.469   8.483  0.00  0.00    +0.000 A 
ATOM     16  C   UNL     1      45.684   3.587   7.667  0.00  0.00    +0.000 A 
ATOM     17  N   UNL     1      46.582   3.657   6.651  0.00  0.00    +0.000 NA
ATOM     18  H   UNL     1      48.238   1.851   4.806  0.00  0.00    +0.000 HD
ATOM     19  H   UNL     1      48.170   3.525   4.981  0.00  0.00    +0.000 HD
ENDBRANCH  10  15
ENDBRANCH   8  10
ENDBRANCH   7   8
ENDBRANCH   1   7
BRANCH   4  20
ATOM     20  C   UNL     1      48.055   6.899  13.397  0.00  0.00    +0.000 C 
BRANCH  20  21
ATOM     21  N   UNL     1      47.933   6.948  14.832  0.00  0.00    +0.000 N 
ATOM     22  C   UNL     1      49.025   6.793  15.646  0.00  0.00    +0.000 C 
ATOM     23  O   UNL     1      50.158   6.653  15.197  0.00  0.00    +0.000 OA
ATOM     24  H   UNL     1      46.999   6.843  15.216  0.00  0.00    +0.000 HD
BRANCH  22  25
ATOM     25  C   UNL     1      48.777   6.873  17.091  0.00  0.00    +0.000 A 
ATOM     26  C   UNL     1      48.433   8.091  17.662  0.00  0.00    +0.000 A 
ATOM     27  S   UNL     1      48.123   7.999  19.337  0.00  0.00    +0.000 S 
ATOM     28  C   UNL     1      48.490   6.339  19.369  0.00  0.00    +0.000 A 
ATOM     29  N   UNL     1      48.442   5.636  20.533  0.00  0.00    +0.000 NA
ATOM     30  C   UNL     1      48.775   4.394  20.419  0.00  0.00    +0.000 A 
ATOM     31  N   UNL     1      49.144   3.788  19.249  0.00  0.00    +0.000 N 
ATOM     32  C   UNL     1      49.184   4.450  18.043  0.00  0.00    +0.000 A 
ATOM     33  O   UNL     1      49.485   3.869  17.006  0.00  0.00    +0.000 OA
ATOM     34  C   UNL     1      48.827   5.856  18.117  0.00  0.00    +0.000 A 
ATOM     35  H   UNL     1      49.390   2.810  19.225  0.00  0.00    +0.000 HD
ENDBRANCH  22  25
ENDBRANCH  20  21
ENDBRANCH   4  20
TORSDOF 7
ENDMDL
MODEL 2
REMARK VINA RESULT:    -8.632      1.475      1.774
REMARK INTER + INTRA:         -13.094
REMARK INTER:                 -12.158
REMARK INTRA:                  -0.936
REMARK UNBOUND:                -0.929
REMARK  Name = 
REMARK  7 active torsions:
REMARK  status: ('A' for Active; 'I' for Inactive)
REMARK    1  A    between atoms: C_5  and  C_6
REMARK    2  A    between atoms: C_6  and  N_7
REMARK    3  A    between atoms: N_7  and  C_8
REMARK    4  A    between atoms: C_8  and  C_9
REMARK    5  A    between atoms: C_12  and  C_13
REMARK    6  A    between atoms: C_13  and  N_14
REMARK    7  A    between atoms: C_15  and  C_17
REMARK                            x       y       z     vdW  Elec       q    Type
REMARK                         _______ _______ _______ _____ _____    ______ ____
ROOT
ATOM      1  C   UNL     1      44.558   4.828  11.291  0.00  0.00    +0.000 A 
ATOM      2  C   UNL     1      44.343   5.155  12.638  0.00  0.00    +0.000 A 
ATOM      3  C   UNL     1      45.062   6.188  13.247  0.00  0.00    +0.000 A 
ATOM      4  C   UNL     1      46.015   6.915  12.522  0.00  0.00    +0.000 A 
ATOM      5  C   UNL     1      46.265   6.557  11.191  0.00  0.00    +0.000 A 
ATOM      6  C   UNL     1      45.539   5.531  10.579  0.00  0.00    +0.000 A 
ENDROOT
BRANCH   1   7
ATOM      7  C   UNL     1      43.754   3.732  10.623  0.00  0.00    +0.000 C 
BRANCH   7   8
ATOM      8  N   UNL     1      44.523   2.490  10.532  0.00  0.00    +0.000 NA
ATOM      9  H   UNL     1      45.516   2.707  10.623  0.00  0.00    +0.000 HD
BRANCH   8  10
ATOM     10  C   UNL     1      44.333   1.838   9.233  0.00  0.00    +0.000 C 
BRANCH  10  15
ATOM     11  N   UNL     1      48.753   2.510   5.840  0.00  0.00    +0.000 N 
ATOM     12  C   UNL     1      47.682   2.364   6.721  0.00  0.00    +0.000 A 
ATOM     13  C   UNL     1      46.843   3.427   7.052  0.00  0.00    +0.000 A 
ATOM     14  N   UNL     1      45.762   3.306   7.863  0.00  0.00    +0.000 NA
ATOM     15  C   UNL     1      45.526   2.053   8.329  0.00  0.00    +0.000 A 
ATOM     16  C   UNL     1      46.376   0.998   8.011  0.00  0.00    +0.000 A 
ATOM     17  N   UNL     1      47.455   1.129   7.198  0.00  0.00    +0.000 NA
ATOM     18  H   UNL     1      49.374   3.261   6.111  0.00  0.00    +0.000 HD
ATOM     19  H   UNL     1      49.231   1.611   5.805  0.00  0.00    +0.000 HD
ENDBRANCH  10  15
ENDBRANCH   8  10
ENDBRANCH   7   8
ENDBRANCH   1   7
BRANCH   4  20
ATOM     20  C   UNL     1      46.792   8.030  13.171  0.00  0.00    +0.000 C 
BRANCH  20  21
ATOM     21  N   UNL     1      47.367   7.598  14.419  0.00  0.00    +0.000 N 
ATOM     22  C   UNL     1      48.453   6.763  14.453  0.00  0.00    +0.000 C 
ATOM     23  O   UNL     1      49.014   6.381  13.430  0.00  0.00    +0.000 OA
ATOM     24  H   UNL     1      46.799   7.719  15.251  0.00  0.00    +0.000 HD
BRANCH  22  25
ATOM     25  C   UNL     1      48.957   6.401  15.784  0.00  0.00    +0.000 A 
ATOM     26  C   UNL     1      49.997   7.130  16.345  0.00  0.00    +0.000 A 
ATOM     27  S   UNL     1      50.422   6.619  17.916  0.00  0.00    +0.000 S 
ATOM     28  C   UNL     1      49.269   5.370  17.880  0.00  0.00    +0.000 A 
ATOM     29  N   UNL     1      49.127   4.520  18.934  0.00  0.00    +0.000 NA
ATOM     30  C   UNL     1      48.239   3.600  18.761  0.00  0.00    +0.000 A 
ATOM     31  N   UNL     1      47.473   3.455  17.636  0.00  0.00    +0.000 N 
ATOM     32  C   UNL     1      47.562   4.304  16.554  0.00  0.00    +0.000 A 
ATOM     33  O   UNL     1      46.836   4.168  15.576  0.00  0.00    +0.000 OA
ATOM     34  C   UNL     1      48.556   5.353  16.695  0.00  0.00    +0.000 A 
ATOM     35  H   UNL     1      46.791   2.716  17.562  0.00  0.00    +0.000 HD
ENDBRANCH  22  25
ENDBRANCH  20  21
ENDBRANCH   4  20
TORSDOF 7
ENDMDL
MODEL 3
REMARK VINA RESULT:    -8.532      1.572      2.416
REMARK INTER + INTRA:         -12.953
REMARK INTER:                 -11.841
REMARK INTRA:                  -1.112
REMARK UNBOUND:                -0.929
REMARK  Name = 
REMARK  7 active torsions:
REMARK  status: ('A' for Active; 'I' for Inactive)
REMARK    1  A    between atoms: C_5  and  C_6
REMARK    2  A    between atoms: C_6  and  N_7
REMARK    3  A    between atoms: N_7  and  C_8
REMARK    4  A    between atoms: C_8  and  C_9
REMARK    5  A    between atoms: C_12  and  C_13
REMARK    6  A    between atoms: C_13  and  N_14
REMARK    7  A    between atoms: C_15  and  C_17
REMARK                            x       y       z     vdW  Elec       q    Type
REMARK                         _______ _______ _______ _____ _____    ______ ____
ROOT
ATOM      1  C   UNL     1      44.684   5.425  11.613  0.00  0.00    +0.000 A 
ATOM      2  C   UNL     1      44.965   4.849  12.861  0.00  0.00    +0.000 A 
ATOM      3  C   UNL     1      46.110   5.212  13.576  0.00  0.00    +0.000 A 
ATOM      4  C   UNL     1      47.003   6.158  13.056  0.00  0.00    +0.000 A 
ATOM      5  C   UNL     1      46.749   6.698  11.788  0.00  0.00    +0.000 A 
ATOM      6  C   UNL     1      45.599   6.342  11.078  0.00  0.00    +0.000 A 
ENDROOT
BRANCH   1   7
ATOM      7  C   UNL     1      43.425   5.057  10.856  0.00  0.00    +0.000 C 
BRANCH   7   8
ATOM      8  N   UNL     1      43.735   4.602   9.500  0.00  0.00    +0.000 NA
ATOM      9  H   UNL     1      42.890   4.653   8.931  0.00  0.00    +0.000 HD
BRANCH   8  10
ATOM     10  C   UNL     1      44.186   3.208   9.494  0.00  0.00    +0.000 C 
BRANCH  10  15
ATOM     11  N   UNL     1      48.526   2.363   6.039  0.00  0.00    +0.000 N 
ATOM     12  C   UNL     1      47.481   2.593   6.931  0.00  0.00    +0.000 A 
ATOM     13  C   UNL     1      46.905   3.852   7.091  0.00  0.00    +0.000 A 
ATOM     14  N   UNL     1      45.851   4.098   7.911  0.00  0.00    +0.000 NA
ATOM     15  C   UNL     1      45.365   3.014   8.568  0.00  0.00    +0.000 A 
ATOM     16  C   UNL     1      45.954   1.761   8.419  0.00  0.00    +0.000 A 
ATOM     17  N   UNL     1      47.007   1.526   7.596  0.00  0.00    +0.000 NA
ATOM     18  H   UNL     1      49.305   2.992   6.188  0.00  0.00    +0.000 HD
ATOM     19  H   UNL     1      48.797   1.387   6.145  0.00  0.00    +0.000 HD
ENDBRANCH  10  15
ENDBRANCH   8  10
ENDBRANCH   7   8
ENDBRANCH   1   7
BRANCH   4  20
ATOM     20  C   UNL     1      48.238   6.555  13.820  0.00  0.00    +0.000 C 
BRANCH  20  21
ATOM     21  N   UNL     1      47.975   6.598  15.236  0.00  0.00    +0.000 N 
ATOM     22  C   UNL     1      48.961   6.343  16.153  0.00  0.00    +0.000 C 
ATOM     23  O   UNL     1      50.119   6.113  15.818  0.00  0.00    +0.000 OA
ATOM     24  H   UNL     1      47.001   6.568  15.521  0.00  0.00    +0.000 HD
BRANCH  22  25
ATOM     25  C   UNL     1      48.575   6.428  17.567  0.00  0.00    +0.000 A 
ATOM     26  C   UNL     1      48.608   5.286  18.356  0.00  0.00    +0.000 A 
ATOM     27  S   UNL     1      48.188   5.567  19.985  0.00  0.00    +0.000 S 
ATOM     28  C   UNL     1      47.895   7.214  19.682  0.00  0.00    +0.000 A 
ATOM     29  N   UNL     1      47.473   8.043  20.676  0.00  0.00    +0.000 NA
ATOM     30  C   UNL     1      47.259   9.259  20.301  0.00  0.00    +0.000 A 
ATOM     31  N   UNL     1      47.435   9.726  19.026  0.00  0.00    +0.000 N 
ATOM     32  C   UNL     1      47.884   8.934  17.994  0.00  0.00    +0.000 A 
ATOM     33  O   UNL     1      48.066   9.392  16.871  0.00  0.00    +0.000 OA
ATOM     34  C   UNL     1      48.132   7.551  18.361  0.00  0.00    +0.000 A 
ATOM     35  H   UNL     1      47.254  10.691  18.796  0.00  0.00    +0.000 HD
ENDBRANCH  22  25
ENDBRANCH  20  21
ENDBRANCH   4  20
TORSDOF 7
ENDMDL
MODEL 4
REMARK VINA RESULT:    -7.773      1.948      2.232
REMARK INTER + INTRA:         -11.883
REMARK INTER:                 -10.814
REMARK INTRA:                  -1.069
REMARK UNBOUND:                -0.929
REMARK  Name = 
REMARK  7 active torsions:
REMARK  status: ('A' for Active; 'I' for Inactive)
REMARK    1  A    between atoms: C_5  and  C_6
REMARK    2  A    between atoms: C_6  and  N_7
REMARK    3  A    between atoms: N_7  and  C_8
REMARK    4  A    between atoms: C_8  and  C_9
REMARK    5  A    between atoms: C_12  and  C_13
REMARK    6  A    between atoms: C_13  and  N_14
REMARK    7  A    between atoms: C_15  and  C_17
REMARK                            x       y       z     vdW  Elec       q    Type
REMARK                         _______ _______ _______ _____ _____    ______ ____
ROOT
ATOM      1  C   UNL     1      44.920   4.403  12.478  0.00  0.00    +0.000 A 
ATOM      2  C   UNL     1      46.111   4.100  13.156  0.00  0.00    +0.000 A 
ATOM      3  C   UNL     1      46.996   5.113  13.536  0.00  0.00    +0.000 A 
ATOM      4  C   UNL     1      46.711   6.453  13.244  0.00  0.00    +0.000 A 
ATOM      5  C   UNL     1      45.546   6.752  12.526  0.00  0.00    +0.000 A 
ATOM      6  C   UNL     1      44.657   5.740  12.154  0.00  0.00    +0.000 A 
ENDROOT
BRANCH   1   7
ATOM      7  C   UNL     1      43.947   3.307  12.098  0.00  0.00    +0.000 C 
BRANCH   7   8
ATOM      8  N   UNL     1      44.467   2.494  10.998  0.00  0.00    +0.000 NA
ATOM      9  H   UNL     1      45.481   2.429  11.083  0.00  0.00    +0.000 HD
BRANCH   8  10
ATOM     10  C   UNL     1      44.174   3.104   9.698  0.00  0.00    +0.000 C 
BRANCH  10  15
ATOM     11  N   UNL     1      48.438   2.468   6.104  0.00  0.00    +0.000 N 
ATOM     12  C   UNL     1      47.347   2.606   6.961  0.00  0.00    +0.000 A 
ATOM     13  C   UNL     1      46.827   1.531   7.680  0.00  0.00    +0.000 A 
ATOM     14  N   UNL     1      45.802   1.642   8.563  0.00  0.00    +0.000 NA
ATOM     15  C   UNL     1      45.313   2.899   8.724  0.00  0.00    +0.000 A 
ATOM     16  C   UNL     1      45.823   3.967   7.992  0.00  0.00    +0.000 A 
ATOM     17  N   UNL     1      46.849   3.844   7.112  0.00  0.00    +0.000 NA
ATOM     18  H   UNL     1      48.298   1.735   5.420  0.00  0.00    +0.000 HD
ATOM     19  H   UNL     1      48.588   3.376   5.669  0.00  0.00    +0.000 HD
ENDBRANCH  10  15
ENDBRANCH   8  10
ENDBRANCH   7   8
ENDBRANCH   1   7
BRANCH   4  20
ATOM     20  C   UNL     1      47.658   7.550  13.652  0.00  0.00    +0.000 C 
BRANCH  20  21
ATOM     21  N   UNL     1      48.816   7.009  14.318  0.00  0.00    +0.000 N 
ATOM     22  C   UNL     1      49.541   7.756  15.208  0.00  0.00    +0.000 C 
ATOM     23  O   UNL     1      49.216   8.900  15.516  0.00  0.00    +0.000 OA
ATOM     24  H   UNL     1      49.219   6.166  13.921  0.00  0.00    +0.000 HD
BRANCH  22  25
ATOM     25  C   UNL     1      50.693   7.093  15.832  0.00  0.00    +0.000 A 
ATOM     26  C   UNL     1      51.966   7.616  15.651  0.00  0.00    +0.000 A 
ATOM     27  S   UNL     1      53.183   6.763  16.487  0.00  0.00    +0.000 S 
ATOM     28  C   UNL     1      52.059   5.632  17.078  0.00  0.00    +0.000 A 
ATOM     29  N   UNL     1      52.460   4.595  17.864  0.00  0.00    +0.000 NA
ATOM     30  C   UNL     1      51.509   3.795  18.215  0.00  0.00    +0.000 A 
ATOM     31  N   UNL     1      50.195   3.940  17.861  0.00  0.00    +0.000 N 
ATOM     32  C   UNL     1      49.738   4.985  17.089  0.00  0.00    +0.000 A 
ATOM     33  O   UNL     1      48.548   5.105  16.819  0.00  0.00    +0.000 OA
ATOM     34  C   UNL     1      50.770   5.910  16.659  0.00  0.00    +0.000 A 
ATOM     35  H   UNL     1      49.497   3.281  18.171  0.00  0.00    +0.000 HD
ENDBRANCH  22  25
ENDBRANCH  20  21
ENDBRANCH   4  20
TORSDOF 7
ENDMDL
MODEL 5
REMARK VINA RESULT:    -7.525      3.634      8.470
REMARK INTER + INTRA:         -11.534
REMARK INTER:                 -10.208
REMARK INTRA:                  -1.326
REMARK UNBOUND:                -0.929
REMARK  Name = 
REMARK  7 active torsions:
REMARK  status: ('A' for Active; 'I' for Inactive)
REMARK    1  A    between atoms: C_5  and  C_6
REMARK    2  A    between atoms: C_6  and  N_7
REMARK    3  A    between atoms: N_7  and  C_8
REMARK    4  A    between atoms: C_8  and  C_9
REMARK    5  A    between atoms: C_12  and  C_13
REMARK    6  A    between atoms: C_13  and  N_14
REMARK    7  A    between atoms: C_15  and  C_17
REMARK                            x       y       z     vdW  Elec       q    Type
REMARK                         _______ _______ _______ _____ _____    ______ ____
ROOT
ATOM      1  C   UNL     1      48.651   7.843  16.337  0.00  0.00    +0.000 A 
ATOM      2  C   UNL     1      48.263   9.057  15.749  0.00  0.00    +0.000 A 
ATOM      3  C   UNL     1      48.146   9.175  14.361  0.00  0.00    +0.000 A 
ATOM      4  C   UNL     1      48.418   8.081  13.529  0.00  0.00    +0.000 A 
ATOM      5  C   UNL     1      48.851   6.883  14.112  0.00  0.00    +0.000 A 
ATOM      6  C   UNL     1      48.958   6.762  15.500  0.00  0.00    +0.000 A 
ENDROOT
BRANCH   1   7
ATOM      7  C   UNL     1      48.743   7.707  17.843  0.00  0.00    +0.000 C 
BRANCH   7   8
ATOM      8  N   UNL     1      47.461   7.297  18.417  0.00  0.00    +0.000 NA
ATOM      9  H   UNL     1      47.107   8.047  19.012  0.00  0.00    +0.000 HD
BRANCH   8  10
ATOM     10  C   UNL     1      47.609   6.105  19.257  0.00  0.00    +0.000 C 
BRANCH  10  15
ATOM     11  N   UNL     1      48.982   1.664  16.113  0.00  0.00    +0.000 N 
ATOM     12  C   UNL     1      48.633   2.735  16.933  0.00  0.00    +0.000 A 
ATOM     13  C   UNL     1      49.521   3.281  17.859  0.00  0.00    +0.000 A 
ATOM     14  N   UNL     1      49.231   4.357  18.634  0.00  0.00    +0.000 NA
ATOM     15  C   UNL     1      48.001   4.897  18.435  0.00  0.00    +0.000 A 
ATOM     16  C   UNL     1      47.111   4.339  17.522  0.00  0.00    +0.000 A 
ATOM     17  N   UNL     1      47.411   3.263  16.752  0.00  0.00    +0.000 NA
ATOM     18  H   UNL     1      49.332   0.874  16.639  0.00  0.00    +0.000 HD
ATOM     19  H   UNL     1      48.154   1.425  15.570  0.00  0.00    +0.000 HD
ENDBRANCH  10  15
ENDBRANCH   8  10
ENDBRANCH   7   8
ENDBRANCH   1   7
BRANCH   4  20
ATOM     20  C   UNL     1      48.292   8.200  12.034  0.00  0.00    +0.000 C 
BRANCH  20  21
ATOM     21  N   UNL     1      47.602   7.062  11.483  0.00  0.00    +0.000 N 
ATOM     22  C   UNL     1      46.235   7.038  11.381  0.00  0.00    +0.000 C 
ATOM     23  O   UNL     1      45.540   7.995  11.708  0.00  0.00    +0.000 OA
ATOM     24  H   UNL     1      48.128   6.196  11.416  0.00  0.00    +0.000 HD
BRANCH  22  25
ATOM     25  C   UNL     1      45.646   5.828  10.793  0.00  0.00    +0.000 A 
ATOM     26  C   UNL     1      45.844   5.553   9.446  0.00  0.00    +0.000 A 
ATOM     27  S   UNL     1      45.145   4.083   8.937  0.00  0.00    +0.000 S 
ATOM     28  C   UNL     1      44.507   3.787  10.485  0.00  0.00    +0.000 A 
ATOM     29  N   UNL     1      43.761   2.676  10.732  0.00  0.00    +0.000 NA
ATOM     30  C   UNL     1      43.314   2.593  11.940  0.00  0.00    +0.000 A 
ATOM     31  N   UNL     1      43.548   3.513  12.926  0.00  0.00    +0.000 N 
ATOM     32  C   UNL     1      44.316   4.640  12.731  0.00  0.00    +0.000 A 
ATOM     33  O   UNL     1      44.536   5.426  13.645  0.00  0.00    +0.000 OA
ATOM     34  C   UNL     1      44.837   4.786  11.384  0.00  0.00    +0.000 A 
ATOM     35  H   UNL     1      43.172   3.389  13.853  0.00  0.00    +0.000 HD
ENDBRANCH  22  25
ENDBRANCH  20  21
ENDBRANCH   4  20
TORSDOF 7
ENDMDL
MODEL 6
REMARK VINA RESULT:    -7.365      5.006      9.648
REMARK INTER + INTRA:         -11.308
REMARK INTER:                 -10.403
REMARK INTRA:                  -0.906
REMARK UNBOUND:                -0.929
REMARK  Name = 
REMARK  7 active torsions:
REMARK  status: ('A' for Active; 'I' for Inactive)
REMARK    1  A    between atoms: C_5  and  C_6
REMARK    2  A    between atoms: C_6  and  N_7
REMARK    3  A    between atoms: N_7  and  C_8
REMARK    4  A    between atoms: C_8  and  C_9
REMARK    5  A    between atoms: C_12  and  C_13
REMARK    6  A    between atoms: C_13  and  N_14
REMARK    7  A    between atoms: C_15  and  C_17
REMARK                            x       y       z     vdW  Elec       q    Type
REMARK                         _______ _______ _______ _____ _____    ______ ____
ROOT
ATOM      1  C   UNL     1      51.047   2.309  17.418  0.00  0.00    +0.000 A 
ATOM      2  C   UNL     1      49.674   2.294  17.128  0.00  0.00    +0.000 A 
ATOM      3  C   UNL     1      48.954   3.487  17.011  0.00  0.00    +0.000 A 
ATOM      4  C   UNL     1      49.590   4.722  17.184  0.00  0.00    +0.000 A 
ATOM      5  C   UNL     1      50.950   4.737  17.521  0.00  0.00    +0.000 A 
ATOM      6  C   UNL     1      51.672   3.545  17.629  0.00  0.00    +0.000 A 
ENDROOT
BRANCH   1   7
ATOM      7  C   UNL     1      51.832   1.018  17.510  0.00  0.00    +0.000 C 
BRANCH   7   8
ATOM      8  N   UNL     1      52.869   1.100  18.540  0.00  0.00    +0.000 NA
ATOM      9  H   UNL     1      53.009   2.079  18.793  0.00  0.00    +0.000 HD
BRANCH   8  10
ATOM     10  C   UNL     1      54.151   0.586  18.050  0.00  0.00    +0.000 C 
BRANCH  10  15
ATOM     11  N   UNL     1      54.599  -4.982  18.595  0.00  0.00    +0.000 N 
ATOM     12  C   UNL     1      54.440  -3.606  18.443  0.00  0.00    +0.000 A 
ATOM     13  C   UNL     1      53.762  -2.829  19.382  0.00  0.00    +0.000 A 
ATOM     14  N   UNL     1      53.635  -1.481  19.291  0.00  0.00    +0.000 NA
ATOM     15  C   UNL     1      54.241  -0.915  18.215  0.00  0.00    +0.000 A 
ATOM     16  C   UNL     1      54.902  -1.695  17.271  0.00  0.00    +0.000 A 
ATOM     17  N   UNL     1      55.023  -3.043  17.372  0.00  0.00    +0.000 NA
ATOM     18  H   UNL     1      53.718  -5.457  18.743  0.00  0.00    +0.000 HD
ATOM     19  H   UNL     1      55.080  -5.317  17.762  0.00  0.00    +0.000 HD
ENDBRANCH  10  15
ENDBRANCH   8  10
ENDBRANCH   7   8
ENDBRANCH   1   7
BRANCH   4  20
ATOM     20  C   UNL     1      48.822   6.010  17.057  0.00  0.00    +0.000 C 
BRANCH  20  21
ATOM     21  N   UNL     1      47.893   5.949  15.958  0.00  0.00    +0.000 N 
ATOM     22  C   UNL     1      48.259   6.328  14.693  0.00  0.00    +0.000 C 
ATOM     23  O   UNL     1      49.400   6.691  14.425  0.00  0.00    +0.000 OA
ATOM     24  H   UNL     1      46.910   5.866  16.195  0.00  0.00    +0.000 HD
BRANCH  22  25
ATOM     25  C   UNL     1      47.228   6.211  13.653  0.00  0.00    +0.000 A 
ATOM     26  C   UNL     1      46.771   7.353  13.009  0.00  0.00    +0.000 A 
ATOM     27  S   UNL     1      45.621   7.037  11.790  0.00  0.00    +0.000 S 
ATOM     28  C   UNL     1      45.653   5.368  12.116  0.00  0.00    +0.000 A 
ATOM     29  N   UNL     1      44.861   4.506  11.421  0.00  0.00    +0.000 NA
ATOM     30  C   UNL     1      44.963   3.274  11.792  0.00  0.00    +0.000 A 
ATOM     31  N   UNL     1      45.787   2.822  12.787  0.00  0.00    +0.000 N 
ATOM     32  C   UNL     1      46.624   3.651  13.500  0.00  0.00    +0.000 A 
ATOM     33  O   UNL     1      47.377   3.209  14.361  0.00  0.00    +0.000 OA
ATOM     34  C   UNL     1      46.542   5.052  13.128  0.00  0.00    +0.000 A 
ATOM     35  H   UNL     1      45.824   1.844  13.028  0.00  0.00    +0.000 HD
ENDBRANCH  22  25
ENDBRANCH  20  21
ENDBRANCH   4  20
TORSDOF 7
ENDMDL
MODEL 7
REMARK VINA RESULT:    -7.296      4.666      9.675
REMARK INTER + INTRA:         -11.211
REMARK INTER:                 -10.364
REMARK INTRA:                  -0.848
REMARK UNBOUND:                -0.929
REMARK  Name = 
REMARK  7 active torsions:
REMARK  status: ('A' for Active; 'I' for Inactive)
REMARK    1  A    between atoms: C_5  and  C_6
REMARK    2  A    between atoms: C_6  and  N_7
REMARK    3  A    between atoms: N_7  and  C_8
REMARK    4  A    between atoms: C_8  and  C_9
REMARK    5  A    between atoms: C_12  and  C_13
REMARK    6  A    between atoms: C_13  and  N_14
REMARK    7  A    between atoms: C_15  and  C_17
REMARK                            x       y       z     vdW  Elec       q    Type
REMARK                         _______ _______ _______ _____ _____    ______ ____
ROOT
ATOM      1  C   UNL     1      51.390   3.531  17.786  0.00  0.00    +0.000 A 
ATOM      2  C   UNL     1      50.576   4.666  17.921  0.00  0.00    +0.000 A 
ATOM      3  C   UNL     1      49.210   4.606  17.631  0.00  0.00    +0.000 A 
ATOM      4  C   UNL     1      48.627   3.409  17.195  0.00  0.00    +0.000 A 
ATOM      5  C   UNL     1      49.447   2.288  17.014  0.00  0.00    +0.000 A 
ATOM      6  C   UNL     1      50.811   2.345  17.313  0.00  0.00    +0.000 A 
ENDROOT
BRANCH   1   7
ATOM      7  C   UNL     1      52.862   3.588  18.134  0.00  0.00    +0.000 C 
BRANCH   7   8
ATOM      8  N   UNL     1      53.185   2.670  19.226  0.00  0.00    +0.000 NA
ATOM      9  H   UNL     1      53.118   3.171  20.113  0.00  0.00    +0.000 HD
BRANCH   8  10
ATOM     10  C   UNL     1      54.555   2.163  19.111  0.00  0.00    +0.000 C 
BRANCH  10  15
ATOM     11  N   UNL     1      54.772  -2.752  16.411  0.00  0.00    +0.000 N 
ATOM     12  C   UNL     1      54.667  -1.534  17.079  0.00  0.00    +0.000 A 
ATOM     13  C   UNL     1      54.350  -1.454  18.434  0.00  0.00    +0.000 A 
ATOM     14  N   UNL     1      54.293  -0.288  19.125  0.00  0.00    +0.000 NA
ATOM     15  C   UNL     1      54.590   0.825  18.407  0.00  0.00    +0.000 A 
ATOM     16  C   UNL     1      54.890   0.744  17.050  0.00  0.00    +0.000 A 
ATOM     17  N   UNL     1      54.945  -0.428  16.368  0.00  0.00    +0.000 NA
ATOM     18  H   UNL     1      53.945  -3.324  16.522  0.00  0.00    +0.000 HD
ATOM     19  H   UNL     1      54.962  -2.539  15.434  0.00  0.00    +0.000 HD
ENDBRANCH  10  15
ENDBRANCH   8  10
ENDBRANCH   7   8
ENDBRANCH   1   7
BRANCH   4  20
ATOM     20  C   UNL     1      47.156   3.337  16.883  0.00  0.00    +0.000 C 
BRANCH  20  21
ATOM     21  N   UNL     1      46.784   4.342  15.920  0.00  0.00    +0.000 N 
ATOM     22  C   UNL     1      46.909   4.121  14.574  0.00  0.00    +0.000 C 
ATOM     23  O   UNL     1      47.296   3.048  14.122  0.00  0.00    +0.000 OA
ATOM     24  H   UNL     1      46.675   5.289  16.268  0.00  0.00    +0.000 HD
BRANCH  22  25
ATOM     25  C   UNL     1      46.487   5.217  13.691  0.00  0.00    +0.000 A 
ATOM     26  C   UNL     1      47.336   6.295  13.482  0.00  0.00    +0.000 A 
ATOM     27  S   UNL     1      46.722   7.449  12.387  0.00  0.00    +0.000 S 
ATOM     28  C   UNL     1      45.275   6.576  12.194  0.00  0.00    +0.000 A 
ATOM     29  N   UNL     1      44.283   7.038  11.386  0.00  0.00    +0.000 NA
ATOM     30  C   UNL     1      43.229   6.293  11.357  0.00  0.00    +0.000 A 
ATOM     31  N   UNL     1      43.078   5.126  12.055  0.00  0.00    +0.000 N 
ATOM     32  C   UNL     1      44.062   4.605  12.865  0.00  0.00    +0.000 A 
ATOM     33  O   UNL     1      43.908   3.538  13.449  0.00  0.00    +0.000 OA
ATOM     34  C   UNL     1      45.267   5.410  12.940  0.00  0.00    +0.000 A 
ATOM     35  H   UNL     1      42.229   4.585  11.987  0.00  0.00    +0.000 HD
ENDBRANCH  22  25
ENDBRANCH  20  21
ENDBRANCH   4  20
TORSDOF 7
ENDMDL
MODEL 8
REMARK VINA RESULT:    -7.286      3.471      5.716
REMARK INTER + INTRA:         -11.197
REMARK INTER:                 -10.157
REMARK INTRA:                  -1.039
REMARK UNBOUND:                -0.929
REMARK  Name = 
REMARK  7 active torsions:
REMARK  status: ('A' for Active; 'I' for Inactive)
REMARK    1  A    between atoms: C_5  and  C_6
REMARK    2  A    between atoms: C_6  and  N_7
REMARK    3  A    between atoms: N_7  and  C_8
REMARK    4  A    between atoms: C_8  and  C_9
REMARK    5  A    between atoms: C_12  and  C_13
REMARK    6  A    between atoms: C_13  and  N_14
REMARK    7  A    between atoms: C_15  and  C_17
REMARK                            x       y       z     vdW  Elec       q    Type
REMARK                         _______ _______ _______ _____ _____    ______ ____
ROOT
ATOM      1  C   UNL     1      47.581   5.860  14.330  0.00  0.00    +0.000 A 
ATOM      2  C   UNL     1      47.064   4.557  14.266  0.00  0.00    +0.000 A 
ATOM      3  C   UNL     1      47.223   3.670  15.335  0.00  0.00    +0.000 A 
ATOM      4  C   UNL     1      47.906   4.067  16.492  0.00  0.00    +0.000 A 
ATOM      5  C   UNL     1      48.463   5.351  16.537  0.00  0.00    +0.000 A 
ATOM      6  C   UNL     1      48.296   6.241  15.473  0.00  0.00    +0.000 A 
ENDROOT
BRANCH   1   7
ATOM      7  C   UNL     1      47.377   6.830  13.185  0.00  0.00    +0.000 C 
BRANCH   7   8
ATOM      8  N   UNL     1      46.141   7.595  13.351  0.00  0.00    +0.000 NA
ATOM      9  H   UNL     1      45.638   7.242  14.166  0.00  0.00    +0.000 HD
BRANCH   8  10
ATOM     10  C   UNL     1      45.257   7.442  12.192  0.00  0.00    +0.000 C 
BRANCH  10  15
ATOM     11  N   UNL     1      43.324   2.189  11.778  0.00  0.00    +0.000 N 
ATOM     12  C   UNL     1      43.758   3.511  11.865  0.00  0.00    +0.000 A 
ATOM     13  C   UNL     1      43.428   4.331  12.943  0.00  0.00    +0.000 A 
ATOM     14  N   UNL     1      43.879   5.604  13.084  0.00  0.00    +0.000 NA
ATOM     15  C   UNL     1      44.708   6.036  12.099  0.00  0.00    +0.000 A 
ATOM     16  C   UNL     1      45.021   5.220  11.016  0.00  0.00    +0.000 A 
ATOM     17  N   UNL     1      44.566   3.948  10.885  0.00  0.00    +0.000 NA
ATOM     18  H   UNL     1      42.320   2.108  11.874  0.00  0.00    +0.000 HD
ATOM     19  H   UNL     1      43.654   1.828  10.885  0.00  0.00    +0.000 HD
ENDBRANCH  10  15
ENDBRANCH   8  10
ENDBRANCH   7   8
ENDBRANCH   1   7
BRANCH   4  20
ATOM     20  C   UNL     1      48.079   3.119  17.648  0.00  0.00    +0.000 C 
BRANCH  20  21
ATOM     21  N   UNL     1      49.475   2.916  17.942  0.00  0.00    +0.000 N 
ATOM     22  C   UNL     1      50.267   2.139  17.139  0.00  0.00    +0.000 C 
ATOM     23  O   UNL     1      49.843   1.618  16.112  0.00  0.00    +0.000 OA
ATOM     24  H   UNL     1      49.783   3.148  18.881  0.00  0.00    +0.000 HD
BRANCH  22  25
ATOM     25  C   UNL     1      51.676   2.015  17.535  0.00  0.00    +0.000 A 
ATOM     26  C   UNL     1      52.234   0.755  17.703  0.00  0.00    +0.000 A 
ATOM     27  S   UNL     1      53.891   0.787  18.105  0.00  0.00    +0.000 S 
ATOM     28  C   UNL     1      53.910   2.487  18.122  0.00  0.00    +0.000 A 
ATOM     29  N   UNL     1      55.047   3.170  18.424  0.00  0.00    +0.000 NA
ATOM     30  C   UNL     1      54.912   4.453  18.431  0.00  0.00    +0.000 A 
ATOM     31  N   UNL     1      53.748   5.118  18.156  0.00  0.00    +0.000 N 
ATOM     32  C   UNL     1      52.579   4.473  17.820  0.00  0.00    +0.000 A 
ATOM     33  O   UNL     1      51.562   5.100  17.544  0.00  0.00    +0.000 OA
ATOM     34  C   UNL     1      52.674   3.025  17.807  0.00  0.00    +0.000 A 
ATOM     35  H   UNL     1      53.708   6.126  18.174  0.00  0.00    +0.000 HD
ENDBRANCH  22  25
ENDBRANCH  20  21
ENDBRANCH   4  20
TORSDOF 7
ENDMDL
MODEL 9
REMARK VINA RESULT:    -7.133      3.122      8.743
REMARK INTER + INTRA:         -10.981
REMARK INTER:                  -9.735
REMARK INTRA:                  -1.246
REMARK UNBOUND:                -0.929
REMARK  Name = 
REMARK  7 active torsions:
REMARK  status: ('A' for Active; 'I' for Inactive)
REMARK    1  A    between atoms: C_5  and  C_6
REMARK    2  A    between atoms: C_6  and  N_7
REMARK    3  A    between atoms: N_7  and  C_8
REMARK    4  A    between atoms: C_8  and  C_9
REMARK    5  A    between atoms: C_12  and  C_13
REMARK    6  A    between atoms: C_13  and  N_14
REMARK    7  A    between atoms: C_15  and  C_17
REMARK                            x       y       z     vdW  Elec       q    Type
REMARK                         _______ _______ _______ _____ _____    ______ ____
ROOT
ATOM      1  C   UNL     1      49.276   8.463  16.086  0.00  0.00    +0.000 A 
ATOM      2  C   UNL     1      49.956   7.587  15.226  0.00  0.00    +0.000 A 
ATOM      3  C   UNL     1      49.528   7.400  13.908  0.00  0.00    +0.000 A 
ATOM      4  C   UNL     1      48.406   8.082  13.422  0.00  0.00    +0.000 A 
ATOM      5  C   UNL     1      47.697   8.920  14.293  0.00  0.00    +0.000 A 
ATOM      6  C   UNL     1      48.131   9.115  15.607  0.00  0.00    +0.000 A 
ENDROOT
BRANCH   1   7
ATOM      7  C   UNL     1      49.762   8.691  17.501  0.00  0.00    +0.000 C 
BRANCH   7   8
ATOM      8  N   UNL     1      49.983   7.422  18.196  0.00  0.00    +0.000 NA
ATOM      9  H   UNL     1      50.624   6.849  17.647  0.00  0.00    +0.000 HD
BRANCH   8  10
ATOM     10  C   UNL     1      48.735   6.668  18.342  0.00  0.00    +0.000 C 
BRANCH  10  15
ATOM     11  N   UNL     1      49.183   1.519  16.155  0.00  0.00    +0.000 N 
ATOM     12  C   UNL     1      49.046   2.778  16.738  0.00  0.00    +0.000 A 
ATOM     13  C   UNL     1      49.863   3.204  17.785  0.00  0.00    +0.000 A 
ATOM     14  N   UNL     1      49.791   4.441  18.338  0.00  0.00    +0.000 NA
ATOM     15  C   UNL     1      48.868   5.269  17.784  0.00  0.00    +0.000 A 
ATOM     16  C   UNL     1      48.042   4.835  16.751  0.00  0.00    +0.000 A 
ATOM     17  N   UNL     1      48.123   3.595  16.204  0.00  0.00    +0.000 NA
ATOM     18  H   UNL     1      49.147   0.773  16.838  0.00  0.00    +0.000 HD
ATOM     19  H   UNL     1      48.446   1.435  15.457  0.00  0.00    +0.000 HD
ENDBRANCH  10  15
ENDBRANCH   8  10
ENDBRANCH   7   8
ENDBRANCH   1   7
BRANCH   4  20
ATOM     20  C   UNL     1      47.939   7.887  12.004  0.00  0.00    +0.000 C 
BRANCH  20  21
ATOM     21  N   UNL     1      47.170   6.676  11.877  0.00  0.00    +0.000 N 
ATOM     22  C   UNL     1      45.800   6.695  11.909  0.00  0.00    +0.000 C 
ATOM     23  O   UNL     1      45.164   7.741  12.000  0.00  0.00    +0.000 OA
ATOM     24  H   UNL     1      47.665   5.802  12.020  0.00  0.00    +0.000 HD
BRANCH  22  25
ATOM     25  C   UNL     1      45.126   5.399  11.759  0.00  0.00    +0.000 A 
ATOM     26  C   UNL     1      44.475   4.834  12.848  0.00  0.00    +0.000 A 
ATOM     27  S   UNL     1      43.696   3.360  12.490  0.00  0.00    +0.000 S 
ATOM     28  C   UNL     1      44.244   3.397  10.881  0.00  0.00    +0.000 A 
ATOM     29  N   UNL     1      43.941   2.390  10.017  0.00  0.00    +0.000 NA
ATOM     30  C   UNL     1      44.448   2.530   8.838  0.00  0.00    +0.000 A 
ATOM     31  N   UNL     1      45.223   3.586   8.440  0.00  0.00    +0.000 N 
ATOM     32  C   UNL     1      45.536   4.640   9.270  0.00  0.00    +0.000 A 
ATOM     33  O   UNL     1      46.203   5.588   8.872  0.00  0.00    +0.000 OA
ATOM     34  C   UNL     1      44.997   4.527  10.613  0.00  0.00    +0.000 A 
ATOM     35  H   UNL     1      45.587   3.640   7.501  0.00  0.00    +0.000 HD
ENDBRANCH  22  25
ENDBRANCH  20  21
ENDBRANCH   4  20
TORSDOF 7
ENDMDL
