MODEL 1
REMARK VINA RESULT:    -7.976      0.000      0.000
REMARK INTER + INTRA:         -10.372
REMARK INTER:                  -9.841
REMARK INTRA:                  -0.531
REMARK UNBOUND:                -0.531
REMARK  Name = 
REMARK  4 active torsions:
REMARK  status: ('A' for Active; 'I' for Inactive)
REMARK    1  A    between atoms: C_2  and  C_4
REMARK    2  A    between atoms: N_8  and  C_9
REMARK    3  A    between atoms: C_9  and  C_10
REMARK    4  A    between atoms: C_10  and  C_11
REMARK                            x       y       z     vdW  Elec       q    Type
REMARK                         _______ _______ _______ _____ _____    ______ ____
ROOT
ATOM      1  C   UNL     1      46.246   2.121   7.975  0.00  0.00    +0.000 A 
ATOM      2  C   UNL     1      46.380   3.465   7.651  0.00  0.00    +0.000 A 
ATOM      3  C   UNL     1      45.530   4.398   8.258  0.00  0.00    +0.000 A 
ATOM      4  C   UNL     1      44.599   3.977   9.209  0.00  0.00    +0.000 A 
ATOM      5  N   UNL     1      43.720   4.926   9.765  0.00  0.00    +0.000 N 
ATOM      6  N   UNL     1      44.466   2.671   9.522  0.00  0.00    +0.000 NA
ATOM      7  C   UNL     1      45.266   1.772   8.890  0.00  0.00    +0.000 A 
ATOM      8  H   UNL     1      44.125   5.855   9.733  0.00  0.00    +0.000 HD
ENDROOT
BRANCH   1  10
ATOM      9  N   UNL     1      46.776  -0.234   7.684  0.00  0.00    +0.000 N 
ATOM     10  C   UNL     1      47.074   1.063   7.366  0.00  0.00    +0.000 C 
ATOM     11  O   UNL     1      47.973   1.328   6.577  0.00  0.00    +0.000 OA
ATOM     12  H   UNL     1      47.285  -0.947   7.179  0.00  0.00    +0.000 HD
ATOM     13  H   UNL     1      45.904  -0.500   8.119  0.00  0.00    +0.000 HD
ENDBRANCH   1  10
BRANCH   5  14
ATOM     14  C   UNL     1      43.264   4.564  11.113  0.00  0.00    +0.000 C 
BRANCH  14  15
ATOM     15  C   UNL     1      43.620   5.679  12.107  0.00  0.00    +0.000 C 
BRANCH  15  16
ATOM     16  C   UNL     1      45.069   5.648  12.527  0.00  0.00    +0.000 A 
ATOM     17  C   UNL     1      45.985   6.582  12.033  0.00  0.00    +0.000 A 
ATOM     18  C   UNL     1      47.307   6.504  12.448  0.00  0.00    +0.000 A 
ATOM     19  N   UNL     1      47.773   5.573  13.306  0.00  0.00    +0.000 NA
ATOM     20  C   UNL     1      46.876   4.676  13.766  0.00  0.00    +0.000 A 
ATOM     21  C   UNL     1      45.536   4.670  13.409  0.00  0.00    +0.000 A 
ENDBRANCH  15  16
ENDBRANCH  14  15
ENDBRANCH   5  14
TORSDOF 4
ENDMDL
MODEL 2
REMARK VINA RESULT:    -7.137      1.341      2.004
REMARK INTER + INTRA:          -9.338
REMARK INTER:                  -8.859
REMARK INTRA:                  -0.478
REMARK UNBOUND:                -0.531
REMARK  Name = 
REMARK  4 active torsions:
REMARK  status: ('A' for Active; 'I' for Inactive)
REMARK    1  A    between atoms: C_2  and  C_4
REMARK    2  A    between atoms: N_8  and  C_9
REMARK    3  A    between atoms: C_9  and  C_10
REMARK    4  A    between atoms: C_10  and  C_11
REMARK                            x       y       z     vdW  Elec       q    Type
REMARK                         _______ _______ _______ _____ _____    ______ ____
ROOT
ATOM      1  C   UNL     1      46.512   2.842   7.327  0.00  0.00    +0.000 A 
ATOM      2  C   UNL     1      45.996   1.747   8.008  0.00  0.00    +0.000 A 
ATOM      3  C   UNL     1      45.206   1.963   9.143  0.00  0.00    +0.000 A 
ATOM      4  C   UNL     1      44.907   3.265   9.546  0.00  0.00    +0.000 A 
ATOM      5  N   UNL     1      44.156   3.457  10.721  0.00  0.00    +0.000 N 
ATOM      6  N   UNL     1      45.410   4.330   8.888  0.00  0.00    +0.000 NA
ATOM      7  C   UNL     1      46.214   4.104   7.816  0.00  0.00    +0.000 A 
ATOM      8  H   UNL     1      43.569   2.651  10.910  0.00  0.00    +0.000 HD
ENDROOT
BRANCH   1  10
ATOM      9  N   UNL     1      48.691   2.389   6.349  0.00  0.00    +0.000 N 
ATOM     10  C   UNL     1      47.379   2.713   6.140  0.00  0.00    +0.000 C 
ATOM     11  O   UNL     1      46.936   2.856   5.006  0.00  0.00    +0.000 OA
ATOM     12  H   UNL     1      49.243   2.203   5.522  0.00  0.00    +0.000 HD
ATOM     13  H   UNL     1      49.027   2.022   7.228  0.00  0.00    +0.000 HD
ENDBRANCH   1  10
BRANCH   5  14
ATOM     14  C   UNL     1      43.392   4.711  10.715  0.00  0.00    +0.000 C 
BRANCH  14  15
ATOM     15  C   UNL     1      43.587   5.455  12.045  0.00  0.00    +0.000 C 
BRANCH  15  16
ATOM     16  C   UNL     1      45.040   5.713  12.362  0.00  0.00    +0.000 A 
ATOM     17  C   UNL     1      45.662   5.103  13.454  0.00  0.00    +0.000 A 
ATOM     18  C   UNL     1      46.999   5.379  13.703  0.00  0.00    +0.000 A 
ATOM     19  N   UNL     1      47.747   6.213  12.950  0.00  0.00    +0.000 NA
ATOM     20  C   UNL     1      47.128   6.798  11.904  0.00  0.00    +0.000 A 
ATOM     21  C   UNL     1      45.797   6.587  11.576  0.00  0.00    +0.000 A 
ENDBRANCH  15  16
ENDBRANCH  14  15
ENDBRANCH   5  14
TORSDOF 4
ENDMDL
MODEL 3
REMARK VINA RESULT:    -7.008      2.498      6.209
REMARK INTER + INTRA:          -9.178
REMARK INTER:                  -8.734
REMARK INTRA:                  -0.444
REMARK UNBOUND:                -0.531
REMARK  Name = 
REMARK  4 active torsions:
REMARK  status: ('A' for Active; 'I' for Inactive)
REMARK    1  A    between atoms: C_2  and  C_4
REMARK    2  A    between atoms: N_8  and  C_9
REMARK    3  A    between atoms: C_9  and  C_10
REMARK    4  A    between atoms: C_10  and  C_11
REMARK                            x       y       z     vdW  Elec       q    Type
REMARK                         _______ _______ _______ _____ _____    ______ ____
ROOT
ATOM      1  C   UNL     1      46.812   6.039  13.014  0.00  0.00    +0.000 A 
ATOM      2  C   UNL     1      45.966   5.135  13.643  0.00  0.00    +0.000 A 
ATOM      3  C   UNL     1      44.964   4.508  12.893  0.00  0.00    +0.000 A 
ATOM      4  C   UNL     1      44.857   4.759  11.524  0.00  0.00    +0.000 A 
ATOM      5  N   UNL     1      43.808   4.157  10.803  0.00  0.00    +0.000 N 
ATOM      6  N   UNL     1      45.676   5.639  10.912  0.00  0.00    +0.000 NA
ATOM      7  C   UNL     1      46.614   6.275  11.663  0.00  0.00    +0.000 A 
ATOM      8  H   UNL     1      43.507   3.300  11.253  0.00  0.00    +0.000 HD
ENDROOT
BRANCH   1  10
ATOM      9  N   UNL     1      47.532   7.936  14.353  0.00  0.00    +0.000 N 
ATOM     10  C   UNL     1      47.877   6.771  13.726  0.00  0.00    +0.000 C 
ATOM     11  O   UNL     1      49.021   6.337  13.786  0.00  0.00    +0.000 OA
ATOM     12  H   UNL     1      48.248   8.369  14.921  0.00  0.00    +0.000 HD
ATOM     13  H   UNL     1      46.571   8.191  14.537  0.00  0.00    +0.000 HD
ENDBRANCH   1  10
BRANCH   5  14
ATOM     14  C   UNL     1      44.128   3.958   9.384  0.00  0.00    +0.000 C 
BRANCH  14  15
ATOM     15  C   UNL     1      44.512   2.492   9.130  0.00  0.00    +0.000 C 
BRANCH  15  16
ATOM     16  C   UNL     1      45.743   2.352   8.269  0.00  0.00    +0.000 A 
ATOM     17  C   UNL     1      46.335   3.465   7.665  0.00  0.00    +0.000 A 
ATOM     18  C   UNL     1      47.464   3.278   6.880  0.00  0.00    +0.000 A 
ATOM     19  N   UNL     1      48.033   2.075   6.655  0.00  0.00    +0.000 NA
ATOM     20  C   UNL     1      47.445   1.012   7.241  0.00  0.00    +0.000 A 
ATOM     21  C   UNL     1      46.315   1.097   8.041  0.00  0.00    +0.000 A 
ENDBRANCH  15  16
ENDBRANCH  14  15
ENDBRANCH   5  14
TORSDOF 4
ENDMDL
MODEL 4
REMARK VINA RESULT:    -6.927      2.726      6.260
REMARK INTER + INTRA:          -9.077
REMARK INTER:                  -8.721
REMARK INTRA:                  -0.356
REMARK UNBOUND:                -0.531
REMARK  Name = 
REMARK  4 active torsions:
REMARK  status: ('A' for Active; 'I' for Inactive)
REMARK    1  A    between atoms: C_2  and  C_4
REMARK    2  A    between atoms: N_8  and  C_9
REMARK    3  A    between atoms: C_9  and  C_10
REMARK    4  A    between atoms: C_10  and  C_11
REMARK                            x       y       z     vdW  Elec       q    Type
REMARK                         _______ _______ _______ _____ _____    ______ ____
ROOT
ATOM      1  C   UNL     1      46.576   4.768  14.063  0.00  0.00    +0.000 A 
ATOM      2  C   UNL     1      46.239   6.025  13.579  0.00  0.00    +0.000 A 
ATOM      3  C   UNL     1      45.743   6.141  12.275  0.00  0.00    +0.000 A 
ATOM      4  C   UNL     1      45.549   4.997  11.500  0.00  0.00    +0.000 A 
ATOM      5  N   UNL     1      45.100   5.144  10.173  0.00  0.00    +0.000 N 
ATOM      6  N   UNL     1      45.879   3.775  11.966  0.00  0.00    +0.000 NA
ATOM      7  C   UNL     1      46.403   3.684  13.218  0.00  0.00    +0.000 A 
ATOM      8  H   UNL     1      44.577   6.005  10.063  0.00  0.00    +0.000 HD
ENDROOT
BRANCH   1  10
ATOM      9  N   UNL     1      47.977   5.505  15.908  0.00  0.00    +0.000 N 
ATOM     10  C   UNL     1      47.134   4.550  15.412  0.00  0.00    +0.000 C 
ATOM     11  O   UNL     1      46.827   3.570  16.080  0.00  0.00    +0.000 OA
ATOM     12  H   UNL     1      48.267   5.391  16.870  0.00  0.00    +0.000 HD
ATOM     13  H   UNL     1      48.053   6.427  15.502  0.00  0.00    +0.000 HD
ENDBRANCH   1  10
BRANCH   5  14
ATOM     14  C   UNL     1      44.357   3.975   9.687  0.00  0.00    +0.000 C 
BRANCH  14  15
ATOM     15  C   UNL     1      44.519   3.842   8.165  0.00  0.00    +0.000 C 
BRANCH  15  16
ATOM     16  C   UNL     1      45.681   2.962   7.776  0.00  0.00    +0.000 A 
ATOM     17  C   UNL     1      46.717   3.446   6.970  0.00  0.00    +0.000 A 
ATOM     18  C   UNL     1      47.760   2.592   6.639  0.00  0.00    +0.000 A 
ATOM     19  N   UNL     1      47.840   1.308   7.046  0.00  0.00    +0.000 NA
ATOM     20  C   UNL     1      46.829   0.857   7.817  0.00  0.00    +0.000 A 
ATOM     21  C   UNL     1      45.743   1.632   8.200  0.00  0.00    +0.000 A 
ENDBRANCH  15  16
ENDBRANCH  14  15
ENDBRANCH   5  14
TORSDOF 4
ENDMDL
MODEL 5
REMARK VINA RESULT:    -5.835      3.997      6.029
REMARK INTER + INTRA:          -7.730
REMARK INTER:                  -7.475
REMARK INTRA:                  -0.255
REMARK UNBOUND:                -0.531
REMARK  Name = 
REMARK  4 active torsions:
REMARK  status: ('A' for Active; 'I' for Inactive)
REMARK    1  A    between atoms: C_2  and  C_4
REMARK    2  A    between atoms: N_8  and  C_9
REMARK    3  A    between atoms: C_9  and  C_10
REMARK    4  A    between atoms: C_10  and  C_11
REMARK                            x       y       z     vdW  Elec       q    Type
REMARK                         _______ _______ _______ _____ _____    ______ ____
ROOT
ATOM      1  C   UNL     1      45.394   4.695  11.482  0.00  0.00    +0.000 A 
ATOM      2  C   UNL     1      46.070   5.850  11.856  0.00  0.00    +0.000 A 
ATOM      3  C   UNL     1      46.636   5.922  13.135  0.00  0.00    +0.000 A 
ATOM      4  C   UNL     1      46.558   4.825  13.994  0.00  0.00    +0.000 A 
ATOM      5  N   UNL     1      47.088   4.942  15.293  0.00  0.00    +0.000 N 
ATOM      6  N   UNL     1      45.900   3.704  13.634  0.00  0.00    +0.000 NA
ATOM      7  C   UNL     1      45.316   3.666  12.407  0.00  0.00    +0.000 A 
ATOM      8  H   UNL     1      47.822   5.640  15.322  0.00  0.00    +0.000 HD
ENDROOT
BRANCH   1  10
ATOM      9  N   UNL     1      45.321   5.157   9.097  0.00  0.00    +0.000 N 
ATOM     10  C   UNL     1      44.741   4.538  10.169  0.00  0.00    +0.000 C 
ATOM     11  O   UNL     1      43.736   3.849  10.033  0.00  0.00    +0.000 OA
ATOM     12  H   UNL     1      44.920   4.954   8.191  0.00  0.00    +0.000 HD
ATOM     13  H   UNL     1      46.266   5.514   9.121  0.00  0.00    +0.000 HD
ENDBRANCH   1  10
BRANCH   5  14
ATOM     14  C   UNL     1      47.521   3.655  15.853  0.00  0.00    +0.000 C 
BRANCH  14  15
ATOM     15  C   UNL     1      48.065   3.855  17.276  0.00  0.00    +0.000 C 
BRANCH  15  16
ATOM     16  C   UNL     1      49.495   3.396  17.424  0.00  0.00    +0.000 A 
ATOM     17  C   UNL     1      50.499   4.278  17.835  0.00  0.00    +0.000 A 
ATOM     18  C   UNL     1      51.798   3.804  17.950  0.00  0.00    +0.000 A 
ATOM     19  N   UNL     1      52.161   2.531  17.686  0.00  0.00    +0.000 NA
ATOM     20  C   UNL     1      51.180   1.697  17.284  0.00  0.00    +0.000 A 
ATOM     21  C   UNL     1      49.854   2.076  17.136  0.00  0.00    +0.000 A 
ENDBRANCH  15  16
ENDBRANCH  14  15
ENDBRANCH   5  14
TORSDOF 4
ENDMDL
MODEL 6
REMARK VINA RESULT:    -5.665      3.911      5.781
REMARK INTER + INTRA:          -7.520
REMARK INTER:                  -7.213
REMARK INTRA:                  -0.308
REMARK UNBOUND:                -0.531
REMARK  Name = 
REMARK  4 active torsions:
REMARK  status: ('A' for Active; 'I' for Inactive)
REMARK    1  A    between atoms: C_2  and  C_4
REMARK    2  A    between atoms: N_8  and  C_9
REMARK    3  A    between atoms: C_9  and  C_10
REMARK    4  A    between atoms: C_10  and  C_11
REMARK                            x       y       z     vdW  Elec       q    Type
REMARK                         _______ _______ _______ _____ _____    ______ ____
ROOT
ATOM      1  C   UNL     1      45.078   4.293  11.429  0.00  0.00    +0.000 A 
ATOM      2  C   UNL     1      45.530   5.587  11.650  0.00  0.00    +0.000 A 
ATOM      3  C   UNL     1      46.153   5.891  12.867  0.00  0.00    +0.000 A 
ATOM      4  C   UNL     1      46.355   4.888  13.815  0.00  0.00    +0.000 A 
ATOM      5  N   UNL     1      46.934   5.230  15.052  0.00  0.00    +0.000 N 
ATOM      6  N   UNL     1      45.913   3.631  13.604  0.00  0.00    +0.000 NA
ATOM      7  C   UNL     1      45.269   3.362  12.438  0.00  0.00    +0.000 A 
ATOM      8  H   UNL     1      47.514   6.057  14.962  0.00  0.00    +0.000 HD
ENDROOT
BRANCH   1  10
ATOM      9  N   UNL     1      44.439   4.740   9.127  0.00  0.00    +0.000 N 
ATOM     10  C   UNL     1      44.384   3.885  10.193  0.00  0.00    +0.000 C 
ATOM     11  O   UNL     1      43.809   2.806  10.107  0.00  0.00    +0.000 OA
ATOM     12  H   UNL     1      44.048   4.400   8.259  0.00  0.00    +0.000 HD
ATOM     13  H   UNL     1      45.100   5.503   9.075  0.00  0.00    +0.000 HD
ENDBRANCH   1  10
BRANCH   5  14
ATOM     14  C   UNL     1      47.654   4.112  15.676  0.00  0.00    +0.000 C 
BRANCH  14  15
ATOM     15  C   UNL     1      47.063   3.813  17.062  0.00  0.00    +0.000 C 
BRANCH  15  16
ATOM     16  C   UNL     1      47.744   4.582  18.167  0.00  0.00    +0.000 A 
ATOM     17  C   UNL     1      47.123   5.676  18.777  0.00  0.00    +0.000 A 
ATOM     18  C   UNL     1      47.797   6.351  19.785  0.00  0.00    +0.000 A 
ATOM     19  N   UNL     1      49.031   6.019  20.218  0.00  0.00    +0.000 NA
ATOM     20  C   UNL     1      49.618   4.965  19.613  0.00  0.00    +0.000 A 
ATOM     21  C   UNL     1      49.027   4.229  18.597  0.00  0.00    +0.000 A 
ENDBRANCH  15  16
ENDBRANCH  14  15
ENDBRANCH   5  14
TORSDOF 4
ENDMDL
MODEL 7
REMARK VINA RESULT:    -5.438      3.322      5.399
REMARK INTER + INTRA:          -7.240
REMARK INTER:                  -6.860
REMARK INTRA:                  -0.380
REMARK UNBOUND:                -0.531
REMARK  Name = 
REMARK  4 active torsions:
REMARK  status: ('A' for Active; 'I' for Inactive)
REMARK    1  A    between atoms: C_2  and  C_4
REMARK    2  A    between atoms: N_8  and  C_9
REMARK    3  A    between atoms: C_9  and  C_10
REMARK    4  A    between atoms: C_10  and  C_11
REMARK                            x       y       z     vdW  Elec       q    Type
REMARK                         _______ _______ _______ _____ _____    ______ ____
ROOT
ATOM      1  C   UNL     1      44.957   4.265  11.787  0.00  0.00    +0.000 A 
ATOM      2  C   UNL     1      44.808   5.618  11.510  0.00  0.00    +0.000 A 
ATOM      3  C   UNL     1      45.571   6.546  12.228  0.00  0.00    +0.000 A 
ATOM      4  C   UNL     1      46.499   6.104  13.171  0.00  0.00    +0.000 A 
ATOM      5  N   UNL     1      47.215   7.059  13.918  0.00  0.00    +0.000 N 
ATOM      6  N   UNL     1      46.643   4.791  13.445  0.00  0.00    +0.000 NA
ATOM      7  C   UNL     1      45.862   3.904  12.772  0.00  0.00    +0.000 A 
ATOM      8  H   UNL     1      47.288   7.934  13.410  0.00  0.00    +0.000 HD
ENDROOT
BRANCH   1  10
ATOM      9  N   UNL     1      44.829   2.440  10.187  0.00  0.00    +0.000 N 
ATOM     10  C   UNL     1      44.176   3.215  11.105  0.00  0.00    +0.000 C 
ATOM     11  O   UNL     1      42.997   3.018  11.373  0.00  0.00    +0.000 OA
ATOM     12  H   UNL     1      44.308   1.661   9.806  0.00  0.00    +0.000 HD
ATOM     13  H   UNL     1      45.837   2.403  10.124  0.00  0.00    +0.000 HD
ENDBRANCH   1  10
BRANCH   5  14
ATOM     14  C   UNL     1      48.523   6.569  14.372  0.00  0.00    +0.000 C 
BRANCH  14  15
ATOM     15  C   UNL     1      48.650   6.735  15.894  0.00  0.00    +0.000 C 
BRANCH  15  16
ATOM     16  C   UNL     1      48.784   5.417  16.616  0.00  0.00    +0.000 A 
ATOM     17  C   UNL     1      49.986   5.044  17.225  0.00  0.00    +0.000 A 
ATOM     18  C   UNL     1      50.055   3.818  17.872  0.00  0.00    +0.000 A 
ATOM     19  N   UNL     1      49.026   2.949  17.950  0.00  0.00    +0.000 NA
ATOM     20  C   UNL     1      47.876   3.323  17.350  0.00  0.00    +0.000 A 
ATOM     21  C   UNL     1      47.709   4.525  16.679  0.00  0.00    +0.000 A 
ENDBRANCH  15  16
ENDBRANCH  14  15
ENDBRANCH   5  14
TORSDOF 4
ENDMDL
MODEL 8
REMARK VINA RESULT:    -5.230      2.598      4.056
REMARK INTER + INTRA:          -6.984
REMARK INTER:                  -6.534
REMARK INTRA:                  -0.451
REMARK UNBOUND:                -0.531
REMARK  Name = 
REMARK  4 active torsions:
REMARK  status: ('A' for Active; 'I' for Inactive)
REMARK    1  A    between atoms: C_2  and  C_4
REMARK    2  A    between atoms: N_8  and  C_9
REMARK    3  A    between atoms: C_9  and  C_10
REMARK    4  A    between atoms: C_10  and  C_11
REMARK                            x       y       z     vdW  Elec       q    Type
REMARK                         _______ _______ _______ _____ _____    ______ ____
ROOT
ATOM      1  C   UNL     1      44.660   4.031   9.757  0.00  0.00    +0.000 A 
ATOM      2  C   UNL     1      43.674   4.022  10.736  0.00  0.00    +0.000 A 
ATOM      3  C   UNL     1      43.649   5.051  11.684  0.00  0.00    +0.000 A 
ATOM      4  C   UNL     1      44.575   6.091  11.608  0.00  0.00    +0.000 A 
ATOM      5  N   UNL     1      44.563   7.086  12.605  0.00  0.00    +0.000 N 
ATOM      6  N   UNL     1      45.535   6.101  10.660  0.00  0.00    +0.000 NA
ATOM      7  C   UNL     1      45.576   5.070   9.775  0.00  0.00    +0.000 A 
ATOM      8  H   UNL     1      43.641   7.170  13.019  0.00  0.00    +0.000 HD
ENDROOT
BRANCH   1  10
ATOM      9  N   UNL     1      45.279   3.336   7.511  0.00  0.00    +0.000 N 
ATOM     10  C   UNL     1      44.785   2.975   8.734  0.00  0.00    +0.000 C 
ATOM     11  O   UNL     1      44.493   1.810   8.978  0.00  0.00    +0.000 OA
ATOM     12  H   UNL     1      45.455   2.584   6.859  0.00  0.00    +0.000 HD
ATOM     13  H   UNL     1      45.758   4.212   7.355  0.00  0.00    +0.000 HD
ENDBRANCH   1  10
BRANCH   5  14
ATOM     14  C   UNL     1      45.080   8.377  12.133  0.00  0.00    +0.000 C 
BRANCH  14  15
ATOM     15  C   UNL     1      46.174   8.886  13.084  0.00  0.00    +0.000 C 
BRANCH  15  16
ATOM     16  C   UNL     1      47.555   8.811  12.480  0.00  0.00    +0.000 A 
ATOM     17  C   UNL     1      48.256   7.603  12.425  0.00  0.00    +0.000 A 
ATOM     18  C   UNL     1      49.525   7.591  11.863  0.00  0.00    +0.000 A 
ATOM     19  N   UNL     1      50.136   8.685  11.361  0.00  0.00    +0.000 NA
ATOM     20  C   UNL     1      49.447   9.843  11.429  0.00  0.00    +0.000 A 
ATOM     21  C   UNL     1      48.176   9.956  11.973  0.00  0.00    +0.000 A 
ENDBRANCH  15  16
ENDBRANCH  14  15
ENDBRANCH   5  14
TORSDOF 4
ENDMDL
MODEL 9
REMARK VINA RESULT:    -5.178      3.863      7.252
REMARK INTER + INTRA:          -6.920
REMARK INTER:                  -6.658
REMARK INTRA:                  -0.262
REMARK UNBOUND:                -0.531
REMARK  Name = 
REMARK  4 active torsions:
REMARK  status: ('A' for Active; 'I' for Inactive)
REMARK    1  A    between atoms: C_2  and  C_4
REMARK    2  A    between atoms: N_8  and  C_9
REMARK    3  A    between atoms: C_9  and  C_10
REMARK    4  A    between atoms: C_10  and  C_11
REMARK                            x       y       z     vdW  Elec       q    Type
REMARK                         _______ _______ _______ _____ _____    ______ ____
ROOT
ATOM      1  C   UNL     1      48.399   4.823  16.675  0.00  0.00    +0.000 A 
ATOM      2  C   UNL     1      48.931   6.027  16.230  0.00  0.00    +0.000 A 
ATOM      3  C   UNL     1      48.549   6.516  14.975  0.00  0.00    +0.000 A 
ATOM      4  C   UNL     1      47.610   5.820  14.213  0.00  0.00    +0.000 A 
ATOM      5  N   UNL     1      47.283   6.304  12.931  0.00  0.00    +0.000 N 
ATOM      6  N   UNL     1      47.095   4.649  14.641  0.00  0.00    +0.000 NA
ATOM      7  C   UNL     1      47.511   4.163  15.841  0.00  0.00    +0.000 A 
ATOM      8  H   UNL     1      47.439   7.304  12.873  0.00  0.00    +0.000 HD
ENDROOT
BRANCH   1  10
ATOM      9  N   UNL     1      49.890   3.439  18.005  0.00  0.00    +0.000 N 
ATOM     10  C   UNL     1      48.764   4.214  17.968  0.00  0.00    +0.000 C 
ATOM     11  O   UNL     1      48.106   4.420  18.981  0.00  0.00    +0.000 OA
ATOM     12  H   UNL     1      50.181   3.115  18.918  0.00  0.00    +0.000 HD
ATOM     13  H   UNL     1      50.583   3.451  17.270  0.00  0.00    +0.000 HD
ENDBRANCH   1  10
BRANCH   5  14
ATOM     14  C   UNL     1      45.930   5.927  12.505  0.00  0.00    +0.000 C 
BRANCH  14  15
ATOM     15  C   UNL     1      45.774   6.142  10.992  0.00  0.00    +0.000 C 
BRANCH  15  16
ATOM     16  C   UNL     1      45.307   4.903  10.270  0.00  0.00    +0.000 A 
ATOM     17  C   UNL     1      45.598   4.700   8.917  0.00  0.00    +0.000 A 
ATOM     18  C   UNL     1      45.140   3.544   8.301  0.00  0.00    +0.000 A 
ATOM     19  N   UNL     1      44.420   2.591   8.930  0.00  0.00    +0.000 NA
ATOM     20  C   UNL     1      44.143   2.807  10.232  0.00  0.00    +0.000 A 
ATOM     21  C   UNL     1      44.555   3.930  10.934  0.00  0.00    +0.000 A 
ENDBRANCH  15  16
ENDBRANCH  14  15
ENDBRANCH   5  14
TORSDOF 4
ENDMDL
