MODEL 1
REMARK VINA RESULT:    -8.593      0.000      0.000
REMARK INTER + INTRA:         -12.145
REMARK INTER:                 -11.105
REMARK INTRA:                  -1.040
REMARK UNBOUND:                -1.040
REMARK  Name = 
REMARK  7 active torsions:
REMARK  status: ('A' for Active; 'I' for Inactive)
REMARK    1  A    between atoms: C_1  and  C_2
REMARK    2  A    between atoms: C_2  and  C_3
REMARK    3  A    between atoms: C_2  and  C_4
REMARK    4  A    between atoms: C_2  and  C_18
REMARK    5  A    between atoms: C_5  and  C_6
REMARK    6  A    between atoms: C_10  and  C_11
REMARK    7  A    between atoms: C_21  and  C_22
REMARK                            x       y       z     vdW  Elec       q    Type
REMARK                         _______ _______ _______ _____ _____    ______ ____
ROOT
ATOM      1  C   UNL     1      43.395   2.885  11.497  0.00  0.00    +0.000 C 
ATOM      2  C   UNL     1      44.236   4.068  10.954  0.00  0.00    +0.000 C 
ATOM      3  C   UNL     1      43.256   5.228  10.652  0.00  0.00    +0.000 C 
ENDROOT
BRANCH   2   4
ATOM      4  C   UNL     1      44.984   3.578   9.701  0.00  0.00    +0.000 A 
ATOM      5  C   UNL     1      45.474   4.495   8.755  0.00  0.00    +0.000 A 
ATOM      6  C   UNL     1      46.209   4.058   7.654  0.00  0.00    +0.000 A 
ATOM      7  C   UNL     1      46.440   2.700   7.520  0.00  0.00    +0.000 A 
ATOM      8  N   UNL     1      45.979   1.766   8.395  0.00  0.00    +0.000 NA
ATOM      9  C   UNL     1      45.268   2.232   9.451  0.00  0.00    +0.000 A 
BRANCH   7  10
ATOM     10  C   UNL     1      47.261   2.197   6.374  0.00  0.00    +0.000 C 
ATOM     11  N   UNL     1      47.267   2.994   5.259  0.00  0.00    +0.000 N 
ATOM     12  O   UNL     1      47.882   1.142   6.414  0.00  0.00    +0.000 OA
ATOM     13  H   UNL     1      46.716   3.846   5.260  0.00  0.00    +0.000 HD
ATOM     14  H   UNL     1      47.772   2.703   4.440  0.00  0.00    +0.000 HD
ENDBRANCH   7  10
ENDBRANCH   2   4
BRANCH   2  15
ATOM     15  C   UNL     1      45.220   4.594  12.003  0.00  0.00    +0.000 C 
ATOM     16  C   UNL     1      45.850   5.783  11.982  0.00  0.00    +0.000 C 
BRANCH  16  17
ATOM     17  C   UNL     1      46.800   6.175  13.020  0.00  0.00    +0.000 A 
ATOM     18  C   UNL     1      47.376   7.440  13.010  0.00  0.00    +0.000 A 
ATOM     19  C   UNL     1      48.284   7.802  14.002  0.00  0.00    +0.000 A 
ATOM     20  C   UNL     1      48.586   6.909  15.032  0.00  0.00    +0.000 A 
ATOM     21  C   UNL     1      47.982   5.643  15.095  0.00  0.00    +0.000 A 
ATOM     22  C   UNL     1      47.112   5.279  14.051  0.00  0.00    +0.000 A 
BRANCH  21  23
ATOM     23  C   UNL     1      48.212   4.753  16.248  0.00  0.00    +0.000 A 
ATOM     24  C   UNL     1      47.310   3.754  16.613  0.00  0.00    +0.000 A 
ATOM     25  C   UNL     1      47.544   3.014  17.763  0.00  0.00    +0.000 A 
ATOM     26  C   UNL     1      48.671   3.284  18.531  0.00  0.00    +0.000 A 
ATOM     27  C   UNL     1      49.527   4.282  18.099  0.00  0.00    +0.000 A 
ATOM     28  N   UNL     1      49.328   5.014  16.982  0.00  0.00    +0.000 NA
ENDBRANCH  21  23
ENDBRANCH  16  17
ENDBRANCH   2  15
TORSDOF 5
ENDMDL
MODEL 2
REMARK VINA RESULT:    -7.415      3.621      8.803
REMARK INTER + INTRA:         -10.622
REMARK INTER:                  -9.556
REMARK INTRA:                  -1.066
REMARK UNBOUND:                -1.040
REMARK  Name = 
REMARK  7 active torsions:
REMARK  status: ('A' for Active; 'I' for Inactive)
REMARK    1  A    between atoms: C_1  and  C_2
REMARK    2  A    between atoms: C_2  and  C_3
REMARK    3  A    between atoms: C_2  and  C_4
REMARK    4  A    between atoms: C_2  and  C_18
REMARK    5  A    between atoms: C_5  and  C_6
REMARK    6  A    between atoms: C_10  and  C_11
REMARK    7  A    between atoms: C_21  and  C_22
REMARK                            x       y       z     vdW  Elec       q    Type
REMARK                         _______ _______ _______ _____ _____    ______ ____
ROOT
ATOM      1  C   UNL     1      50.071   8.069  11.782  0.00  0.00    +0.000 C 
ATOM      2  C   UNL     1      48.642   8.328  12.319  0.00  0.00    +0.000 C 
ATOM      3  C   UNL     1      48.223   9.742  11.847  0.00  0.00    +0.000 C 
ENDROOT
BRANCH   2   4
ATOM      4  C   UNL     1      48.684   8.200  13.853  0.00  0.00    +0.000 A 
ATOM      5  C   UNL     1      48.356   9.295  14.672  0.00  0.00    +0.000 A 
ATOM      6  C   UNL     1      48.329   9.162  16.059  0.00  0.00    +0.000 A 
ATOM      7  C   UNL     1      48.636   7.927  16.603  0.00  0.00    +0.000 A 
ATOM      8  N   UNL     1      48.975   6.839  15.862  0.00  0.00    +0.000 NA
ATOM      9  C   UNL     1      48.991   7.009  14.517  0.00  0.00    +0.000 A 
BRANCH   7  10
ATOM     10  C   UNL     1      48.577   7.735  18.087  0.00  0.00    +0.000 C 
ATOM     11  N   UNL     1      47.480   7.057  18.549  0.00  0.00    +0.000 N 
ATOM     12  O   UNL     1      49.438   8.160  18.847  0.00  0.00    +0.000 OA
ATOM     13  H   UNL     1      46.777   6.747  17.887  0.00  0.00    +0.000 HD
ATOM     14  H   UNL     1      47.358   6.918  19.538  0.00  0.00    +0.000 HD
ENDBRANCH   7  10
ENDBRANCH   2   4
BRANCH   2  15
ATOM     15  C   UNL     1      47.624   7.353  11.720  0.00  0.00    +0.000 C 
ATOM     16  C   UNL     1      46.286   7.416  11.848  0.00  0.00    +0.000 C 
BRANCH  16  17
ATOM     17  C   UNL     1      45.402   6.411  11.263  0.00  0.00    +0.000 A 
ATOM     18  C   UNL     1      44.049   6.391  11.576  0.00  0.00    +0.000 A 
ATOM     19  C   UNL     1      43.216   5.425  11.016  0.00  0.00    +0.000 A 
ATOM     20  C   UNL     1      43.733   4.500  10.107  0.00  0.00    +0.000 A 
ATOM     21  C   UNL     1      45.087   4.527   9.735  0.00  0.00    +0.000 A 
ATOM     22  C   UNL     1      45.919   5.475  10.357  0.00  0.00    +0.000 A 
BRANCH  21  23
ATOM     23  C   UNL     1      45.600   3.627   8.686  0.00  0.00    +0.000 A 
ATOM     24  C   UNL     1      45.682   2.246   8.859  0.00  0.00    +0.000 A 
ATOM     25  C   UNL     1      46.262   1.469   7.866  0.00  0.00    +0.000 A 
ATOM     26  C   UNL     1      46.751   2.082   6.718  0.00  0.00    +0.000 A 
ATOM     27  C   UNL     1      46.623   3.456   6.611  0.00  0.00    +0.000 A 
ATOM     28  N   UNL     1      46.060   4.236   7.559  0.00  0.00    +0.000 NA
ENDBRANCH  21  23
ENDBRANCH  16  17
ENDBRANCH   2  15
TORSDOF 5
ENDMDL
MODEL 3
REMARK VINA RESULT:    -7.339      2.988      8.608
REMARK INTER + INTRA:         -10.525
REMARK INTER:                  -9.472
REMARK INTRA:                  -1.053
REMARK UNBOUND:                -1.040
REMARK  Name = 
REMARK  7 active torsions:
REMARK  status: ('A' for Active; 'I' for Inactive)
REMARK    1  A    between atoms: C_1  and  C_2
REMARK    2  A    between atoms: C_2  and  C_3
REMARK    3  A    between atoms: C_2  and  C_4
REMARK    4  A    between atoms: C_2  and  C_18
REMARK    5  A    between atoms: C_5  and  C_6
REMARK    6  A    between atoms: C_10  and  C_11
REMARK    7  A    between atoms: C_21  and  C_22
REMARK                            x       y       z     vdW  Elec       q    Type
REMARK                         _______ _______ _______ _____ _____    ______ ____
ROOT
ATOM      1  C   UNL     1      49.597   7.686  13.025  0.00  0.00    +0.000 C 
ATOM      2  C   UNL     1      48.279   7.381  13.781  0.00  0.00    +0.000 C 
ATOM      3  C   UNL     1      47.594   8.737  14.078  0.00  0.00    +0.000 C 
ENDROOT
BRANCH   2   4
ATOM      4  C   UNL     1      48.640   6.602  15.059  0.00  0.00    +0.000 A 
ATOM      5  C   UNL     1      47.853   5.516  15.482  0.00  0.00    +0.000 A 
ATOM      6  C   UNL     1      48.215   4.768  16.601  0.00  0.00    +0.000 A 
ATOM      7  C   UNL     1      49.365   5.126  17.281  0.00  0.00    +0.000 A 
ATOM      8  N   UNL     1      50.157   6.174  16.928  0.00  0.00    +0.000 NA
ATOM      9  C   UNL     1      49.770   6.877  15.834  0.00  0.00    +0.000 A 
BRANCH   7  10
ATOM     10  C   UNL     1      49.809   4.320  18.462  0.00  0.00    +0.000 C 
ATOM     11  N   UNL     1      49.317   3.042  18.522  0.00  0.00    +0.000 N 
ATOM     12  O   UNL     1      50.552   4.764  19.329  0.00  0.00    +0.000 OA
ATOM     13  H   UNL     1      48.683   2.724  17.797  0.00  0.00    +0.000 HD
ATOM     14  H   UNL     1      49.548   2.454  19.304  0.00  0.00    +0.000 HD
ENDBRANCH   7  10
ENDBRANCH   2   4
BRANCH   2  15
ATOM     15  C   UNL     1      47.300   6.582  12.916  0.00  0.00    +0.000 C 
ATOM     16  C   UNL     1      46.026   6.914  12.637  0.00  0.00    +0.000 C 
BRANCH  16  17
ATOM     17  C   UNL     1      45.162   6.060  11.825  0.00  0.00    +0.000 A 
ATOM     18  C   UNL     1      43.782   6.100  11.981  0.00  0.00    +0.000 A 
ATOM     19  C   UNL     1      42.968   5.278  11.205  0.00  0.00    +0.000 A 
ATOM     20  C   UNL     1      43.535   4.444  10.240  0.00  0.00    +0.000 A 
ATOM     21  C   UNL     1      44.923   4.419  10.027  0.00  0.00    +0.000 A 
ATOM     22  C   UNL     1      45.728   5.215  10.862  0.00  0.00    +0.000 A 
BRANCH  21  23
ATOM     23  C   UNL     1      45.505   3.628   8.928  0.00  0.00    +0.000 A 
ATOM     24  C   UNL     1      45.588   2.237   8.969  0.00  0.00    +0.000 A 
ATOM     25  C   UNL     1      46.231   1.563   7.941  0.00  0.00    +0.000 A 
ATOM     26  C   UNL     1      46.783   2.287   6.890  0.00  0.00    +0.000 A 
ATOM     27  C   UNL     1      46.650   3.664   6.911  0.00  0.00    +0.000 A 
ATOM     28  N   UNL     1      46.025   4.346   7.895  0.00  0.00    +0.000 NA
ENDBRANCH  21  23
ENDBRANCH  16  17
ENDBRANCH   2  15
TORSDOF 5
ENDMDL
MODEL 4
REMARK VINA RESULT:    -7.327      1.714      2.157
REMARK INTER + INTRA:         -10.509
REMARK INTER:                  -9.519
REMARK INTRA:                  -0.989
REMARK UNBOUND:                -1.040
REMARK  Name = 
REMARK  7 active torsions:
REMARK  status: ('A' for Active; 'I' for Inactive)
REMARK    1  A    between atoms: C_1  and  C_2
REMARK    2  A    between atoms: C_2  and  C_3
REMARK    3  A    between atoms: C_2  and  C_4
REMARK    4  A    between atoms: C_2  and  C_18
REMARK    5  A    between atoms: C_5  and  C_6
REMARK    6  A    between atoms: C_10  and  C_11
REMARK    7  A    between atoms: C_21  and  C_22
REMARK                            x       y       z     vdW  Elec       q    Type
REMARK                         _______ _______ _______ _____ _____    ______ ____
ROOT
ATOM      1  C   UNL     1      44.286   3.145  11.945  0.00  0.00    +0.000 C 
ATOM      2  C   UNL     1      44.516   4.391  11.054  0.00  0.00    +0.000 C 
ATOM      3  C   UNL     1      43.126   4.995  10.740  0.00  0.00    +0.000 C 
ENDROOT
BRANCH   2   4
ATOM      4  C   UNL     1      45.267   3.934   9.790  0.00  0.00    +0.000 A 
ATOM      5  C   UNL     1      45.356   2.569   9.465  0.00  0.00    +0.000 A 
ATOM      6  C   UNL     1      45.978   2.158   8.287  0.00  0.00    +0.000 A 
ATOM      7  C   UNL     1      46.504   3.128   7.453  0.00  0.00    +0.000 A 
ATOM      8  N   UNL     1      46.460   4.461   7.722  0.00  0.00    +0.000 NA
ATOM      9  C   UNL     1      45.848   4.820   8.878  0.00  0.00    +0.000 A 
BRANCH   7  10
ATOM     10  C   UNL     1      47.142   2.728   6.159  0.00  0.00    +0.000 C 
ATOM     11  N   UNL     1      48.487   2.474   6.219  0.00  0.00    +0.000 N 
ATOM     12  O   UNL     1      46.517   2.639   5.109  0.00  0.00    +0.000 OA
ATOM     13  H   UNL     1      48.970   2.586   7.104  0.00  0.00    +0.000 HD
ATOM     14  H   UNL     1      48.987   2.230   5.382  0.00  0.00    +0.000 HD
ENDBRANCH   7  10
ENDBRANCH   2   4
BRANCH   2  15
ATOM     15  C   UNL     1      45.304   5.478  11.791  0.00  0.00    +0.000 C 
ATOM     16  C   UNL     1      46.331   5.285  12.638  0.00  0.00    +0.000 C 
BRANCH  16  17
ATOM     17  C   UNL     1      46.995   6.394  13.318  0.00  0.00    +0.000 A 
ATOM     18  C   UNL     1      46.750   7.706  12.934  0.00  0.00    +0.000 A 
ATOM     19  C   UNL     1      47.393   8.757  13.586  0.00  0.00    +0.000 A 
ATOM     20  C   UNL     1      48.252   8.494  14.655  0.00  0.00    +0.000 A 
ATOM     21  C   UNL     1      48.480   7.181  15.096  0.00  0.00    +0.000 A 
ATOM     22  C   UNL     1      47.865   6.134  14.386  0.00  0.00    +0.000 A 
BRANCH  21  23
ATOM     23  C   UNL     1      49.291   6.918  16.299  0.00  0.00    +0.000 A 
ATOM     24  C   UNL     1      49.342   7.803  17.376  0.00  0.00    +0.000 A 
ATOM     25  C   UNL     1      50.198   7.538  18.435  0.00  0.00    +0.000 A 
ATOM     26  C   UNL     1      50.990   6.396  18.403  0.00  0.00    +0.000 A 
ATOM     27  C   UNL     1      50.877   5.558  17.307  0.00  0.00    +0.000 A 
ATOM     28  N   UNL     1      50.049   5.788  16.265  0.00  0.00    +0.000 NA
ENDBRANCH  21  23
ENDBRANCH  16  17
ENDBRANCH   2  15
TORSDOF 5
ENDMDL
MODEL 5
REMARK VINA RESULT:    -7.243      4.115      7.889
REMARK INTER + INTRA:         -10.401
REMARK INTER:                  -9.353
REMARK INTRA:                  -1.047
REMARK UNBOUND:                -1.040
REMARK  Name = 
REMARK  7 active torsions:
REMARK  status: ('A' for Active; 'I' for Inactive)
REMARK    1  A    between atoms: C_1  and  C_2
REMARK    2  A    between atoms: C_2  and  C_3
REMARK    3  A    between atoms: C_2  and  C_4
REMARK    4  A    between atoms: C_2  and  C_18
REMARK    5  A    between atoms: C_5  and  C_6
REMARK    6  A    between atoms: C_10  and  C_11
REMARK    7  A    between atoms: C_21  and  C_22
REMARK                            x       y       z     vdW  Elec       q    Type
REMARK                         _______ _______ _______ _____ _____    ______ ____
ROOT
ATOM      1  C   UNL     1      46.947  10.167  12.133  0.00  0.00    +0.000 C 
ATOM      2  C   UNL     1      47.658   8.844  12.515  0.00  0.00    +0.000 C 
ATOM      3  C   UNL     1      47.683   8.766  14.061  0.00  0.00    +0.000 C 
ENDROOT
BRANCH   2   4
ATOM      4  C   UNL     1      49.067   8.871  11.896  0.00  0.00    +0.000 A 
ATOM      5  C   UNL     1      49.762   7.674  11.646  0.00  0.00    +0.000 A 
ATOM      6  C   UNL     1      51.010   7.693  11.025  0.00  0.00    +0.000 A 
ATOM      7  C   UNL     1      51.542   8.919  10.665  0.00  0.00    +0.000 A 
ATOM      8  N   UNL     1      50.923  10.108  10.894  0.00  0.00    +0.000 NA
ATOM      9  C   UNL     1      49.712  10.047  11.501  0.00  0.00    +0.000 A 
BRANCH   7  10
ATOM     10  C   UNL     1      52.860   8.975   9.958  0.00  0.00    +0.000 C 
ATOM     11  N   UNL     1      53.057   8.014   9.001  0.00  0.00    +0.000 N 
ATOM     12  O   UNL     1      53.717   9.812  10.214  0.00  0.00    +0.000 OA
ATOM     13  H   UNL     1      52.332   7.323   8.840  0.00  0.00    +0.000 HD
ATOM     14  H   UNL     1      53.932   7.972   8.507  0.00  0.00    +0.000 HD
ENDBRANCH   7  10
ENDBRANCH   2   4
BRANCH   2  15
ATOM     15  C   UNL     1      46.875   7.619  12.032  0.00  0.00    +0.000 C 
ATOM     16  C   UNL     1      45.566   7.579  11.721  0.00  0.00    +0.000 C 
BRANCH  16  17
ATOM     17  C   UNL     1      44.907   6.346  11.302  0.00  0.00    +0.000 A 
ATOM     18  C   UNL     1      43.649   6.015  11.791  0.00  0.00    +0.000 A 
ATOM     19  C   UNL     1      43.031   4.833  11.388  0.00  0.00    +0.000 A 
ATOM     20  C   UNL     1      43.657   4.000  10.459  0.00  0.00    +0.000 A 
ATOM     21  C   UNL     1      44.906   4.333   9.910  0.00  0.00    +0.000 A 
ATOM     22  C   UNL     1      45.535   5.502  10.376  0.00  0.00    +0.000 A 
BRANCH  21  23
ATOM     23  C   UNL     1      45.505   3.513   8.842  0.00  0.00    +0.000 A 
ATOM     24  C   UNL     1      45.546   2.120   8.902  0.00  0.00    +0.000 A 
ATOM     25  C   UNL     1      46.208   1.416   7.906  0.00  0.00    +0.000 A 
ATOM     26  C   UNL     1      46.819   2.111   6.869  0.00  0.00    +0.000 A 
ATOM     27  C   UNL     1      46.726   3.492   6.870  0.00  0.00    +0.000 A 
ATOM     28  N   UNL     1      46.085   4.203   7.822  0.00  0.00    +0.000 NA
ENDBRANCH  21  23
ENDBRANCH  16  17
ENDBRANCH   2  15
TORSDOF 5
ENDMDL
MODEL 6
REMARK VINA RESULT:    -7.166      2.660      4.502
REMARK INTER + INTRA:         -10.301
REMARK INTER:                  -9.530
REMARK INTRA:                  -0.771
REMARK UNBOUND:                -1.040
REMARK  Name = 
REMARK  7 active torsions:
REMARK  status: ('A' for Active; 'I' for Inactive)
REMARK    1  A    between atoms: C_1  and  C_2
REMARK    2  A    between atoms: C_2  and  C_3
REMARK    3  A    between atoms: C_2  and  C_4
REMARK    4  A    between atoms: C_2  and  C_18
REMARK    5  A    between atoms: C_5  and  C_6
REMARK    6  A    between atoms: C_10  and  C_11
REMARK    7  A    between atoms: C_21  and  C_22
REMARK                            x       y       z     vdW  Elec       q    Type
REMARK                         _______ _______ _______ _____ _____    ______ ____
ROOT
ATOM      1  C   UNL     1      43.800   3.239  11.833  0.00  0.00    +0.000 C 
ATOM      2  C   UNL     1      44.457   4.380  11.017  0.00  0.00    +0.000 C 
ATOM      3  C   UNL     1      43.349   5.414  10.698  0.00  0.00    +0.000 C 
ENDROOT
BRANCH   2   4
ATOM      4  C   UNL     1      45.075   3.758   9.751  0.00  0.00    +0.000 A 
ATOM      5  C   UNL     1      45.586   4.576   8.728  0.00  0.00    +0.000 A 
ATOM      6  C   UNL     1      46.206   4.016   7.612  0.00  0.00    +0.000 A 
ATOM      7  C   UNL     1      46.300   2.637   7.541  0.00  0.00    +0.000 A 
ATOM      8  N   UNL     1      45.812   1.796   8.492  0.00  0.00    +0.000 NA
ATOM      9  C   UNL     1      45.216   2.380   9.561  0.00  0.00    +0.000 A 
BRANCH   7  10
ATOM     10  C   UNL     1      46.997   2.001   6.379  0.00  0.00    +0.000 C 
ATOM     11  N   UNL     1      47.348   2.853   5.365  0.00  0.00    +0.000 N 
ATOM     12  O   UNL     1      47.233   0.801   6.321  0.00  0.00    +0.000 OA
ATOM     13  H   UNL     1      47.108   3.835   5.441  0.00  0.00    +0.000 HD
ATOM     14  H   UNL     1      47.791   2.490   4.538  0.00  0.00    +0.000 HD
ENDBRANCH   7  10
ENDBRANCH   2   4
BRANCH   2  15
ATOM     15  C   UNL     1      45.520   5.123  11.832  0.00  0.00    +0.000 C 
ATOM     16  C   UNL     1      46.258   6.169  11.417  0.00  0.00    +0.000 C 
BRANCH  16  17
ATOM     17  C   UNL     1      47.274   6.785  12.266  0.00  0.00    +0.000 A 
ATOM     18  C   UNL     1      47.308   6.526  13.631  0.00  0.00    +0.000 A 
ATOM     19  C   UNL     1      48.278   7.123  14.432  0.00  0.00    +0.000 A 
ATOM     20  C   UNL     1      49.245   7.951  13.857  0.00  0.00    +0.000 A 
ATOM     21  C   UNL     1      49.265   8.192  12.475  0.00  0.00    +0.000 A 
ATOM     22  C   UNL     1      48.241   7.624  11.695  0.00  0.00    +0.000 A 
BRANCH  21  23
ATOM     23  C   UNL     1      50.357   8.968  11.859  0.00  0.00    +0.000 A 
ATOM     24  C   UNL     1      51.470   8.362  11.278  0.00  0.00    +0.000 A 
ATOM     25  C   UNL     1      52.504   9.154  10.800  0.00  0.00    +0.000 A 
ATOM     26  C   UNL     1      52.411  10.538  10.910  0.00  0.00    +0.000 A 
ATOM     27  C   UNL     1      51.270  11.068  11.486  0.00  0.00    +0.000 A 
ATOM     28  N   UNL     1      50.247  10.321  11.956  0.00  0.00    +0.000 NA
ENDBRANCH  21  23
ENDBRANCH  16  17
ENDBRANCH   2  15
TORSDOF 5
ENDMDL
MODEL 7
REMARK VINA RESULT:    -7.088      3.653      8.407
REMARK INTER + INTRA:         -10.200
REMARK INTER:                  -9.125
REMARK INTRA:                  -1.074
REMARK UNBOUND:                -1.040
REMARK  Name = 
REMARK  7 active torsions:
REMARK  status: ('A' for Active; 'I' for Inactive)
REMARK    1  A    between atoms: C_1  and  C_2
REMARK    2  A    between atoms: C_2  and  C_3
REMARK    3  A    between atoms: C_2  and  C_4
REMARK    4  A    between atoms: C_2  and  C_18
REMARK    5  A    between atoms: C_5  and  C_6
REMARK    6  A    between atoms: C_10  and  C_11
REMARK    7  A    between atoms: C_21  and  C_22
REMARK                            x       y       z     vdW  Elec       q    Type
REMARK                         _______ _______ _______ _____ _____    ______ ____
ROOT
ATOM      1  C   UNL     1      49.521   6.648  18.116  0.00  0.00    +0.000 C 
ATOM      2  C   UNL     1      48.832   5.349  17.627  0.00  0.00    +0.000 C 
ATOM      3  C   UNL     1      47.609   5.104  18.545  0.00  0.00    +0.000 C 
ENDROOT
BRANCH   2   4
ATOM      4  C   UNL     1      49.867   4.211  17.696  0.00  0.00    +0.000 A 
ATOM      5  C   UNL     1      49.515   2.899  17.333  0.00  0.00    +0.000 A 
ATOM      6  C   UNL     1      50.467   1.882  17.331  0.00  0.00    +0.000 A 
ATOM      7  C   UNL     1      51.763   2.200  17.698  0.00  0.00    +0.000 A 
ATOM      8  N   UNL     1      52.158   3.446  18.072  0.00  0.00    +0.000 NA
ATOM      9  C   UNL     1      51.202   4.407  18.062  0.00  0.00    +0.000 A 
BRANCH   7  10
ATOM     10  C   UNL     1      52.823   1.142  17.667  0.00  0.00    +0.000 C 
ATOM     11  N   UNL     1      52.448  -0.081  18.159  0.00  0.00    +0.000 N 
ATOM     12  O   UNL     1      53.954   1.346  17.245  0.00  0.00    +0.000 OA
ATOM     13  H   UNL     1      51.509  -0.199  18.524  0.00  0.00    +0.000 HD
ATOM     14  H   UNL     1      53.118  -0.830  18.198  0.00  0.00    +0.000 HD
ENDBRANCH   7  10
ENDBRANCH   2   4
BRANCH   2  15
ATOM     15  C   UNL     1      48.283   5.498  16.205  0.00  0.00    +0.000 C 
ATOM     16  C   UNL     1      48.626   6.444  15.311  0.00  0.00    +0.000 C 
BRANCH  16  17
ATOM     17  C   UNL     1      48.014   6.518  13.987  0.00  0.00    +0.000 A 
ATOM     18  C   UNL     1      48.493   7.410  13.036  0.00  0.00    +0.000 A 
ATOM     19  C   UNL     1      47.899   7.476  11.777  0.00  0.00    +0.000 A 
ATOM     20  C   UNL     1      46.848   6.615  11.456  0.00  0.00    +0.000 A 
ATOM     21  C   UNL     1      46.376   5.670  12.380  0.00  0.00    +0.000 A 
ATOM     22  C   UNL     1      46.953   5.662  13.663  0.00  0.00    +0.000 A 
BRANCH  21  23
ATOM     23  C   UNL     1      45.349   4.684  11.995  0.00  0.00    +0.000 A 
ATOM     24  C   UNL     1      45.006   4.442  10.666  0.00  0.00    +0.000 A 
ATOM     25  C   UNL     1      43.966   3.568  10.380  0.00  0.00    +0.000 A 
ATOM     26  C   UNL     1      43.285   2.953  11.424  0.00  0.00    +0.000 A 
ATOM     27  C   UNL     1      43.689   3.233  12.718  0.00  0.00    +0.000 A 
ATOM     28  N   UNL     1      44.700   4.075  13.025  0.00  0.00    +0.000 NA
ENDBRANCH  21  23
ENDBRANCH  16  17
ENDBRANCH   2  15
TORSDOF 5
ENDMDL
MODEL 8
REMARK VINA RESULT:    -7.014      2.768      4.485
REMARK INTER + INTRA:         -10.105
REMARK INTER:                  -9.112
REMARK INTRA:                  -0.993
REMARK UNBOUND:                -1.040
REMARK  Name = 
REMARK  7 active torsions:
REMARK  status: ('A' for Active; 'I' for Inactive)
REMARK    1  A    between atoms: C_1  and  C_2
REMARK    2  A    between atoms: C_2  and  C_3
REMARK    3  A    between atoms: C_2  and  C_4
REMARK    4  A    between atoms: C_2  and  C_18
REMARK    5  A    between atoms: C_5  and  C_6
REMARK    6  A    between atoms: C_10  and  C_11
REMARK    7  A    between atoms: C_21  and  C_22
REMARK                            x       y       z     vdW  Elec       q    Type
REMARK                         _______ _______ _______ _____ _____    ______ ____
ROOT
ATOM      1  C   UNL     1      46.244   8.648  12.895  0.00  0.00    +0.000 C 
ATOM      2  C   UNL     1      47.144   7.393  12.772  0.00  0.00    +0.000 C 
ATOM      3  C   UNL     1      48.289   7.743  11.790  0.00  0.00    +0.000 C 
ENDROOT
BRANCH   2   4
ATOM      4  C   UNL     1      46.265   6.231  12.273  0.00  0.00    +0.000 A 
ATOM      5  C   UNL     1      45.918   6.127  10.915  0.00  0.00    +0.000 A 
ATOM      6  C   UNL     1      45.179   5.041  10.451  0.00  0.00    +0.000 A 
ATOM      7  C   UNL     1      44.797   4.073  11.363  0.00  0.00    +0.000 A 
ATOM      8  N   UNL     1      45.090   4.128  12.689  0.00  0.00    +0.000 NA
ATOM      9  C   UNL     1      45.810   5.201  13.102  0.00  0.00    +0.000 A 
BRANCH   7  10
ATOM     10  C   UNL     1      44.038   2.870  10.894  0.00  0.00    +0.000 C 
ATOM     11  N   UNL     1      44.579   2.216   9.818  0.00  0.00    +0.000 N 
ATOM     12  O   UNL     1      42.999   2.493  11.420  0.00  0.00    +0.000 OA
ATOM     13  H   UNL     1      45.426   2.579   9.395  0.00  0.00    +0.000 HD
ATOM     14  H   UNL     1      44.106   1.418   9.430  0.00  0.00    +0.000 HD
ENDBRANCH   7  10
ENDBRANCH   2   4
BRANCH   2  15
ATOM     15  C   UNL     1      47.809   7.038  14.105  0.00  0.00    +0.000 C 
ATOM     16  C   UNL     1      48.508   7.873  14.896  0.00  0.00    +0.000 C 
BRANCH  16  17
ATOM     17  C   UNL     1      49.135   7.423  16.136  0.00  0.00    +0.000 A 
ATOM     18  C   UNL     1      49.147   8.242  17.259  0.00  0.00    +0.000 A 
ATOM     19  C   UNL     1      49.752   7.804  18.435  0.00  0.00    +0.000 A 
ATOM     20  C   UNL     1      50.309   6.526  18.500  0.00  0.00    +0.000 A 
ATOM     21  C   UNL     1      50.268   5.659  17.397  0.00  0.00    +0.000 A 
ATOM     22  C   UNL     1      49.703   6.144  16.203  0.00  0.00    +0.000 A 
BRANCH  21  23
ATOM     23  C   UNL     1      50.750   4.270  17.508  0.00  0.00    +0.000 A 
ATOM     24  C   UNL     1      52.022   3.955  17.983  0.00  0.00    +0.000 A 
ATOM     25  C   UNL     1      52.444   2.633  17.974  0.00  0.00    +0.000 A 
ATOM     26  C   UNL     1      51.590   1.648  17.491  0.00  0.00    +0.000 A 
ATOM     27  C   UNL     1      50.337   2.035  17.047  0.00  0.00    +0.000 A 
ATOM     28  N   UNL     1      49.899   3.312  17.049  0.00  0.00    +0.000 NA
ENDBRANCH  21  23
ENDBRANCH  16  17
ENDBRANCH   2  15
TORSDOF 5
ENDMDL
MODEL 9
REMARK VINA RESULT:    -6.391      4.872      6.931
REMARK INTER + INTRA:          -9.300
REMARK INTER:                  -8.316
REMARK INTRA:                  -0.984
REMARK UNBOUND:                -1.040
REMARK  Name = 
REMARK  7 active torsions:
REMARK  status: ('A' for Active; 'I' for Inactive)
REMARK    1  A    between atoms: C_1  and  C_2
REMARK    2  A    between atoms: C_2  and  C_3
REMARK    3  A    between atoms: C_2  and  C_4
REMARK    4  A    between atoms: C_2  and  C_18
REMARK    5  A    between atoms: C_5  and  C_6
REMARK    6  A    between atoms: C_10  and  C_11
REMARK    7  A    between atoms: C_21  and  C_22
REMARK                            x       y       z     vdW  Elec       q    Type
REMARK                         _______ _______ _______ _____ _____    ______ ____
ROOT
ATOM      1  C   UNL     1      53.103   9.462  10.107  0.00  0.00    +0.000 C 
ATOM      2  C   UNL     1      52.684   8.057  10.608  0.00  0.00    +0.000 C 
ATOM      3  C   UNL     1      53.486   7.773  11.902  0.00  0.00    +0.000 C 
ENDROOT
BRANCH   2   4
ATOM      4  C   UNL     1      52.986   7.048   9.486  0.00  0.00    +0.000 A 
ATOM      5  C   UNL     1      53.889   5.990   9.698  0.00  0.00    +0.000 A 
ATOM      6  C   UNL     1      54.113   5.037   8.706  0.00  0.00    +0.000 A 
ATOM      7  C   UNL     1      53.425   5.163   7.511  0.00  0.00    +0.000 A 
ATOM      8  N   UNL     1      52.552   6.172   7.245  0.00  0.00    +0.000 NA
ATOM      9  C   UNL     1      52.363   7.079   8.235  0.00  0.00    +0.000 A 
BRANCH   7  10
ATOM     10  C   UNL     1      53.608   4.135   6.438  0.00  0.00    +0.000 C 
ATOM     11  N   UNL     1      53.265   2.855   6.786  0.00  0.00    +0.000 N 
ATOM     12  O   UNL     1      54.043   4.405   5.326  0.00  0.00    +0.000 OA
ATOM     13  H   UNL     1      52.935   2.671   7.727  0.00  0.00    +0.000 HD
ATOM     14  H   UNL     1      53.391   2.107   6.125  0.00  0.00    +0.000 HD
ENDBRANCH   7  10
ENDBRANCH   2   4
BRANCH   2  15
ATOM     15  C   UNL     1      51.204   8.011  10.998  0.00  0.00    +0.000 C 
ATOM     16  C   UNL     1      50.396   9.069  11.196  0.00  0.00    +0.000 C 
BRANCH  16  17
ATOM     17  C   UNL     1      49.001   8.915  11.600  0.00  0.00    +0.000 A 
ATOM     18  C   UNL     1      48.202  10.029  11.819  0.00  0.00    +0.000 A 
ATOM     19  C   UNL     1      46.873   9.871  12.209  0.00  0.00    +0.000 A 
ATOM     20  C   UNL     1      46.333   8.590  12.341  0.00  0.00    +0.000 A 
ATOM     21  C   UNL     1      47.103   7.447  12.078  0.00  0.00    +0.000 A 
ATOM     22  C   UNL     1      48.456   7.631  11.741  0.00  0.00    +0.000 A 
BRANCH  21  23
ATOM     23  C   UNL     1      46.495   6.104  12.101  0.00  0.00    +0.000 A 
ATOM     24  C   UNL     1      45.602   5.670  11.121  0.00  0.00    +0.000 A 
ATOM     25  C   UNL     1      44.996   4.429  11.255  0.00  0.00    +0.000 A 
ATOM     26  C   UNL     1      45.289   3.642  12.363  0.00  0.00    +0.000 A 
ATOM     27  C   UNL     1      46.194   4.134  13.288  0.00  0.00    +0.000 A 
ATOM     28  N   UNL     1      46.802   5.335  13.181  0.00  0.00    +0.000 NA
ENDBRANCH  21  23
ENDBRANCH  16  17
ENDBRANCH   2  15
TORSDOF 5
ENDMDL
