MODEL 1
REMARK VINA RESULT:    -8.261      0.000      0.000
REMARK INTER + INTRA:         -11.222
REMARK INTER:                 -10.917
REMARK INTRA:                  -0.305
REMARK UNBOUND:                -0.305
REMARK  Name = 
REMARK  6 active torsions:
REMARK  status: ('A' for Active; 'I' for Inactive)
REMARK    1  A    between atoms: N_1  and  C_2
REMARK    2  A    between atoms: C_2  and  C_3
REMARK    3  A    between atoms: C_3  and  C_4
REMARK    4  A    between atoms: C_7  and  C_8
REMARK    5  A    between atoms: C_8  and  N_9
REMARK    6  A    between atoms: C_14  and  C_15
REMARK                            x       y       z     vdW  Elec       q    Type
REMARK                         _______ _______ _______ _____ _____    ______ ____
ROOT
ATOM      1  N   UNL     1      44.523   5.433  11.317  0.00  0.00    +0.000 N 
ATOM      2  C   UNL     1      44.506   6.774  11.584  0.00  0.00    +0.000 A 
ATOM      3  N   UNL     1      45.236   7.074  12.635  0.00  0.00    +0.000 NA
ATOM      4  C   UNL     1      45.726   5.876  13.095  0.00  0.00    +0.000 A 
ATOM      5  C   UNL     1      46.525   5.610  14.209  0.00  0.00    +0.000 A 
ATOM      6  C   UNL     1      46.827   4.267  14.429  0.00  0.00    +0.000 A 
ATOM      7  N   UNL     1      46.406   3.238  13.639  0.00  0.00    +0.000 NA
ATOM      8  C   UNL     1      45.636   3.513  12.560  0.00  0.00    +0.000 A 
ATOM      9  C   UNL     1      45.291   4.826  12.288  0.00  0.00    +0.000 A 
ENDROOT
BRANCH   6  10
ATOM     10  C   UNL     1      47.649   3.880  15.625  0.00  0.00    +0.000 C 
ATOM     11  N   UNL     1      47.655   4.735  16.695  0.00  0.00    +0.000 N 
ATOM     12  O   UNL     1      48.306   2.844  15.654  0.00  0.00    +0.000 OA
ATOM     13  H   UNL     1      47.153   5.614  16.679  0.00  0.00    +0.000 HD
ATOM     14  H   UNL     1      48.223   4.498  17.494  0.00  0.00    +0.000 HD
ENDBRANCH   6  10
BRANCH   1  15
ATOM     15  C   UNL     1      43.719   4.774  10.293  0.00  0.00    +0.000 C 
BRANCH  15  19
ATOM     16  C   UNL     1      46.160   2.235   7.741  0.00  0.00    +0.000 A 
ATOM     17  C   UNL     1      45.265   1.673   8.660  0.00  0.00    +0.000 A 
ATOM     18  C   UNL     1      44.452   2.487   9.462  0.00  0.00    +0.000 A 
ATOM     19  C   UNL     1      44.536   3.885   9.386  0.00  0.00    +0.000 A 
ATOM     20  C   UNL     1      45.407   4.444   8.441  0.00  0.00    +0.000 A 
ATOM     21  C   UNL     1      46.202   3.629   7.623  0.00  0.00    +0.000 A 
BRANCH  16  22
ATOM     22  C   UNL     1      47.073   1.363   6.903  0.00  0.00    +0.000 C 
BRANCH  22  23
ATOM     23  C   UNL     1      48.340   2.091   6.431  0.00  0.00    +0.000 C 
BRANCH  23  24
ATOM     24  N   UNL     1      48.250   2.502   5.027  0.00  0.00    +0.000 NA
ATOM     25  H   UNL     1      48.973   2.020   4.493  0.00  0.00    +0.000 HD
ATOM     26  H   UNL     1      48.456   3.497   4.941  0.00  0.00    +0.000 HD
ENDBRANCH  23  24
ENDBRANCH  22  23
ENDBRANCH  16  22
ENDBRANCH  15  19
ENDBRANCH   1  15
TORSDOF 6
ENDMDL
MODEL 2
REMARK VINA RESULT:    -7.962      1.706      2.228
REMARK INTER + INTRA:         -10.827
REMARK INTER:                 -10.324
REMARK INTRA:                  -0.503
REMARK UNBOUND:                -0.305
REMARK  Name = 
REMARK  6 active torsions:
REMARK  status: ('A' for Active; 'I' for Inactive)
REMARK    1  A    between atoms: N_1  and  C_2
REMARK    2  A    between atoms: C_2  and  C_3
REMARK    3  A    between atoms: C_3  and  C_4
REMARK    4  A    between atoms: C_7  and  C_8
REMARK    5  A    between atoms: C_8  and  N_9
REMARK    6  A    between atoms: C_14  and  C_15
REMARK                            x       y       z     vdW  Elec       q    Type
REMARK                         _______ _______ _______ _____ _____    ______ ____
ROOT
ATOM      1  N   UNL     1      44.320   4.800  11.716  0.00  0.00    +0.000 N 
ATOM      2  C   UNL     1      43.903   4.135  12.836  0.00  0.00    +0.000 A 
ATOM      3  N   UNL     1      44.699   4.351  13.859  0.00  0.00    +0.000 NA
ATOM      4  C   UNL     1      45.697   5.166  13.381  0.00  0.00    +0.000 A 
ATOM      5  C   UNL     1      46.825   5.668  14.035  0.00  0.00    +0.000 A 
ATOM      6  C   UNL     1      47.677   6.448  13.255  0.00  0.00    +0.000 A 
ATOM      7  N   UNL     1      47.472   6.742  11.939  0.00  0.00    +0.000 NA
ATOM      8  C   UNL     1      46.372   6.251  11.321  0.00  0.00    +0.000 A 
ATOM      9  C   UNL     1      45.487   5.461  12.035  0.00  0.00    +0.000 A 
ENDROOT
BRANCH   6  10
ATOM     10  C   UNL     1      48.935   7.000  13.861  0.00  0.00    +0.000 C 
ATOM     11  N   UNL     1      49.520   8.073  13.242  0.00  0.00    +0.000 N 
ATOM     12  O   UNL     1      49.440   6.513  14.867  0.00  0.00    +0.000 OA
ATOM     13  H   UNL     1      49.144   8.468  12.389  0.00  0.00    +0.000 HD
ATOM     14  H   UNL     1      50.378   8.438  13.626  0.00  0.00    +0.000 HD
ENDBRANCH   6  10
BRANCH   1  15
ATOM     15  C   UNL     1      43.719   4.667  10.392  0.00  0.00    +0.000 C 
BRANCH  15  19
ATOM     16  C   UNL     1      46.163   2.215   7.759  0.00  0.00    +0.000 A 
ATOM     17  C   UNL     1      45.384   1.626   8.764  0.00  0.00    +0.000 A 
ATOM     18  C   UNL     1      44.569   2.409   9.594  0.00  0.00    +0.000 A 
ATOM     19  C   UNL     1      44.537   3.805   9.460  0.00  0.00    +0.000 A 
ATOM     20  C   UNL     1      45.291   4.388   8.432  0.00  0.00    +0.000 A 
ATOM     21  C   UNL     1      46.086   3.602   7.587  0.00  0.00    +0.000 A 
BRANCH  16  22
ATOM     22  C   UNL     1      47.080   1.380   6.889  0.00  0.00    +0.000 C 
BRANCH  22  23
ATOM     23  C   UNL     1      48.325   2.143   6.414  0.00  0.00    +0.000 C 
BRANCH  23  24
ATOM     24  N   UNL     1      48.267   2.460   4.985  0.00  0.00    +0.000 NA
ATOM     25  H   UNL     1      49.211   2.432   4.599  0.00  0.00    +0.000 HD
ATOM     26  H   UNL     1      47.941   3.417   4.853  0.00  0.00    +0.000 HD
ENDBRANCH  23  24
ENDBRANCH  22  23
ENDBRANCH  16  22
ENDBRANCH  15  19
ENDBRANCH   1  15
TORSDOF 6
ENDMDL
MODEL 3
REMARK VINA RESULT:    -7.869      1.380      1.456
REMARK INTER + INTRA:         -10.705
REMARK INTER:                 -10.198
REMARK INTRA:                  -0.506
REMARK UNBOUND:                -0.305
REMARK  Name = 
REMARK  6 active torsions:
REMARK  status: ('A' for Active; 'I' for Inactive)
REMARK    1  A    between atoms: N_1  and  C_2
REMARK    2  A    between atoms: C_2  and  C_3
REMARK    3  A    between atoms: C_3  and  C_4
REMARK    4  A    between atoms: C_7  and  C_8
REMARK    5  A    between atoms: C_8  and  N_9
REMARK    6  A    between atoms: C_14  and  C_15
REMARK                            x       y       z     vdW  Elec       q    Type
REMARK                         _______ _______ _______ _____ _____    ______ ____
ROOT
ATOM      1  N   UNL     1      44.642   5.878  11.336  0.00  0.00    +0.000 N 
ATOM      2  C   UNL     1      44.429   7.214  11.136  0.00  0.00    +0.000 A 
ATOM      3  N   UNL     1      45.252   7.954  11.846  0.00  0.00    +0.000 NA
ATOM      4  C   UNL     1      46.015   7.065  12.565  0.00  0.00    +0.000 A 
ATOM      5  C   UNL     1      47.015   7.312  13.508  0.00  0.00    +0.000 A 
ATOM      6  C   UNL     1      47.582   6.183  14.095  0.00  0.00    +0.000 A 
ATOM      7  N   UNL     1      47.232   4.897  13.803  0.00  0.00    +0.000 NA
ATOM      8  C   UNL     1      46.263   4.675  12.884  0.00  0.00    +0.000 A 
ATOM      9  C   UNL     1      45.651   5.753  12.268  0.00  0.00    +0.000 A 
ENDROOT
BRANCH   6  10
ATOM     10  C   UNL     1      48.640   6.349  15.148  0.00  0.00    +0.000 C 
ATOM     11  N   UNL     1      48.272   6.160  16.454  0.00  0.00    +0.000 N 
ATOM     12  O   UNL     1      49.795   6.654  14.866  0.00  0.00    +0.000 OA
ATOM     13  H   UNL     1      47.318   5.947  16.714  0.00  0.00    +0.000 HD
ATOM     14  H   UNL     1      48.969   6.293  17.171  0.00  0.00    +0.000 HD
ENDBRANCH   6  10
BRANCH   1  15
ATOM     15  C   UNL     1      43.815   4.808  10.787  0.00  0.00    +0.000 C 
BRANCH  15  19
ATOM     16  C   UNL     1      46.051   2.317   8.010  0.00  0.00    +0.000 A 
ATOM     17  C   UNL     1      45.241   1.738   8.995  0.00  0.00    +0.000 A 
ATOM     18  C   UNL     1      44.492   2.536   9.871  0.00  0.00    +0.000 A 
ATOM     19  C   UNL     1      44.559   3.935   9.804  0.00  0.00    +0.000 A 
ATOM     20  C   UNL     1      45.344   4.512   8.796  0.00  0.00    +0.000 A 
ATOM     21  C   UNL     1      46.073   3.713   7.905  0.00  0.00    +0.000 A 
BRANCH  16  22
ATOM     22  C   UNL     1      46.897   1.462   7.089  0.00  0.00    +0.000 C 
BRANCH  22  23
ATOM     23  C   UNL     1      48.196   2.150   6.647  0.00  0.00    +0.000 C 
BRANCH  23  24
ATOM     24  N   UNL     1      48.397   2.073   5.198  0.00  0.00    +0.000 NA
ATOM     25  H   UNL     1      47.515   1.818   4.753  0.00  0.00    +0.000 HD
ATOM     26  H   UNL     1      49.048   1.319   4.976  0.00  0.00    +0.000 HD
ENDBRANCH  23  24
ENDBRANCH  22  23
ENDBRANCH  16  22
ENDBRANCH  15  19
ENDBRANCH   1  15
TORSDOF 6
ENDMDL
MODEL 4
REMARK VINA RESULT:    -7.565      2.223      3.074
REMARK INTER + INTRA:         -10.302
REMARK INTER:                  -9.792
REMARK INTRA:                  -0.510
REMARK UNBOUND:                -0.305
REMARK  Name = 
REMARK  6 active torsions:
REMARK  status: ('A' for Active; 'I' for Inactive)
REMARK    1  A    between atoms: N_1  and  C_2
REMARK    2  A    between atoms: C_2  and  C_3
REMARK    3  A    between atoms: C_3  and  C_4
REMARK    4  A    between atoms: C_7  and  C_8
REMARK    5  A    between atoms: C_8  and  N_9
REMARK    6  A    between atoms: C_14  and  C_15
REMARK                            x       y       z     vdW  Elec       q    Type
REMARK                         _______ _______ _______ _____ _____    ______ ____
ROOT
ATOM      1  N   UNL     1      45.498   4.832  12.682  0.00  0.00    +0.000 N 
ATOM      2  C   UNL     1      46.173   3.788  13.252  0.00  0.00    +0.000 A 
ATOM      3  N   UNL     1      47.191   4.199  13.975  0.00  0.00    +0.000 NA
ATOM      4  C   UNL     1      47.203   5.567  13.846  0.00  0.00    +0.000 A 
ATOM      5  C   UNL     1      48.097   6.502  14.373  0.00  0.00    +0.000 A 
ATOM      6  C   UNL     1      47.855   7.830  14.026  0.00  0.00    +0.000 A 
ATOM      7  N   UNL     1      46.825   8.250  13.237  0.00  0.00    +0.000 NA
ATOM      8  C   UNL     1      45.965   7.332  12.738  0.00  0.00    +0.000 A 
ATOM      9  C   UNL     1      46.152   5.993  13.036  0.00  0.00    +0.000 A 
ENDROOT
BRANCH   6  10
ATOM     10  C   UNL     1      48.786   8.903  14.515  0.00  0.00    +0.000 C 
ATOM     11  N   UNL     1      48.261  10.150  14.727  0.00  0.00    +0.000 N 
ATOM     12  O   UNL     1      49.978   8.689  14.711  0.00  0.00    +0.000 OA
ATOM     13  H   UNL     1      47.290  10.361  14.536  0.00  0.00    +0.000 HD
ATOM     14  H   UNL     1      48.882  10.885  15.032  0.00  0.00    +0.000 HD
ENDBRANCH   6  10
BRANCH   1  15
ATOM     15  C   UNL     1      44.399   4.697  11.730  0.00  0.00    +0.000 C 
BRANCH  15  19
ATOM     16  C   UNL     1      45.817   3.358   7.842  0.00  0.00    +0.000 A 
ATOM     17  C   UNL     1      45.134   2.481   8.694  0.00  0.00    +0.000 A 
ATOM     18  C   UNL     1      44.646   2.916   9.934  0.00  0.00    +0.000 A 
ATOM     19  C   UNL     1      44.856   4.234  10.367  0.00  0.00    +0.000 A 
ATOM     20  C   UNL     1      45.510   5.118   9.499  0.00  0.00    +0.000 A 
ATOM     21  C   UNL     1      45.976   4.689   8.249  0.00  0.00    +0.000 A 
BRANCH  16  22
ATOM     22  C   UNL     1      46.387   2.884   6.521  0.00  0.00    +0.000 C 
BRANCH  22  23
ATOM     23  C   UNL     1      47.406   1.746   6.674  0.00  0.00    +0.000 C 
BRANCH  23  24
ATOM     24  N   UNL     1      48.495   1.846   5.698  0.00  0.00    +0.000 NA
ATOM     25  H   UNL     1      49.262   2.378   6.108  0.00  0.00    +0.000 HD
ATOM     26  H   UNL     1      48.187   2.381   4.887  0.00  0.00    +0.000 HD
ENDBRANCH  23  24
ENDBRANCH  22  23
ENDBRANCH  16  22
ENDBRANCH  15  19
ENDBRANCH   1  15
TORSDOF 6
ENDMDL
MODEL 5
REMARK VINA RESULT:    -7.490      2.839      7.134
REMARK INTER + INTRA:         -10.203
REMARK INTER:                  -9.782
REMARK INTRA:                  -0.421
REMARK UNBOUND:                -0.305
REMARK  Name = 
REMARK  6 active torsions:
REMARK  status: ('A' for Active; 'I' for Inactive)
REMARK    1  A    between atoms: N_1  and  C_2
REMARK    2  A    between atoms: C_2  and  C_3
REMARK    3  A    between atoms: C_3  and  C_4
REMARK    4  A    between atoms: C_7  and  C_8
REMARK    5  A    between atoms: C_8  and  N_9
REMARK    6  A    between atoms: C_14  and  C_15
REMARK                            x       y       z     vdW  Elec       q    Type
REMARK                         _______ _______ _______ _____ _____    ______ ____
ROOT
ATOM      1  N   UNL     1      44.005   4.409  10.618  0.00  0.00    +0.000 N 
ATOM      2  C   UNL     1      43.499   3.216  11.056  0.00  0.00    +0.000 A 
ATOM      3  N   UNL     1      44.017   2.197  10.407  0.00  0.00    +0.000 NA
ATOM      4  C   UNL     1      44.874   2.747   9.484  0.00  0.00    +0.000 A 
ATOM      5  C   UNL     1      45.653   2.120   8.509  0.00  0.00    +0.000 A 
ATOM      6  C   UNL     1      46.398   2.970   7.694  0.00  0.00    +0.000 A 
ATOM      7  N   UNL     1      46.413   4.330   7.799  0.00  0.00    +0.000 NA
ATOM      8  C   UNL     1      45.655   4.922   8.752  0.00  0.00    +0.000 A 
ATOM      9  C   UNL     1      44.884   4.137   9.591  0.00  0.00    +0.000 A 
ENDROOT
BRANCH   6  10
ATOM     10  C   UNL     1      47.238   2.389   6.592  0.00  0.00    +0.000 C 
ATOM     11  N   UNL     1      47.194   3.004   5.369  0.00  0.00    +0.000 N 
ATOM     12  O   UNL     1      47.935   1.394   6.762  0.00  0.00    +0.000 OA
ATOM     13  H   UNL     1      46.597   3.803   5.194  0.00  0.00    +0.000 HD
ATOM     14  H   UNL     1      47.735   2.609   4.615  0.00  0.00    +0.000 HD
ENDBRANCH   6  10
BRANCH   1  15
ATOM     15  C   UNL     1      43.542   5.724  11.054  0.00  0.00    +0.000 C 
BRANCH  15  19
ATOM     16  C   UNL     1      46.745   8.042  12.867  0.00  0.00    +0.000 A 
ATOM     17  C   UNL     1      45.756   8.670  12.100  0.00  0.00    +0.000 A 
ATOM     18  C   UNL     1      44.702   7.932  11.541  0.00  0.00    +0.000 A 
ATOM     19  C   UNL     1      44.630   6.541  11.709  0.00  0.00    +0.000 A 
ATOM     20  C   UNL     1      45.603   5.921  12.505  0.00  0.00    +0.000 A 
ATOM     21  C   UNL     1      46.641   6.662  13.084  0.00  0.00    +0.000 A 
BRANCH  16  22
ATOM     22  C   UNL     1      47.910   8.825  13.436  0.00  0.00    +0.000 C 
BRANCH  22  23
ATOM     23  C   UNL     1      48.270   8.419  14.872  0.00  0.00    +0.000 C 
BRANCH  23  24
ATOM     24  N   UNL     1      47.572   9.236  15.868  0.00  0.00    +0.000 NA
ATOM     25  H   UNL     1      48.229   9.902  16.273  0.00  0.00    +0.000 HD
ATOM     26  H   UNL     1      47.259   8.649  16.642  0.00  0.00    +0.000 HD
ENDBRANCH  23  24
ENDBRANCH  22  23
ENDBRANCH  16  22
ENDBRANCH  15  19
ENDBRANCH   1  15
TORSDOF 6
ENDMDL
MODEL 6
REMARK VINA RESULT:    -5.910      4.070      8.403
REMARK INTER + INTRA:          -8.115
REMARK INTER:                  -7.628
REMARK INTRA:                  -0.487
REMARK UNBOUND:                -0.305
REMARK  Name = 
REMARK  6 active torsions:
REMARK  status: ('A' for Active; 'I' for Inactive)
REMARK    1  A    between atoms: N_1  and  C_2
REMARK    2  A    between atoms: C_2  and  C_3
REMARK    3  A    between atoms: C_3  and  C_4
REMARK    4  A    between atoms: C_7  and  C_8
REMARK    5  A    between atoms: C_8  and  N_9
REMARK    6  A    between atoms: C_14  and  C_15
REMARK                            x       y       z     vdW  Elec       q    Type
REMARK                         _______ _______ _______ _____ _____    ______ ____
ROOT
ATOM      1  N   UNL     1      47.515   7.127  13.838  0.00  0.00    +0.000 N 
ATOM      2  C   UNL     1      46.901   8.272  13.413  0.00  0.00    +0.000 A 
ATOM      3  N   UNL     1      45.734   8.026  12.859  0.00  0.00    +0.000 NA
ATOM      4  C   UNL     1      45.592   6.660  12.895  0.00  0.00    +0.000 A 
ATOM      5  C   UNL     1      44.558   5.860  12.405  0.00  0.00    +0.000 A 
ATOM      6  C   UNL     1      44.729   4.486  12.567  0.00  0.00    +0.000 A 
ATOM      7  N   UNL     1      45.808   3.904  13.164  0.00  0.00    +0.000 NA
ATOM      8  C   UNL     1      46.801   4.694  13.638  0.00  0.00    +0.000 A 
ATOM      9  C   UNL     1      46.698   6.068  13.502  0.00  0.00    +0.000 A 
ENDROOT
BRANCH   6  10
ATOM     10  C   UNL     1      43.686   3.543  12.038  0.00  0.00    +0.000 C 
ATOM     11  N   UNL     1      43.693   2.258  12.510  0.00  0.00    +0.000 N 
ATOM     12  O   UNL     1      42.857   3.894  11.203  0.00  0.00    +0.000 OA
ATOM     13  H   UNL     1      44.390   1.935  13.169  0.00  0.00    +0.000 HD
ATOM     14  H   UNL     1      43.013   1.610  12.144  0.00  0.00    +0.000 HD
ENDBRANCH   6  10
BRANCH   1  15
ATOM     15  C   UNL     1      48.868   7.056  14.382  0.00  0.00    +0.000 C 
BRANCH  15  19
ATOM     16  C   UNL     1      49.042   6.505  18.693  0.00  0.00    +0.000 A 
ATOM     17  C   UNL     1      48.791   7.769  18.144  0.00  0.00    +0.000 A 
ATOM     18  C   UNL     1      48.701   7.946  16.756  0.00  0.00    +0.000 A 
ATOM     19  C   UNL     1      48.891   6.868  15.880  0.00  0.00    +0.000 A 
ATOM     20  C   UNL     1      49.108   5.598  16.433  0.00  0.00    +0.000 A 
ATOM     21  C   UNL     1      49.173   5.418  17.821  0.00  0.00    +0.000 A 
BRANCH  16  22
ATOM     22  C   UNL     1      49.185   6.315  20.189  0.00  0.00    +0.000 C 
BRANCH  22  23
ATOM     23  C   UNL     1      48.070   5.454  20.799  0.00  0.00    +0.000 C 
BRANCH  23  24
ATOM     24  N   UNL     1      48.456   4.045  20.909  0.00  0.00    +0.000 NA
ATOM     25  H   UNL     1      47.618   3.466  20.871  0.00  0.00    +0.000 HD
ATOM     26  H   UNL     1      48.875   3.869  21.822  0.00  0.00    +0.000 HD
ENDBRANCH  23  24
ENDBRANCH  22  23
ENDBRANCH  16  22
ENDBRANCH  15  19
ENDBRANCH   1  15
TORSDOF 6
ENDMDL
MODEL 7
REMARK VINA RESULT:    -5.794      3.692      4.600
REMARK INTER + INTRA:          -7.963
REMARK INTER:                  -7.450
REMARK INTRA:                  -0.512
REMARK UNBOUND:                -0.305
REMARK  Name = 
REMARK  6 active torsions:
REMARK  status: ('A' for Active; 'I' for Inactive)
REMARK    1  A    between atoms: N_1  and  C_2
REMARK    2  A    between atoms: C_2  and  C_3
REMARK    3  A    between atoms: C_3  and  C_4
REMARK    4  A    between atoms: C_7  and  C_8
REMARK    5  A    between atoms: C_8  and  N_9
REMARK    6  A    between atoms: C_14  and  C_15
REMARK                            x       y       z     vdW  Elec       q    Type
REMARK                         _______ _______ _______ _____ _____    ______ ____
ROOT
ATOM      1  N   UNL     1      46.510   6.599  13.194  0.00  0.00    +0.000 N 
ATOM      2  C   UNL     1      47.099   5.634  13.963  0.00  0.00    +0.000 A 
ATOM      3  N   UNL     1      48.358   5.911  14.219  0.00  0.00    +0.000 NA
ATOM      4  C   UNL     1      48.613   7.092  13.564  0.00  0.00    +0.000 A 
ATOM      5  C   UNL     1      49.804   7.815  13.466  0.00  0.00    +0.000 A 
ATOM      6  C   UNL     1      49.746   8.971  12.689  0.00  0.00    +0.000 A 
ATOM      7  N   UNL     1      48.628   9.420  12.050  0.00  0.00    +0.000 NA
ATOM      8  C   UNL     1      47.481   8.709  12.157  0.00  0.00    +0.000 A 
ATOM      9  C   UNL     1      47.471   7.546  12.908  0.00  0.00    +0.000 A 
ENDROOT
BRANCH   6  10
ATOM     10  C   UNL     1      50.987   9.794  12.495  0.00  0.00    +0.000 C 
ATOM     11  N   UNL     1      52.096   9.452  13.221  0.00  0.00    +0.000 N 
ATOM     12  O   UNL     1      51.019  10.750  11.726  0.00  0.00    +0.000 OA
ATOM     13  H   UNL     1      52.083   8.693  13.891  0.00  0.00    +0.000 HD
ATOM     14  H   UNL     1      52.928  10.013  13.117  0.00  0.00    +0.000 HD
ENDBRANCH   6  10
BRANCH   1  15
ATOM     15  C   UNL     1      45.160   6.522  12.643  0.00  0.00    +0.000 C 
BRANCH  15  19
ATOM     16  C   UNL     1      44.812   3.306   9.735  0.00  0.00    +0.000 A 
ATOM     17  C   UNL     1      44.240   3.183  11.007  0.00  0.00    +0.000 A 
ATOM     18  C   UNL     1      44.321   4.229  11.937  0.00  0.00    +0.000 A 
ATOM     19  C   UNL     1      45.003   5.415  11.628  0.00  0.00    +0.000 A 
ATOM     20  C   UNL     1      45.545   5.549  10.342  0.00  0.00    +0.000 A 
ATOM     21  C   UNL     1      45.442   4.512   9.405  0.00  0.00    +0.000 A 
BRANCH  16  22
ATOM     22  C   UNL     1      44.767   2.163   8.741  0.00  0.00    +0.000 C 
BRANCH  22  23
ATOM     23  C   UNL     1      46.110   1.919   8.038  0.00  0.00    +0.000 C 
BRANCH  23  24
ATOM     24  N   UNL     1      46.456   0.497   7.986  0.00  0.00    +0.000 NA
ATOM     25  H   UNL     1      47.244   0.369   7.352  0.00  0.00    +0.000 HD
ATOM     26  H   UNL     1      45.684  -0.035   7.582  0.00  0.00    +0.000 HD
ENDBRANCH  23  24
ENDBRANCH  22  23
ENDBRANCH  16  22
ENDBRANCH  15  19
ENDBRANCH   1  15
TORSDOF 6
ENDMDL
MODEL 8
REMARK VINA RESULT:    -5.759      4.258      8.694
REMARK INTER + INTRA:          -7.915
REMARK INTER:                  -7.460
REMARK INTRA:                  -0.455
REMARK UNBOUND:                -0.305
REMARK  Name = 
REMARK  6 active torsions:
REMARK  status: ('A' for Active; 'I' for Inactive)
REMARK    1  A    between atoms: N_1  and  C_2
REMARK    2  A    between atoms: C_2  and  C_3
REMARK    3  A    between atoms: C_3  and  C_4
REMARK    4  A    between atoms: C_7  and  C_8
REMARK    5  A    between atoms: C_8  and  N_9
REMARK    6  A    between atoms: C_14  and  C_15
REMARK                            x       y       z     vdW  Elec       q    Type
REMARK                         _______ _______ _______ _____ _____    ______ ____
ROOT
ATOM      1  N   UNL     1      49.164   5.749  16.617  0.00  0.00    +0.000 N 
ATOM      2  C   UNL     1      49.833   6.737  15.950  0.00  0.00    +0.000 A 
ATOM      3  N   UNL     1      49.330   6.950  14.754  0.00  0.00    +0.000 NA
ATOM      4  C   UNL     1      48.308   6.040  14.621  0.00  0.00    +0.000 A 
ATOM      5  C   UNL     1      47.466   5.802  13.532  0.00  0.00    +0.000 A 
ATOM      6  C   UNL     1      46.541   4.773  13.699  0.00  0.00    +0.000 A 
ATOM      7  N   UNL     1      46.414   4.019  14.828  0.00  0.00    +0.000 NA
ATOM      8  C   UNL     1      47.235   4.265  15.876  0.00  0.00    +0.000 A 
ATOM      9  C   UNL     1      48.183   5.269  15.775  0.00  0.00    +0.000 A 
ENDROOT
BRANCH   6  10
ATOM     10  C   UNL     1      45.618   4.419  12.568  0.00  0.00    +0.000 C 
ATOM     11  N   UNL     1      45.223   3.112  12.456  0.00  0.00    +0.000 N 
ATOM     12  O   UNL     1      45.231   5.256  11.758  0.00  0.00    +0.000 OA
ATOM     13  H   UNL     1      45.559   2.397  13.088  0.00  0.00    +0.000 HD
ATOM     14  H   UNL     1      44.622   2.858  11.687  0.00  0.00    +0.000 HD
ENDBRANCH   6  10
BRANCH   1  15
ATOM     15  C   UNL     1      49.556   5.200  17.912  0.00  0.00    +0.000 C 
BRANCH  15  19
ATOM     16  C   UNL     1      52.350   1.875  17.677  0.00  0.00    +0.000 A 
ATOM     17  C   UNL     1      50.995   1.691  17.373  0.00  0.00    +0.000 A 
ATOM     18  C   UNL     1      50.096   2.767  17.415  0.00  0.00    +0.000 A 
ATOM     19  C   UNL     1      50.525   4.048  17.793  0.00  0.00    +0.000 A 
ATOM     20  C   UNL     1      51.888   4.235  18.063  0.00  0.00    +0.000 A 
ATOM     21  C   UNL     1      52.790   3.165  17.997  0.00  0.00    +0.000 A 
BRANCH  16  22
ATOM     22  C   UNL     1      53.318   0.709  17.677  0.00  0.00    +0.000 C 
BRANCH  22  23
ATOM     23  C   UNL     1      54.668   1.042  18.329  0.00  0.00    +0.000 C 
BRANCH  23  24
ATOM     24  N   UNL     1      54.720   0.628  19.733  0.00  0.00    +0.000 NA
ATOM     25  H   UNL     1      54.075  -0.148  19.875  0.00  0.00    +0.000 HD
ATOM     26  H   UNL     1      54.383   1.383  20.331  0.00  0.00    +0.000 HD
ENDBRANCH  23  24
ENDBRANCH  22  23
ENDBRANCH  16  22
ENDBRANCH  15  19
ENDBRANCH   1  15
TORSDOF 6
ENDMDL
MODEL 9
REMARK VINA RESULT:    -5.521      3.899      5.844
REMARK INTER + INTRA:          -7.601
REMARK INTER:                  -7.135
REMARK INTRA:                  -0.466
REMARK UNBOUND:                -0.305
REMARK  Name = 
REMARK  6 active torsions:
REMARK  status: ('A' for Active; 'I' for Inactive)
REMARK    1  A    between atoms: N_1  and  C_2
REMARK    2  A    between atoms: C_2  and  C_3
REMARK    3  A    between atoms: C_3  and  C_4
REMARK    4  A    between atoms: C_7  and  C_8
REMARK    5  A    between atoms: C_8  and  N_9
REMARK    6  A    between atoms: C_14  and  C_15
REMARK                            x       y       z     vdW  Elec       q    Type
REMARK                         _______ _______ _______ _____ _____    ______ ____
ROOT
ATOM      1  N   UNL     1      48.693   7.216  15.164  0.00  0.00    +0.000 N 
ATOM      2  C   UNL     1      48.610   8.542  15.487  0.00  0.00    +0.000 A 
ATOM      3  N   UNL     1      48.600   8.731  16.787  0.00  0.00    +0.000 NA
ATOM      4  C   UNL     1      48.646   7.473  17.340  0.00  0.00    +0.000 A 
ATOM      5  C   UNL     1      48.618   7.090  18.683  0.00  0.00    +0.000 A 
ATOM      6  C   UNL     1      48.644   5.717  18.919  0.00  0.00    +0.000 A 
ATOM      7  N   UNL     1      48.702   4.763  17.946  0.00  0.00    +0.000 NA
ATOM      8  C   UNL     1      48.734   5.151  16.649  0.00  0.00    +0.000 A 
ATOM      9  C   UNL     1      48.702   6.501  16.343  0.00  0.00    +0.000 A 
ENDROOT
BRANCH   6  10
ATOM     10  C   UNL     1      48.578   5.208  20.331  0.00  0.00    +0.000 C 
ATOM     11  N   UNL     1      49.554   4.337  20.738  0.00  0.00    +0.000 N 
ATOM     12  O   UNL     1      47.684   5.543  21.101  0.00  0.00    +0.000 OA
ATOM     13  H   UNL     1      50.280   4.016  20.109  0.00  0.00    +0.000 HD
ATOM     14  H   UNL     1      49.507   3.970  21.676  0.00  0.00    +0.000 HD
ENDBRANCH   6  10
BRANCH   1  15
ATOM     15  C   UNL     1      48.604   6.677  13.810  0.00  0.00    +0.000 C 
BRANCH  15  19
ATOM     16  C   UNL     1      44.657   5.201  12.732  0.00  0.00    +0.000 A 
ATOM     17  C   UNL     1      45.630   4.331  13.240  0.00  0.00    +0.000 A 
ATOM     18  C   UNL     1      46.893   4.807  13.619  0.00  0.00    +0.000 A 
ATOM     19  C   UNL     1      47.225   6.162  13.472  0.00  0.00    +0.000 A 
ATOM     20  C   UNL     1      46.237   7.036  12.996  0.00  0.00    +0.000 A 
ATOM     21  C   UNL     1      44.968   6.563  12.640  0.00  0.00    +0.000 A 
BRANCH  16  22
ATOM     22  C   UNL     1      43.306   4.687  12.278  0.00  0.00    +0.000 C 
BRANCH  22  23
ATOM     23  C   UNL     1      43.403   3.615  11.183  0.00  0.00    +0.000 C 
BRANCH  23  24
ATOM     24  N   UNL     1      43.050   2.283  11.682  0.00  0.00    +0.000 NA
ATOM     25  H   UNL     1      42.934   1.651  10.890  0.00  0.00    +0.000 HD
ATOM     26  H   UNL     1      42.144   2.315  12.148  0.00  0.00    +0.000 HD
ENDBRANCH  23  24
ENDBRANCH  22  23
ENDBRANCH  16  22
ENDBRANCH  15  19
ENDBRANCH   1  15
TORSDOF 6
ENDMDL
