MODEL 1
REMARK VINA RESULT:    -8.845      0.000      0.000
REMARK INTER + INTRA:         -12.666
REMARK INTER:                 -11.431
REMARK INTRA:                  -1.236
REMARK UNBOUND:                -1.236
REMARK  Name = 
REMARK  5 active torsions:
REMARK  status: ('A' for Active; 'I' for Inactive)
REMARK    1  A    between atoms: C_2  and  C_4
REMARK    2  A    between atoms: C_7  and  N_8
REMARK    3  A    between atoms: N_8  and  C_9
REMARK    4  A    between atoms: C_9  and  C_10
REMARK    5  A    between atoms: C_14  and  C_15
REMARK                            x       y       z     vdW  Elec       q    Type
REMARK                         _______ _______ _______ _____ _____    ______ ____
ROOT
ATOM      1  C   UNL     1      43.802   4.992  11.407  0.00  0.00    +0.000 C 
ATOM      2  C   UNL     1      42.477   5.253  12.118  0.00  0.00    +0.000 C 
ATOM      3  C   UNL     1      42.944   6.187  11.051  0.00  0.00    +0.000 C 
ENDROOT
BRANCH   1   4
ATOM      4  C   UNL     1      45.097   5.209  12.189  0.00  0.00    +0.000 A 
ATOM      5  C   UNL     1      45.563   4.256  13.108  0.00  0.00    +0.000 A 
ATOM      6  C   UNL     1      46.786   4.413  13.759  0.00  0.00    +0.000 A 
ATOM      7  C   UNL     1      47.586   5.520  13.482  0.00  0.00    +0.000 A 
ATOM      8  C   UNL     1      47.182   6.498  12.560  0.00  0.00    +0.000 A 
ATOM      9  C   UNL     1      45.922   6.330  11.954  0.00  0.00    +0.000 A 
BRANCH   8  10
ATOM     10  C   UNL     1      48.072   7.626  12.203  0.00  0.00    +0.000 A 
ATOM     11  C   UNL     1      49.424   7.426  11.889  0.00  0.00    +0.000 A 
ATOM     12  C   UNL     1      50.247   8.498  11.539  0.00  0.00    +0.000 A 
ATOM     13  C   UNL     1      49.691   9.762  11.501  0.00  0.00    +0.000 A 
ATOM     14  N   UNL     1      48.396  10.013  11.782  0.00  0.00    +0.000 NA
ATOM     15  C   UNL     1      47.628   8.947  12.125  0.00  0.00    +0.000 A 
ENDBRANCH   8  10
ENDBRANCH   1   4
BRANCH   1  16
ATOM     16  N   UNL     1      43.811   3.768  10.581  0.00  0.00    +0.000 N 
ATOM     17  H   UNL     1      43.545   2.928  11.088  0.00  0.00    +0.000 HD
BRANCH  16  21
ATOM     18  C   UNL     1      46.544   2.714   7.524  0.00  0.00    +0.000 A 
ATOM     19  C   UNL     1      46.234   4.062   7.729  0.00  0.00    +0.000 A 
ATOM     20  C   UNL     1      45.330   4.429   8.735  0.00  0.00    +0.000 A 
ATOM     21  C   UNL     1      44.763   3.472   9.581  0.00  0.00    +0.000 A 
ATOM     22  C   UNL     1      45.050   2.122   9.332  0.00  0.00    +0.000 A 
ATOM     23  C   UNL     1      45.930   1.742   8.313  0.00  0.00    +0.000 A 
BRANCH  18  25
ATOM     24  N   UNL     1      47.449   2.968   5.277  0.00  0.00    +0.000 N 
ATOM     25  C   UNL     1      47.476   2.273   6.456  0.00  0.00    +0.000 C 
ATOM     26  O   UNL     1      48.268   1.357   6.629  0.00  0.00    +0.000 OA
ATOM     27  H   UNL     1      48.169   2.731   4.604  0.00  0.00    +0.000 HD
ATOM     28  H   UNL     1      47.013   3.874   5.195  0.00  0.00    +0.000 HD
ENDBRANCH  18  25
ENDBRANCH  16  21
ENDBRANCH   1  16
TORSDOF 5
ENDMDL
MODEL 2
REMARK VINA RESULT:    -8.829      2.042      3.523
REMARK INTER + INTRA:         -12.645
REMARK INTER:                 -12.124
REMARK INTRA:                  -0.521
REMARK UNBOUND:                -1.236
REMARK  Name = 
REMARK  5 active torsions:
REMARK  status: ('A' for Active; 'I' for Inactive)
REMARK    1  A    between atoms: C_2  and  C_4
REMARK    2  A    between atoms: C_7  and  N_8
REMARK    3  A    between atoms: N_8  and  C_9
REMARK    4  A    between atoms: C_9  and  C_10
REMARK    5  A    between atoms: C_14  and  C_15
REMARK                            x       y       z     vdW  Elec       q    Type
REMARK                         _______ _______ _______ _____ _____    ______ ____
ROOT
ATOM      1  C   UNL     1      43.874   5.075  11.461  0.00  0.00    +0.000 C 
ATOM      2  C   UNL     1      43.122   4.024  12.274  0.00  0.00    +0.000 C 
ATOM      3  C   UNL     1      42.651   5.441  12.274  0.00  0.00    +0.000 C 
ENDROOT
BRANCH   1   4
ATOM      4  C   UNL     1      45.254   5.514  11.949  0.00  0.00    +0.000 A 
ATOM      5  C   UNL     1      45.985   6.505  11.277  0.00  0.00    +0.000 A 
ATOM      6  C   UNL     1      47.205   6.966  11.769  0.00  0.00    +0.000 A 
ATOM      7  C   UNL     1      47.711   6.460  12.965  0.00  0.00    +0.000 A 
ATOM      8  C   UNL     1      47.018   5.480  13.691  0.00  0.00    +0.000 A 
ATOM      9  C   UNL     1      45.810   5.006  13.143  0.00  0.00    +0.000 A 
BRANCH   8  10
ATOM     10  C   UNL     1      47.513   5.008  15.004  0.00  0.00    +0.000 A 
ATOM     11  C   UNL     1      47.255   3.708  15.464  0.00  0.00    +0.000 A 
ATOM     12  C   UNL     1      47.741   3.273  16.698  0.00  0.00    +0.000 A 
ATOM     13  C   UNL     1      48.494   4.154  17.451  0.00  0.00    +0.000 A 
ATOM     14  N   UNL     1      48.783   5.410  17.055  0.00  0.00    +0.000 NA
ATOM     15  C   UNL     1      48.287   5.801  15.852  0.00  0.00    +0.000 A 
ENDBRANCH   8  10
ENDBRANCH   1   4
BRANCH   1  16
ATOM     16  N   UNL     1      43.804   4.869  10.000  0.00  0.00    +0.000 N 
ATOM     17  H   UNL     1      42.860   4.904   9.624  0.00  0.00    +0.000 HD
BRANCH  16  21
ATOM     18  C   UNL     1      46.367   2.288   7.833  0.00  0.00    +0.000 A 
ATOM     19  C   UNL     1      45.492   1.746   8.780  0.00  0.00    +0.000 A 
ATOM     20  C   UNL     1      44.638   2.586   9.508  0.00  0.00    +0.000 A 
ATOM     21  C   UNL     1      44.604   3.963   9.271  0.00  0.00    +0.000 A 
ATOM     22  C   UNL     1      45.520   4.494   8.351  0.00  0.00    +0.000 A 
ATOM     23  C   UNL     1      46.395   3.669   7.637  0.00  0.00    +0.000 A 
BRANCH  18  25
ATOM     24  N   UNL     1      48.409   2.060   6.524  0.00  0.00    +0.000 N 
ATOM     25  C   UNL     1      47.307   1.444   7.054  0.00  0.00    +0.000 C 
ATOM     26  O   UNL     1      47.137   0.240   6.924  0.00  0.00    +0.000 OA
ATOM     27  H   UNL     1      49.097   1.452   6.098  0.00  0.00    +0.000 HD
ATOM     28  H   UNL     1      48.715   2.972   6.830  0.00  0.00    +0.000 HD
ENDBRANCH  18  25
ENDBRANCH  16  21
ENDBRANCH   1  16
TORSDOF 5
ENDMDL
MODEL 3
REMARK VINA RESULT:    -7.364      3.446      7.250
REMARK INTER + INTRA:         -10.752
REMARK INTER:                  -9.730
REMARK INTRA:                  -1.022
REMARK UNBOUND:                -1.236
REMARK  Name = 
REMARK  5 active torsions:
REMARK  status: ('A' for Active; 'I' for Inactive)
REMARK    1  A    between atoms: C_2  and  C_4
REMARK    2  A    between atoms: C_7  and  N_8
REMARK    3  A    between atoms: N_8  and  C_9
REMARK    4  A    between atoms: C_9  and  C_10
REMARK    5  A    between atoms: C_14  and  C_15
REMARK                            x       y       z     vdW  Elec       q    Type
REMARK                         _______ _______ _______ _____ _____    ______ ____
ROOT
ATOM      1  C   UNL     1      46.104   7.365  12.286  0.00  0.00    +0.000 C 
ATOM      2  C   UNL     1      46.202   8.734  11.620  0.00  0.00    +0.000 C 
ATOM      3  C   UNL     1      45.455   8.584  12.903  0.00  0.00    +0.000 C 
ENDROOT
BRANCH   1   4
ATOM      4  C   UNL     1      45.225   6.302  11.627  0.00  0.00    +0.000 A 
ATOM      5  C   UNL     1      43.834   6.288  11.811  0.00  0.00    +0.000 A 
ATOM      6  C   UNL     1      43.022   5.373  11.143  0.00  0.00    +0.000 A 
ATOM      7  C   UNL     1      43.586   4.461  10.252  0.00  0.00    +0.000 A 
ATOM      8  C   UNL     1      44.969   4.437  10.013  0.00  0.00    +0.000 A 
ATOM      9  C   UNL     1      45.763   5.347  10.737  0.00  0.00    +0.000 A 
BRANCH   8  10
ATOM     10  C   UNL     1      45.554   3.529   9.002  0.00  0.00    +0.000 A 
ATOM     11  C   UNL     1      46.194   4.020   7.854  0.00  0.00    +0.000 A 
ATOM     12  C   UNL     1      46.754   3.151   6.916  0.00  0.00    +0.000 A 
ATOM     13  C   UNL     1      46.671   1.793   7.154  0.00  0.00    +0.000 A 
ATOM     14  N   UNL     1      46.079   1.264   8.244  0.00  0.00    +0.000 NA
ATOM     15  C   UNL     1      45.538   2.139   9.130  0.00  0.00    +0.000 A 
ENDBRANCH   8  10
ENDBRANCH   1   4
BRANCH   1  16
ATOM     16  N   UNL     1      47.395   6.839  12.775  0.00  0.00    +0.000 N 
ATOM     17  H   UNL     1      47.971   6.422  12.048  0.00  0.00    +0.000 HD
BRANCH  16  21
ATOM     18  C   UNL     1      47.984   4.683  16.371  0.00  0.00    +0.000 A 
ATOM     19  C   UNL     1      48.633   5.910  16.195  0.00  0.00    +0.000 A 
ATOM     20  C   UNL     1      48.451   6.636  15.009  0.00  0.00    +0.000 A 
ATOM     21  C   UNL     1      47.587   6.183  14.009  0.00  0.00    +0.000 A 
ATOM     22  C   UNL     1      46.980   4.930  14.184  0.00  0.00    +0.000 A 
ATOM     23  C   UNL     1      47.175   4.183  15.351  0.00  0.00    +0.000 A 
BRANCH  18  25
ATOM     24  N   UNL     1      47.189   2.948  17.885  0.00  0.00    +0.000 N 
ATOM     25  C   UNL     1      48.163   3.866  17.597  0.00  0.00    +0.000 C 
ATOM     26  O   UNL     1      49.158   3.970  18.301  0.00  0.00    +0.000 OA
ATOM     27  H   UNL     1      47.382   2.321  18.655  0.00  0.00    +0.000 HD
ATOM     28  H   UNL     1      46.508   2.654  17.201  0.00  0.00    +0.000 HD
ENDBRANCH  18  25
ENDBRANCH  16  21
ENDBRANCH   1  16
TORSDOF 5
ENDMDL
MODEL 4
REMARK VINA RESULT:    -6.589      3.473      5.889
REMARK INTER + INTRA:          -9.751
REMARK INTER:                  -8.670
REMARK INTRA:                  -1.081
REMARK UNBOUND:                -1.236
REMARK  Name = 
REMARK  5 active torsions:
REMARK  status: ('A' for Active; 'I' for Inactive)
REMARK    1  A    between atoms: C_2  and  C_4
REMARK    2  A    between atoms: C_7  and  N_8
REMARK    3  A    between atoms: N_8  and  C_9
REMARK    4  A    between atoms: C_9  and  C_10
REMARK    5  A    between atoms: C_14  and  C_15
REMARK                            x       y       z     vdW  Elec       q    Type
REMARK                         _______ _______ _______ _____ _____    ______ ____
ROOT
ATOM      1  C   UNL     1      47.835   8.085  12.581  0.00  0.00    +0.000 C 
ATOM      2  C   UNL     1      48.515   9.170  11.750  0.00  0.00    +0.000 C 
ATOM      3  C   UNL     1      48.876   7.737  11.539  0.00  0.00    +0.000 C 
ENDROOT
BRANCH   1   4
ATOM      4  C   UNL     1      48.197   7.979  14.063  0.00  0.00    +0.000 A 
ATOM      5  C   UNL     1      48.208   9.108  14.895  0.00  0.00    +0.000 A 
ATOM      6  C   UNL     1      48.454   9.000  16.263  0.00  0.00    +0.000 A 
ATOM      7  C   UNL     1      48.670   7.747  16.835  0.00  0.00    +0.000 A 
ATOM      8  C   UNL     1      48.653   6.579  16.058  0.00  0.00    +0.000 A 
ATOM      9  C   UNL     1      48.445   6.730  14.674  0.00  0.00    +0.000 A 
BRANCH   8  10
ATOM     10  C   UNL     1      48.795   5.244  16.681  0.00  0.00    +0.000 A 
ATOM     11  C   UNL     1      47.802   4.262  16.550  0.00  0.00    +0.000 A 
ATOM     12  C   UNL     1      47.956   3.002  17.132  0.00  0.00    +0.000 A 
ATOM     13  C   UNL     1      49.119   2.744  17.831  0.00  0.00    +0.000 A 
ATOM     14  N   UNL     1      50.112   3.644  17.980  0.00  0.00    +0.000 NA
ATOM     15  C   UNL     1      49.923   4.862  17.408  0.00  0.00    +0.000 A 
ENDBRANCH   8  10
ENDBRANCH   1   4
BRANCH   1  16
ATOM     16  N   UNL     1      46.390   7.940  12.317  0.00  0.00    +0.000 N 
ATOM     17  H   UNL     1      45.806   8.563  12.868  0.00  0.00    +0.000 HD
BRANCH  16  21
ATOM     18  C   UNL     1      44.561   4.225  11.436  0.00  0.00    +0.000 A 
ATOM     19  C   UNL     1      44.664   4.637  12.768  0.00  0.00    +0.000 A 
ATOM     20  C   UNL     1      45.269   5.863  13.078  0.00  0.00    +0.000 A 
ATOM     21  C   UNL     1      45.730   6.717  12.072  0.00  0.00    +0.000 A 
ATOM     22  C   UNL     1      45.659   6.267  10.745  0.00  0.00    +0.000 A 
ATOM     23  C   UNL     1      45.082   5.033  10.425  0.00  0.00    +0.000 A 
BRANCH  18  25
ATOM     24  N   UNL     1      44.531   2.239  10.025  0.00  0.00    +0.000 N 
ATOM     25  C   UNL     1      43.952   2.925  11.058  0.00  0.00    +0.000 C 
ATOM     26  O   UNL     1      43.000   2.457  11.667  0.00  0.00    +0.000 OA
ATOM     27  H   UNL     1      44.179   1.305   9.857  0.00  0.00    +0.000 HD
ATOM     28  H   UNL     1      45.456   2.458   9.685  0.00  0.00    +0.000 HD
ENDBRANCH  18  25
ENDBRANCH  16  21
ENDBRANCH   1  16
TORSDOF 5
ENDMDL
MODEL 5
REMARK VINA RESULT:    -6.508      3.431      7.517
REMARK INTER + INTRA:          -9.646
REMARK INTER:                  -9.609
REMARK INTRA:                  -0.037
REMARK UNBOUND:                -1.236
REMARK  Name = 
REMARK  5 active torsions:
REMARK  status: ('A' for Active; 'I' for Inactive)
REMARK    1  A    between atoms: C_2  and  C_4
REMARK    2  A    between atoms: C_7  and  N_8
REMARK    3  A    between atoms: N_8  and  C_9
REMARK    4  A    between atoms: C_9  and  C_10
REMARK    5  A    between atoms: C_14  and  C_15
REMARK                            x       y       z     vdW  Elec       q    Type
REMARK                         _______ _______ _______ _____ _____    ______ ____
ROOT
ATOM      1  C   UNL     1      48.666   7.967  12.572  0.00  0.00    +0.000 C 
ATOM      2  C   UNL     1      49.742   7.404  11.647  0.00  0.00    +0.000 C 
ATOM      3  C   UNL     1      49.478   8.874  11.673  0.00  0.00    +0.000 C 
ENDROOT
BRANCH   1   4
ATOM      4  C   UNL     1      47.202   7.690  12.229  0.00  0.00    +0.000 A 
ATOM      5  C   UNL     1      46.201   8.640  12.483  0.00  0.00    +0.000 A 
ATOM      6  C   UNL     1      44.880   8.424  12.094  0.00  0.00    +0.000 A 
ATOM      7  C   UNL     1      44.536   7.256  11.415  0.00  0.00    +0.000 A 
ATOM      8  C   UNL     1      45.495   6.277  11.117  0.00  0.00    +0.000 A 
ATOM      9  C   UNL     1      46.811   6.509  11.563  0.00  0.00    +0.000 A 
BRANCH   8  10
ATOM     10  C   UNL     1      45.145   5.081  10.319  0.00  0.00    +0.000 A 
ATOM     11  C   UNL     1      45.639   4.892   9.020  0.00  0.00    +0.000 A 
ATOM     12  C   UNL     1      45.311   3.750   8.286  0.00  0.00    +0.000 A 
ATOM     13  C   UNL     1      44.496   2.805   8.877  0.00  0.00    +0.000 A 
ATOM     14  N   UNL     1      44.002   2.927  10.126  0.00  0.00    +0.000 NA
ATOM     15  C   UNL     1      44.335   4.054  10.808  0.00  0.00    +0.000 A 
ENDBRANCH   8  10
ENDBRANCH   1   4
BRANCH   1  16
ATOM     16  N   UNL     1      48.971   7.820  14.010  0.00  0.00    +0.000 N 
ATOM     17  H   UNL     1      49.894   8.157  14.271  0.00  0.00    +0.000 HD
BRANCH  16  21
ATOM     18  C   UNL     1      47.790   4.663  16.572  0.00  0.00    +0.000 A 
ATOM     19  C   UNL     1      47.373   4.653  15.238  0.00  0.00    +0.000 A 
ATOM     20  C   UNL     1      47.753   5.691  14.376  0.00  0.00    +0.000 A 
ATOM     21  C   UNL     1      48.590   6.722  14.810  0.00  0.00    +0.000 A 
ATOM     22  C   UNL     1      48.962   6.740  16.163  0.00  0.00    +0.000 A 
ATOM     23  C   UNL     1      48.567   5.724  17.039  0.00  0.00    +0.000 A 
BRANCH  18  25
ATOM     24  N   UNL     1      48.189   3.424  18.631  0.00  0.00    +0.000 N 
ATOM     25  C   UNL     1      47.395   3.601  17.530  0.00  0.00    +0.000 C 
ATOM     26  O   UNL     1      46.380   2.937  17.373  0.00  0.00    +0.000 OA
ATOM     27  H   UNL     1      47.843   2.779  19.331  0.00  0.00    +0.000 HD
ATOM     28  H   UNL     1      48.863   4.115  18.925  0.00  0.00    +0.000 HD
ENDBRANCH  18  25
ENDBRANCH  16  21
ENDBRANCH   1  16
TORSDOF 5
ENDMDL
MODEL 6
REMARK VINA RESULT:    -6.256      5.573      8.531
REMARK INTER + INTRA:          -9.321
REMARK INTER:                  -8.702
REMARK INTRA:                  -0.619
REMARK UNBOUND:                -1.236
REMARK  Name = 
REMARK  5 active torsions:
REMARK  status: ('A' for Active; 'I' for Inactive)
REMARK    1  A    between atoms: C_2  and  C_4
REMARK    2  A    between atoms: C_7  and  N_8
REMARK    3  A    between atoms: N_8  and  C_9
REMARK    4  A    between atoms: C_9  and  C_10
REMARK    5  A    between atoms: C_14  and  C_15
REMARK                            x       y       z     vdW  Elec       q    Type
REMARK                         _______ _______ _______ _____ _____    ______ ____
ROOT
ATOM      1  C   UNL     1      48.166   4.652  17.013  0.00  0.00    +0.000 C 
ATOM      2  C   UNL     1      47.100   4.819  18.092  0.00  0.00    +0.000 C 
ATOM      3  C   UNL     1      47.248   3.510  17.390  0.00  0.00    +0.000 C 
ENDROOT
BRANCH   1   4
ATOM      4  C   UNL     1      47.961   5.368  15.678  0.00  0.00    +0.000 A 
ATOM      5  C   UNL     1      48.760   6.459  15.303  0.00  0.00    +0.000 A 
ATOM      6  C   UNL     1      48.631   7.057  14.051  0.00  0.00    +0.000 A 
ATOM      7  C   UNL     1      47.709   6.558  13.132  0.00  0.00    +0.000 A 
ATOM      8  C   UNL     1      46.894   5.459  13.442  0.00  0.00    +0.000 A 
ATOM      9  C   UNL     1      47.021   4.906  14.731  0.00  0.00    +0.000 A 
BRANCH   8  10
ATOM     10  C   UNL     1      45.980   4.877  12.434  0.00  0.00    +0.000 A 
ATOM     11  C   UNL     1      45.759   5.497  11.196  0.00  0.00    +0.000 A 
ATOM     12  C   UNL     1      44.905   4.927  10.249  0.00  0.00    +0.000 A 
ATOM     13  C   UNL     1      44.291   3.729  10.560  0.00  0.00    +0.000 A 
ATOM     14  N   UNL     1      44.475   3.082  11.729  0.00  0.00    +0.000 NA
ATOM     15  C   UNL     1      45.306   3.670  12.629  0.00  0.00    +0.000 A 
ENDBRANCH   8  10
ENDBRANCH   1   4
BRANCH   1  16
ATOM     16  N   UNL     1      49.552   4.735  17.518  0.00  0.00    +0.000 N 
ATOM     17  H   UNL     1      50.012   5.619  17.314  0.00  0.00    +0.000 HD
BRANCH  16  21
ATOM     18  C   UNL     1      52.406   1.613  17.702  0.00  0.00    +0.000 A 
ATOM     19  C   UNL     1      51.117   1.335  17.235  0.00  0.00    +0.000 A 
ATOM     20  C   UNL     1      50.159   2.356  17.169  0.00  0.00    +0.000 A 
ATOM     21  C   UNL     1      50.480   3.672  17.516  0.00  0.00    +0.000 A 
ATOM     22  C   UNL     1      51.763   3.923  18.024  0.00  0.00    +0.000 A 
ATOM     23  C   UNL     1      52.719   2.907  18.119  0.00  0.00    +0.000 A 
BRANCH  18  25
ATOM     24  N   UNL     1      53.107  -0.589  18.470  0.00  0.00    +0.000 N 
ATOM     25  C   UNL     1      53.448   0.562  17.813  0.00  0.00    +0.000 C 
ATOM     26  O   UNL     1      54.552   0.692  17.303  0.00  0.00    +0.000 OA
ATOM     27  H   UNL     1      53.786  -1.339  18.436  0.00  0.00    +0.000 HD
ATOM     28  H   UNL     1      52.148  -0.835  18.662  0.00  0.00    +0.000 HD
ENDBRANCH  18  25
ENDBRANCH  16  21
ENDBRANCH   1  16
TORSDOF 5
ENDMDL
MODEL 7
REMARK VINA RESULT:    -6.069      2.772      6.856
REMARK INTER + INTRA:          -9.078
REMARK INTER:                  -7.967
REMARK INTRA:                  -1.111
REMARK UNBOUND:                -1.236
REMARK  Name = 
REMARK  5 active torsions:
REMARK  status: ('A' for Active; 'I' for Inactive)
REMARK    1  A    between atoms: C_2  and  C_4
REMARK    2  A    between atoms: C_7  and  N_8
REMARK    3  A    between atoms: N_8  and  C_9
REMARK    4  A    between atoms: C_9  and  C_10
REMARK    5  A    between atoms: C_14  and  C_15
REMARK                            x       y       z     vdW  Elec       q    Type
REMARK                         _______ _______ _______ _____ _____    ______ ____
ROOT
ATOM      1  C   UNL     1      46.226   5.072  13.448  0.00  0.00    +0.000 C 
ATOM      2  C   UNL     1      45.909   4.359  14.760  0.00  0.00    +0.000 C 
ATOM      3  C   UNL     1      47.117   3.968  13.975  0.00  0.00    +0.000 C 
ENDROOT
BRANCH   1   4
ATOM      4  C   UNL     1      45.328   4.796  12.241  0.00  0.00    +0.000 A 
ATOM      5  C   UNL     1      44.038   5.341  12.151  0.00  0.00    +0.000 A 
ATOM      6  C   UNL     1      43.252   5.160  11.014  0.00  0.00    +0.000 A 
ATOM      7  C   UNL     1      43.753   4.448   9.926  0.00  0.00    +0.000 A 
ATOM      8  C   UNL     1      45.042   3.894   9.950  0.00  0.00    +0.000 A 
ATOM      9  C   UNL     1      45.792   4.059  11.131  0.00  0.00    +0.000 A 
BRANCH   8  10
ATOM     10  C   UNL     1      45.605   3.214   8.761  0.00  0.00    +0.000 A 
ATOM     11  C   UNL     1      45.985   3.929   7.616  0.00  0.00    +0.000 A 
ATOM     12  C   UNL     1      46.527   3.276   6.508  0.00  0.00    +0.000 A 
ATOM     13  C   UNL     1      46.690   1.906   6.573  0.00  0.00    +0.000 A 
ATOM     14  N   UNL     1      46.354   1.168   7.651  0.00  0.00    +0.000 NA
ATOM     15  C   UNL     1      45.822   1.837   8.707  0.00  0.00    +0.000 A 
ENDBRANCH   8  10
ENDBRANCH   1   4
BRANCH   1  16
ATOM     16  N   UNL     1      46.577   6.497  13.607  0.00  0.00    +0.000 N 
ATOM     17  H   UNL     1      45.790   7.131  13.486  0.00  0.00    +0.000 HD
BRANCH  16  21
ATOM     18  C   UNL     1      50.281   8.145  12.387  0.00  0.00    +0.000 A 
ATOM     19  C   UNL     1      49.288   7.913  11.431  0.00  0.00    +0.000 A 
ATOM     20  C   UNL     1      48.056   7.366  11.816  0.00  0.00    +0.000 A 
ATOM     21  C   UNL     1      47.775   7.091  13.157  0.00  0.00    +0.000 A 
ATOM     22  C   UNL     1      48.799   7.289  14.096  0.00  0.00    +0.000 A 
ATOM     23  C   UNL     1      50.041   7.809  13.720  0.00  0.00    +0.000 A 
BRANCH  18  25
ATOM     24  N   UNL     1      52.597   7.805  11.713  0.00  0.00    +0.000 N 
ATOM     25  C   UNL     1      51.609   8.700  12.026  0.00  0.00    +0.000 C 
ATOM     26  O   UNL     1      51.810   9.905  11.964  0.00  0.00    +0.000 OA
ATOM     27  H   UNL     1      53.458   8.199  11.357  0.00  0.00    +0.000 HD
ATOM     28  H   UNL     1      52.399   6.839  11.496  0.00  0.00    +0.000 HD
ENDBRANCH  18  25
ENDBRANCH  16  21
ENDBRANCH   1  16
TORSDOF 5
ENDMDL
