MODEL 1
REMARK VINA RESULT:    -8.121      0.000      0.000
REMARK INTER + INTRA:         -11.771
REMARK INTER:                 -10.970
REMARK INTRA:                  -0.801
REMARK UNBOUND:                -0.801
REMARK  Name = 
REMARK  6 active torsions:
REMARK  status: ('A' for Active; 'I' for Inactive)
REMARK    1  A    between atoms: C_5  and  O_6
REMARK    2  A    between atoms: O_6  and  C_7
REMARK    3  A    between atoms: C_7  and  C_8
REMARK    4  A    between atoms: C_8  and  C_11
REMARK    5  A    between atoms: C_13  and  O_14
REMARK    6  A    between atoms: O_14  and  C_15
REMARK                            x       y       z     vdW  Elec       q    Type
REMARK                         _______ _______ _______ _____ _____    ______ ____
ROOT
ATOM      1  C   UNL     1      44.041   4.244  12.040  0.00  0.00    +0.000 C 
ATOM      2  F   UNL     1      42.967   4.747  12.727  0.00  0.00    +0.000 F 
ATOM      3  F   UNL     1      44.073   2.911  12.352  0.00  0.00    +0.000 F 
ENDROOT
BRANCH   1   4
ATOM      4  C   UNL     1      45.333   4.941  12.464  0.00  0.00    +0.000 A 
ATOM      5  C   UNL     1      45.974   4.502  13.624  0.00  0.00    +0.000 A 
ATOM      6  C   UNL     1      47.141   5.142  14.023  0.00  0.00    +0.000 A 
ATOM      7  C   UNL     1      47.659   6.174  13.250  0.00  0.00    +0.000 A 
ATOM      8  C   UNL     1      46.972   6.548  12.112  0.00  0.00    +0.000 A 
ATOM      9  N   UNL     1      45.823   5.963  11.708  0.00  0.00    +0.000 NA
BRANCH   6  10
ATOM     10  O   UNL     1      47.873   4.812  15.136  0.00  0.00    +0.000 OA
BRANCH  10  11
ATOM     11  C   UNL     1      47.251   3.999  16.158  0.00  0.00    +0.000 C 
ATOM     12  C   UNL     1      47.167   4.574  17.589  0.00  0.00    +0.000 C 
ATOM     13  N   UNL     1      47.656   3.292  18.132  0.00  0.00    +0.000 NA
ATOM     14  C   UNL     1      48.168   2.931  16.795  0.00  0.00    +0.000 C 
ATOM     15  H   UNL     1      46.913   2.676  18.465  0.00  0.00    +0.000 HD
ENDBRANCH  10  11
ENDBRANCH   6  10
ENDBRANCH   1   4
BRANCH   1  16
ATOM     16  C   UNL     1      43.773   4.394  10.535  0.00  0.00    +0.000 C 
BRANCH  16  17
ATOM     17  O   UNL     1      43.793   3.113   9.883  0.00  0.00    +0.000 OA
BRANCH  17  22
ATOM     18  F   UNL     1      47.995   2.566   6.391  0.00  0.00    +0.000 F 
ATOM     19  C   UNL     1      46.971   2.669   7.247  0.00  0.00    +0.000 A 
ATOM     20  C   UNL     1      46.500   1.532   7.892  0.00  0.00    +0.000 A 
ATOM     21  C   UNL     1      45.431   1.635   8.787  0.00  0.00    +0.000 A 
ATOM     22  C   UNL     1      44.839   2.878   9.032  0.00  0.00    +0.000 A 
ATOM     23  C   UNL     1      45.324   4.013   8.374  0.00  0.00    +0.000 A 
ATOM     24  C   UNL     1      46.393   3.910   7.480  0.00  0.00    +0.000 A 
ENDBRANCH  17  22
ENDBRANCH  16  17
ENDBRANCH   1  16
TORSDOF 6
ENDMDL
MODEL 2
REMARK VINA RESULT:    -7.862      2.141      3.535
REMARK INTER + INTRA:         -11.421
REMARK INTER:                 -10.787
REMARK INTRA:                  -0.634
REMARK UNBOUND:                -0.801
REMARK  Name = 
REMARK  6 active torsions:
REMARK  status: ('A' for Active; 'I' for Inactive)
REMARK    1  A    between atoms: C_5  and  O_6
REMARK    2  A    between atoms: O_6  and  C_7
REMARK    3  A    between atoms: C_7  and  C_8
REMARK    4  A    between atoms: C_8  and  C_11
REMARK    5  A    between atoms: C_13  and  O_14
REMARK    6  A    between atoms: O_14  and  C_15
REMARK                            x       y       z     vdW  Elec       q    Type
REMARK                         _______ _______ _______ _____ _____    ______ ____
ROOT
ATOM      1  C   UNL     1      43.780   3.833  11.235  0.00  0.00    +0.000 C 
ATOM      2  F   UNL     1      42.824   4.811  11.308  0.00  0.00    +0.000 F 
ATOM      3  F   UNL     1      43.164   2.697  11.688  0.00  0.00    +0.000 F 
ENDROOT
BRANCH   1   4
ATOM      4  C   UNL     1      44.988   4.188  12.101  0.00  0.00    +0.000 A 
ATOM      5  C   UNL     1      45.441   5.508  12.100  0.00  0.00    +0.000 A 
ATOM      6  C   UNL     1      46.550   5.834  12.872  0.00  0.00    +0.000 A 
ATOM      7  C   UNL     1      47.159   4.855  13.647  0.00  0.00    +0.000 A 
ATOM      8  C   UNL     1      46.651   3.572  13.601  0.00  0.00    +0.000 A 
ATOM      9  N   UNL     1      45.589   3.217  12.843  0.00  0.00    +0.000 NA
BRANCH   6  10
ATOM     10  O   UNL     1      47.096   7.088  12.967  0.00  0.00    +0.000 OA
BRANCH  10  11
ATOM     11  C   UNL     1      46.531   8.153  12.166  0.00  0.00    +0.000 C 
ATOM     12  C   UNL     1      47.277   9.505  12.130  0.00  0.00    +0.000 C 
ATOM     13  N   UNL     1      46.001  10.213  12.353  0.00  0.00    +0.000 NA
ATOM     14  C   UNL     1      45.401   8.957  12.845  0.00  0.00    +0.000 C 
ATOM     15  H   UNL     1      45.571  10.564  11.497  0.00  0.00    +0.000 HD
ENDBRANCH  10  11
ENDBRANCH   6  10
ENDBRANCH   1   4
BRANCH   1  16
ATOM     16  C   UNL     1      44.166   3.633   9.762  0.00  0.00    +0.000 C 
BRANCH  16  17
ATOM     17  O   UNL     1      44.829   2.371   9.575  0.00  0.00    +0.000 OA
BRANCH  17  22
ATOM     18  F   UNL     1      48.007   2.333   5.098  0.00  0.00    +0.000 F 
ATOM     19  C   UNL     1      47.238   2.313   6.193  0.00  0.00    +0.000 A 
ATOM     20  C   UNL     1      47.121   1.138   6.926  0.00  0.00    +0.000 A 
ATOM     21  C   UNL     1      46.320   1.112   8.071  0.00  0.00    +0.000 A 
ATOM     22  C   UNL     1      45.639   2.264   8.477  0.00  0.00    +0.000 A 
ATOM     23  C   UNL     1      45.767   3.438   7.728  0.00  0.00    +0.000 A 
ATOM     24  C   UNL     1      46.568   3.465   6.583  0.00  0.00    +0.000 A 
ENDBRANCH  17  22
ENDBRANCH  16  17
ENDBRANCH   1  16
TORSDOF 6
ENDMDL
MODEL 3
REMARK VINA RESULT:    -7.204      2.628      2.940
REMARK INTER + INTRA:         -10.532
REMARK INTER:                  -9.941
REMARK INTRA:                  -0.591
REMARK UNBOUND:                -0.801
REMARK  Name = 
REMARK  6 active torsions:
REMARK  status: ('A' for Active; 'I' for Inactive)
REMARK    1  A    between atoms: C_5  and  O_6
REMARK    2  A    between atoms: O_6  and  C_7
REMARK    3  A    between atoms: C_7  and  C_8
REMARK    4  A    between atoms: C_8  and  C_11
REMARK    5  A    between atoms: C_13  and  O_14
REMARK    6  A    between atoms: O_14  and  C_15
REMARK                            x       y       z     vdW  Elec       q    Type
REMARK                         _______ _______ _______ _____ _____    ______ ____
ROOT
ATOM      1  C   UNL     1      44.096   4.057  11.185  0.00  0.00    +0.000 C 
ATOM      2  F   UNL     1      42.750   3.938  11.411  0.00  0.00    +0.000 F 
ATOM      3  F   UNL     1      44.673   3.066  11.934  0.00  0.00    +0.000 F 
ENDROOT
BRANCH   1   4
ATOM      4  C   UNL     1      44.600   5.434  11.612  0.00  0.00    +0.000 A 
ATOM      5  C   UNL     1      45.689   5.502  12.485  0.00  0.00    +0.000 A 
ATOM      6  C   UNL     1      46.142   6.752  12.890  0.00  0.00    +0.000 A 
ATOM      7  C   UNL     1      45.530   7.898  12.398  0.00  0.00    +0.000 A 
ATOM      8  C   UNL     1      44.463   7.752  11.533  0.00  0.00    +0.000 A 
ATOM      9  N   UNL     1      43.983   6.551  11.138  0.00  0.00    +0.000 NA
BRANCH   6  10
ATOM     10  O   UNL     1      47.200   6.963  13.737  0.00  0.00    +0.000 OA
BRANCH  10  11
ATOM     11  C   UNL     1      48.533   6.640  13.276  0.00  0.00    +0.000 C 
ATOM     12  C   UNL     1      49.724   7.359  13.946  0.00  0.00    +0.000 C 
ATOM     13  N   UNL     1      50.303   7.635  12.617  0.00  0.00    +0.000 NA
ATOM     14  C   UNL     1      48.985   7.386  12.001  0.00  0.00    +0.000 C 
ATOM     15  H   UNL     1      51.020   6.968  12.334  0.00  0.00    +0.000 HD
ENDBRANCH  10  11
ENDBRANCH   6  10
ENDBRANCH   1   4
BRANCH   1  16
ATOM     16  C   UNL     1      44.371   3.779   9.700  0.00  0.00    +0.000 C 
BRANCH  16  17
ATOM     17  O   UNL     1      44.990   2.493   9.527  0.00  0.00    +0.000 OA
BRANCH  17  22
ATOM     18  F   UNL     1      48.072   2.261   4.989  0.00  0.00    +0.000 F 
ATOM     19  C   UNL     1      47.326   2.288   6.100  0.00  0.00    +0.000 A 
ATOM     20  C   UNL     1      47.220   1.144   6.883  0.00  0.00    +0.000 A 
ATOM     21  C   UNL     1      46.444   1.167   8.044  0.00  0.00    +0.000 A 
ATOM     22  C   UNL     1      45.776   2.338   8.417  0.00  0.00    +0.000 A 
ATOM     23  C   UNL     1      45.892   3.481   7.619  0.00  0.00    +0.000 A 
ATOM     24  C   UNL     1      46.669   3.458   6.458  0.00  0.00    +0.000 A 
ENDBRANCH  17  22
ENDBRANCH  16  17
ENDBRANCH   1  16
TORSDOF 6
ENDMDL
MODEL 4
REMARK VINA RESULT:    -7.123      2.982      7.647
REMARK INTER + INTRA:         -10.423
REMARK INTER:                  -9.838
REMARK INTRA:                  -0.585
REMARK UNBOUND:                -0.801
REMARK  Name = 
REMARK  6 active torsions:
REMARK  status: ('A' for Active; 'I' for Inactive)
REMARK    1  A    between atoms: C_5  and  O_6
REMARK    2  A    between atoms: O_6  and  C_7
REMARK    3  A    between atoms: C_7  and  C_8
REMARK    4  A    between atoms: C_8  and  C_11
REMARK    5  A    between atoms: C_13  and  O_14
REMARK    6  A    between atoms: O_14  and  C_15
REMARK                            x       y       z     vdW  Elec       q    Type
REMARK                         _______ _______ _______ _____ _____    ______ ____
ROOT
ATOM      1  C   UNL     1      45.430   5.718  11.579  0.00  0.00    +0.000 C 
ATOM      2  F   UNL     1      44.568   6.767  11.398  0.00  0.00    +0.000 F 
ATOM      3  F   UNL     1      46.677   6.235  11.349  0.00  0.00    +0.000 F 
ENDROOT
BRANCH   1   4
ATOM      4  C   UNL     1      45.116   4.582  10.608  0.00  0.00    +0.000 A 
ATOM      5  C   UNL     1      45.593   4.676   9.299  0.00  0.00    +0.000 A 
ATOM      6  C   UNL     1      45.297   3.654   8.405  0.00  0.00    +0.000 A 
ATOM      7  C   UNL     1      44.568   2.553   8.837  0.00  0.00    +0.000 A 
ATOM      8  C   UNL     1      44.137   2.526  10.148  0.00  0.00    +0.000 A 
ATOM      9  N   UNL     1      44.386   3.515  11.036  0.00  0.00    +0.000 NA
BRANCH   6  10
ATOM     10  O   UNL     1      45.704   3.617   7.096  0.00  0.00    +0.000 OA
BRANCH  10  11
ATOM     11  C   UNL     1      47.085   3.297   6.807  0.00  0.00    +0.000 C 
ATOM     12  C   UNL     1      47.449   2.903   5.359  0.00  0.00    +0.000 C 
ATOM     13  N   UNL     1      48.228   1.757   5.869  0.00  0.00    +0.000 NA
ATOM     14  C   UNL     1      47.511   1.854   7.156  0.00  0.00    +0.000 C 
ATOM     15  H   UNL     1      49.228   1.940   5.943  0.00  0.00    +0.000 HD
ENDBRANCH  10  11
ENDBRANCH   6  10
ENDBRANCH   1   4
BRANCH   1  16
ATOM     16  C   UNL     1      45.346   5.262  13.044  0.00  0.00    +0.000 C 
BRANCH  16  17
ATOM     17  O   UNL     1      46.530   4.539  13.422  0.00  0.00    +0.000 OA
BRANCH  17  22
ATOM     18  F   UNL     1      49.304   6.301  17.821  0.00  0.00    +0.000 F 
ATOM     19  C   UNL     1      48.638   5.896  16.733  0.00  0.00    +0.000 A 
ATOM     20  C   UNL     1      48.746   6.622  15.553  0.00  0.00    +0.000 A 
ATOM     21  C   UNL     1      48.053   6.202  14.414  0.00  0.00    +0.000 A 
ATOM     22  C   UNL     1      47.254   5.055  14.463  0.00  0.00    +0.000 A 
ATOM     23  C   UNL     1      47.155   4.336  15.658  0.00  0.00    +0.000 A 
ATOM     24  C   UNL     1      47.848   4.755  16.796  0.00  0.00    +0.000 A 
ENDBRANCH  17  22
ENDBRANCH  16  17
ENDBRANCH   1  16
TORSDOF 6
ENDMDL
MODEL 5
REMARK VINA RESULT:    -6.906      2.022      2.443
REMARK INTER + INTRA:         -10.130
REMARK INTER:                  -9.694
REMARK INTRA:                  -0.436
REMARK UNBOUND:                -0.801
REMARK  Name = 
REMARK  6 active torsions:
REMARK  status: ('A' for Active; 'I' for Inactive)
REMARK    1  A    between atoms: C_5  and  O_6
REMARK    2  A    between atoms: O_6  and  C_7
REMARK    3  A    between atoms: C_7  and  C_8
REMARK    4  A    between atoms: C_8  and  C_11
REMARK    5  A    between atoms: C_13  and  O_14
REMARK    6  A    between atoms: O_14  and  C_15
REMARK                            x       y       z     vdW  Elec       q    Type
REMARK                         _______ _______ _______ _____ _____    ______ ____
ROOT
ATOM      1  C   UNL     1      44.344   4.044  12.155  0.00  0.00    +0.000 C 
ATOM      2  F   UNL     1      43.491   3.974  13.225  0.00  0.00    +0.000 F 
ATOM      3  F   UNL     1      45.264   3.051  12.365  0.00  0.00    +0.000 F 
ENDROOT
BRANCH   1   4
ATOM      4  C   UNL     1      45.018   5.414  12.085  0.00  0.00    +0.000 A 
ATOM      5  C   UNL     1      46.405   5.480  12.235  0.00  0.00    +0.000 A 
ATOM      6  C   UNL     1      47.022   6.725  12.188  0.00  0.00    +0.000 A 
ATOM      7  C   UNL     1      46.258   7.863  11.963  0.00  0.00    +0.000 A 
ATOM      8  C   UNL     1      44.892   7.717  11.818  0.00  0.00    +0.000 A 
ATOM      9  N   UNL     1      44.258   6.525  11.881  0.00  0.00    +0.000 NA
BRANCH   6  10
ATOM     10  O   UNL     1      48.371   6.933  12.316  0.00  0.00    +0.000 OA
BRANCH  10  11
ATOM     11  C   UNL     1      48.924   7.103  13.642  0.00  0.00    +0.000 C 
ATOM     12  C   UNL     1      48.254   6.343  14.808  0.00  0.00    +0.000 C 
ATOM     13  N   UNL     1      48.272   7.576  15.619  0.00  0.00    +0.000 NA
ATOM     14  C   UNL     1      48.459   8.372  14.390  0.00  0.00    +0.000 C 
ATOM     15  H   UNL     1      49.059   7.631  16.266  0.00  0.00    +0.000 HD
ENDBRANCH  10  11
ENDBRANCH   6  10
ENDBRANCH   1   4
BRANCH   1  16
ATOM     16  C   UNL     1      43.555   3.725  10.877  0.00  0.00    +0.000 C 
BRANCH  16  17
ATOM     17  O   UNL     1      44.180   4.322   9.728  0.00  0.00    +0.000 OA
BRANCH  17  22
ATOM     18  F   UNL     1      47.658   1.423   6.622  0.00  0.00    +0.000 F 
ATOM     19  C   UNL     1      46.800   2.104   7.391  0.00  0.00    +0.000 A 
ATOM     20  C   UNL     1      46.017   1.421   8.315  0.00  0.00    +0.000 A 
ATOM     21  C   UNL     1      45.121   2.127   9.121  0.00  0.00    +0.000 A 
ATOM     22  C   UNL     1      45.013   3.517   8.999  0.00  0.00    +0.000 A 
ATOM     23  C   UNL     1      45.808   4.189   8.066  0.00  0.00    +0.000 A 
ATOM     24  C   UNL     1      46.704   3.483   7.259  0.00  0.00    +0.000 A 
ENDBRANCH  17  22
ENDBRANCH  16  17
ENDBRANCH   1  16
TORSDOF 6
ENDMDL
MODEL 6
REMARK VINA RESULT:    -6.886      3.309      7.232
REMARK INTER + INTRA:         -10.102
REMARK INTER:                  -9.553
REMARK INTRA:                  -0.549
REMARK UNBOUND:                -0.801
REMARK  Name = 
REMARK  6 active torsions:
REMARK  status: ('A' for Active; 'I' for Inactive)
REMARK    1  A    between atoms: C_5  and  O_6
REMARK    2  A    between atoms: O_6  and  C_7
REMARK    3  A    between atoms: C_7  and  C_8
REMARK    4  A    between atoms: C_8  and  C_11
REMARK    5  A    between atoms: C_13  and  O_14
REMARK    6  A    between atoms: O_14  and  C_15
REMARK                            x       y       z     vdW  Elec       q    Type
REMARK                         _______ _______ _______ _____ _____    ______ ____
ROOT
ATOM      1  C   UNL     1      45.157   5.956  11.204  0.00  0.00    +0.000 C 
ATOM      2  F   UNL     1      43.952   6.516  11.537  0.00  0.00    +0.000 F 
ATOM      3  F   UNL     1      45.785   6.895  10.428  0.00  0.00    +0.000 F 
ENDROOT
BRANCH   1   4
ATOM      4  C   UNL     1      44.958   4.650  10.437  0.00  0.00    +0.000 A 
ATOM      5  C   UNL     1      45.416   4.577   9.120  0.00  0.00    +0.000 A 
ATOM      6  C   UNL     1      45.223   3.397   8.411  0.00  0.00    +0.000 A 
ATOM      7  C   UNL     1      44.615   2.314   9.032  0.00  0.00    +0.000 A 
ATOM      8  C   UNL     1      44.194   2.459  10.339  0.00  0.00    +0.000 A 
ATOM      9  N   UNL     1      44.345   3.600  11.049  0.00  0.00    +0.000 NA
BRANCH   6  10
ATOM     10  O   UNL     1      45.625   3.188   7.117  0.00  0.00    +0.000 OA
BRANCH  10  11
ATOM     11  C   UNL     1      47.040   3.064   6.841  0.00  0.00    +0.000 C 
ATOM     12  C   UNL     1      47.477   2.856   5.374  0.00  0.00    +0.000 C 
ATOM     13  N   UNL     1      48.378   1.767   5.798  0.00  0.00    +0.000 NA
ATOM     14  C   UNL     1      47.632   1.654   7.066  0.00  0.00    +0.000 C 
ATOM     15  H   UNL     1      49.348   2.060   5.919  0.00  0.00    +0.000 HD
ENDBRANCH  10  11
ENDBRANCH   6  10
ENDBRANCH   1   4
BRANCH   1  16
ATOM     16  C   UNL     1      45.974   5.751  12.488  0.00  0.00    +0.000 C 
BRANCH  16  17
ATOM     17  O   UNL     1      46.258   7.011  13.120  0.00  0.00    +0.000 OA
BRANCH  17  22
ATOM     18  F   UNL     1      50.803   9.439  11.223  0.00  0.00    +0.000 F 
ATOM     19  C   UNL     1      49.680   8.874  11.684  0.00  0.00    +0.000 A 
ATOM     20  C   UNL     1      48.532   9.644  11.823  0.00  0.00    +0.000 A 
ATOM     21  C   UNL     1      47.358   9.059  12.303  0.00  0.00    +0.000 A 
ATOM     22  C   UNL     1      47.339   7.702  12.643  0.00  0.00    +0.000 A 
ATOM     23  C   UNL     1      48.503   6.940  12.498  0.00  0.00    +0.000 A 
ATOM     24  C   UNL     1      49.677   7.526  12.018  0.00  0.00    +0.000 A 
ENDBRANCH  17  22
ENDBRANCH  16  17
ENDBRANCH   1  16
TORSDOF 6
ENDMDL
MODEL 7
REMARK VINA RESULT:    -6.353      2.867      6.689
REMARK INTER + INTRA:          -9.382
REMARK INTER:                  -8.874
REMARK INTRA:                  -0.508
REMARK UNBOUND:                -0.801
REMARK  Name = 
REMARK  6 active torsions:
REMARK  status: ('A' for Active; 'I' for Inactive)
REMARK    1  A    between atoms: C_5  and  O_6
REMARK    2  A    between atoms: O_6  and  C_7
REMARK    3  A    between atoms: C_7  and  C_8
REMARK    4  A    between atoms: C_8  and  C_11
REMARK    5  A    between atoms: C_13  and  O_14
REMARK    6  A    between atoms: O_14  and  C_15
REMARK                            x       y       z     vdW  Elec       q    Type
REMARK                         _______ _______ _______ _____ _____    ______ ____
ROOT
ATOM      1  C   UNL     1      46.617   4.532  13.862  0.00  0.00    +0.000 C 
ATOM      2  F   UNL     1      47.492   3.501  13.640  0.00  0.00    +0.000 F 
ATOM      3  F   UNL     1      46.340   4.483  15.203  0.00  0.00    +0.000 F 
ENDROOT
BRANCH   1   4
ATOM      4  C   UNL     1      45.348   4.357  13.030  0.00  0.00    +0.000 A 
ATOM      5  C   UNL     1      45.405   3.546  11.894  0.00  0.00    +0.000 A 
ATOM      6  C   UNL     1      44.258   3.397  11.124  0.00  0.00    +0.000 A 
ATOM      7  C   UNL     1      43.081   4.024  11.514  0.00  0.00    +0.000 A 
ATOM      8  C   UNL     1      43.100   4.804  12.652  0.00  0.00    +0.000 A 
ATOM      9  N   UNL     1      44.204   4.990  13.411  0.00  0.00    +0.000 NA
BRANCH   6  10
ATOM     10  O   UNL     1      44.172   2.630   9.990  0.00  0.00    +0.000 OA
BRANCH  10  11
ATOM     11  C   UNL     1      44.519   3.229   8.720  0.00  0.00    +0.000 C 
ATOM     12  C   UNL     1      45.809   2.747   8.021  0.00  0.00    +0.000 C 
ATOM     13  N   UNL     1      46.194   4.150   7.768  0.00  0.00    +0.000 NA
ATOM     14  C   UNL     1      45.247   4.588   8.812  0.00  0.00    +0.000 C 
ATOM     15  H   UNL     1      45.954   4.480   6.833  0.00  0.00    +0.000 HD
ENDBRANCH  10  11
ENDBRANCH   6  10
ENDBRANCH   1   4
BRANCH   1  16
ATOM     16  C   UNL     1      47.331   5.856  13.553  0.00  0.00    +0.000 C 
BRANCH  16  17
ATOM     17  O   UNL     1      46.994   6.322  12.235  0.00  0.00    +0.000 OA
BRANCH  17  22
ATOM     18  F   UNL     1      45.109  11.452  11.706  0.00  0.00    +0.000 F 
ATOM     19  C   UNL     1      45.596  10.212  11.842  0.00  0.00    +0.000 A 
ATOM     20  C   UNL     1      46.911  10.034  12.255  0.00  0.00    +0.000 A 
ATOM     21  C   UNL     1      47.423   8.742  12.400  0.00  0.00    +0.000 A 
ATOM     22  C   UNL     1      46.615   7.633  12.130  0.00  0.00    +0.000 A 
ATOM     23  C   UNL     1      45.294   7.829  11.715  0.00  0.00    +0.000 A 
ATOM     24  C   UNL     1      44.781   9.121  11.571  0.00  0.00    +0.000 A 
ENDBRANCH  17  22
ENDBRANCH  16  17
ENDBRANCH   1  16
TORSDOF 6
ENDMDL
MODEL 8
REMARK VINA RESULT:    -6.256      2.840      4.332
REMARK INTER + INTRA:          -9.252
REMARK INTER:                  -8.388
REMARK INTRA:                  -0.864
REMARK UNBOUND:                -0.801
REMARK  Name = 
REMARK  6 active torsions:
REMARK  status: ('A' for Active; 'I' for Inactive)
REMARK    1  A    between atoms: C_5  and  O_6
REMARK    2  A    between atoms: O_6  and  C_7
REMARK    3  A    between atoms: C_7  and  C_8
REMARK    4  A    between atoms: C_8  and  C_11
REMARK    5  A    between atoms: C_13  and  O_14
REMARK    6  A    between atoms: O_14  and  C_15
REMARK                            x       y       z     vdW  Elec       q    Type
REMARK                         _______ _______ _______ _____ _____    ______ ____
ROOT
ATOM      1  C   UNL     1      47.198   8.130  12.338  0.00  0.00    +0.000 C 
ATOM      2  F   UNL     1      47.760   7.330  11.379  0.00  0.00    +0.000 F 
ATOM      3  F   UNL     1      47.368   9.410  11.882  0.00  0.00    +0.000 F 
ENDROOT
BRANCH   1   4
ATOM      4  C   UNL     1      47.888   7.930  13.686  0.00  0.00    +0.000 A 
ATOM      5  C   UNL     1      48.005   6.632  14.187  0.00  0.00    +0.000 A 
ATOM      6  C   UNL     1      48.617   6.444  15.420  0.00  0.00    +0.000 A 
ATOM      7  C   UNL     1      49.125   7.539  16.109  0.00  0.00    +0.000 A 
ATOM      8  C   UNL     1      48.978   8.792  15.548  0.00  0.00    +0.000 A 
ATOM      9  N   UNL     1      48.367   9.011  14.362  0.00  0.00    +0.000 NA
BRANCH   6  10
ATOM     10  O   UNL     1      48.801   5.227  16.025  0.00  0.00    +0.000 OA
BRANCH  10  11
ATOM     11  C   UNL     1      47.646   4.389  16.263  0.00  0.00    +0.000 C 
ATOM     12  C   UNL     1      47.001   4.427  17.666  0.00  0.00    +0.000 C 
ATOM     13  N   UNL     1      46.953   2.952  17.682  0.00  0.00    +0.000 NA
ATOM     14  C   UNL     1      47.962   2.916  16.606  0.00  0.00    +0.000 C 
ATOM     15  H   UNL     1      46.049   2.566  17.409  0.00  0.00    +0.000 HD
ENDBRANCH  10  11
ENDBRANCH   6  10
ENDBRANCH   1   4
BRANCH   1  16
ATOM     16  C   UNL     1      45.694   7.827  12.411  0.00  0.00    +0.000 C 
BRANCH  16  17
ATOM     17  O   UNL     1      45.262   7.109  11.243  0.00  0.00    +0.000 OA
BRANCH  17  22
ATOM     18  F   UNL     1      43.011   2.127  11.756  0.00  0.00    +0.000 F 
ATOM     19  C   UNL     1      43.547   3.350  11.657  0.00  0.00    +0.000 A 
ATOM     20  C   UNL     1      43.364   4.263  12.688  0.00  0.00    +0.000 A 
ATOM     21  C   UNL     1      43.922   5.540  12.590  0.00  0.00    +0.000 A 
ATOM     22  C   UNL     1      44.663   5.897  11.459  0.00  0.00    +0.000 A 
ATOM     23  C   UNL     1      44.838   4.966  10.430  0.00  0.00    +0.000 A 
ATOM     24  C   UNL     1      44.279   3.689  10.527  0.00  0.00    +0.000 A 
ENDBRANCH  17  22
ENDBRANCH  16  17
ENDBRANCH   1  16
TORSDOF 6
ENDMDL
MODEL 9
REMARK VINA RESULT:    -6.187      4.204      8.239
REMARK INTER + INTRA:          -9.158
REMARK INTER:                  -8.587
REMARK INTRA:                  -0.572
REMARK UNBOUND:                -0.801
REMARK  Name = 
REMARK  6 active torsions:
REMARK  status: ('A' for Active; 'I' for Inactive)
REMARK    1  A    between atoms: C_5  and  O_6
REMARK    2  A    between atoms: O_6  and  C_7
REMARK    3  A    between atoms: C_7  and  C_8
REMARK    4  A    between atoms: C_8  and  C_11
REMARK    5  A    between atoms: C_13  and  O_14
REMARK    6  A    between atoms: O_14  and  C_15
REMARK                            x       y       z     vdW  Elec       q    Type
REMARK                         _______ _______ _______ _____ _____    ______ ____
ROOT
ATOM      1  C   UNL     1      47.587   4.147  16.841  0.00  0.00    +0.000 C 
ATOM      2  F   UNL     1      47.111   2.865  16.764  0.00  0.00    +0.000 F 
ATOM      3  F   UNL     1      46.795   4.767  17.771  0.00  0.00    +0.000 F 
ENDROOT
BRANCH   1   4
ATOM      4  C   UNL     1      47.494   4.845  15.485  0.00  0.00    +0.000 A 
ATOM      5  C   UNL     1      46.526   4.408  14.578  0.00  0.00    +0.000 A 
ATOM      6  C   UNL     1      46.447   5.028  13.337  0.00  0.00    +0.000 A 
ATOM      7  C   UNL     1      47.303   6.081  13.039  0.00  0.00    +0.000 A 
ATOM      8  C   UNL     1      48.229   6.462  13.989  0.00  0.00    +0.000 A 
ATOM      9  N   UNL     1      48.348   5.865  15.196  0.00  0.00    +0.000 NA
BRANCH   6  10
ATOM     10  O   UNL     1      45.545   4.702  12.356  0.00  0.00    +0.000 OA
BRANCH  10  11
ATOM     11  C   UNL     1      44.332   5.483  12.243  0.00  0.00    +0.000 C 
ATOM     12  C   UNL     1      43.090   5.007  13.028  0.00  0.00    +0.000 C 
ATOM     13  N   UNL     1      42.258   5.198  11.824  0.00  0.00    +0.000 NA
ATOM     14  C   UNL     1      43.476   5.188  10.991  0.00  0.00    +0.000 C 
ATOM     15  H   UNL     1      41.758   6.087  11.806  0.00  0.00    +0.000 HD
ENDBRANCH  10  11
ENDBRANCH   6  10
ENDBRANCH   1   4
BRANCH   1  16
ATOM     16  C   UNL     1      49.029   4.104  17.368  0.00  0.00    +0.000 C 
BRANCH  16  17
ATOM     17  O   UNL     1      49.725   2.955  16.856  0.00  0.00    +0.000 OA
BRANCH  17  22
ATOM     18  F   UNL     1      54.632   1.558  18.888  0.00  0.00    +0.000 F 
ATOM     19  C   UNL     1      53.440   1.927  18.402  0.00  0.00    +0.000 A 
ATOM     20  C   UNL     1      53.047   3.257  18.488  0.00  0.00    +0.000 A 
ATOM     21  C   UNL     1      51.805   3.648  17.982  0.00  0.00    +0.000 A 
ATOM     22  C   UNL     1      50.960   2.703  17.390  0.00  0.00    +0.000 A 
ATOM     23  C   UNL     1      51.370   1.368  17.311  0.00  0.00    +0.000 A 
ATOM     24  C   UNL     1      52.612   0.977  17.817  0.00  0.00    +0.000 A 
ENDBRANCH  17  22
ENDBRANCH  16  17
ENDBRANCH   1  16
TORSDOF 6
ENDMDL
