MODEL 1
REMARK VINA RESULT:    -7.887      0.000      0.000
REMARK INTER + INTRA:         -12.515
REMARK INTER:                 -11.344
REMARK INTRA:                  -1.171
REMARK UNBOUND:                -1.171
REMARK  Name = 
REMARK  8 active torsions:
REMARK  status: ('A' for Active; 'I' for Inactive)
REMARK    1  A    between atoms: N_1  and  C_2
REMARK    2  A    between atoms: C_2  and  C_3
REMARK    3  A    between atoms: C_3  and  N_4
REMARK    4  A    between atoms: C_3  and  C_17
REMARK    5  A    between atoms: C_5  and  C_7
REMARK    6  A    between atoms: C_20  and  O_21
REMARK    7  A    between atoms: O_21  and  C_22
REMARK    8  A    between atoms: C_22  and  C_23
REMARK                            x       y       z     vdW  Elec       q    Type
REMARK                         _______ _______ _______ _____ _____    ______ ____
ROOT
ATOM      1  C   UNL     1      47.233   6.914  12.843  0.00  0.00    +0.000 C 
ENDROOT
BRANCH   1   2
ATOM      2  C   UNL     1      46.170   6.023  12.205  0.00  0.00    +0.000 A 
ATOM      3  C   UNL     1      45.413   6.500  11.126  0.00  0.00    +0.000 A 
ATOM      4  C   UNL     1      44.597   5.630  10.397  0.00  0.00    +0.000 A 
ATOM      5  C   UNL     1      44.535   4.280  10.741  0.00  0.00    +0.000 A 
ATOM      6  C   UNL     1      45.157   3.842  11.909  0.00  0.00    +0.000 A 
ATOM      7  C   UNL     1      45.966   4.709  12.637  0.00  0.00    +0.000 A 
BRANCH   5   8
ATOM      8  O   UNL     1      43.878   3.451   9.869  0.00  0.00    +0.000 OA
BRANCH   8   9
ATOM      9  C   UNL     1      44.529   2.181   9.692  0.00  0.00    +0.000 C 
BRANCH   9  10
ATOM     10  C   UNL     1      45.461   2.214   8.506  0.00  0.00    +0.000 A 
ATOM     11  C   UNL     1      45.528   3.349   7.701  0.00  0.00    +0.000 A 
ATOM     12  C   UNL     1      46.435   3.372   6.646  0.00  0.00    +0.000 A 
ATOM     13  C   UNL     1      47.253   2.269   6.429  0.00  0.00    +0.000 A 
ATOM     14  C   UNL     1      47.134   1.186   7.283  0.00  0.00    +0.000 A 
ATOM     15  N   UNL     1      46.265   1.135   8.317  0.00  0.00    +0.000 NA
ENDBRANCH   9  10
ENDBRANCH   8   9
ENDBRANCH   5   8
ENDBRANCH   1   2
BRANCH   1  16
ATOM     16  N   UNL     1      47.820   6.249  13.994  0.00  0.00    +0.000 N 
ATOM     17  C   UNL     1      48.409   6.962  15.007  0.00  0.00    +0.000 C 
ATOM     18  O   UNL     1      48.407   8.192  15.006  0.00  0.00    +0.000 OA
ATOM     19  H   UNL     1      47.914   5.239  13.947  0.00  0.00    +0.000 HD
BRANCH  17  20
ATOM     20  C   UNL     1      49.031   6.210  16.108  0.00  0.00    +0.000 A 
ATOM     21  C   UNL     1      50.261   6.628  16.600  0.00  0.00    +0.000 A 
ATOM     22  S   UNL     1      50.838   5.698  17.904  0.00  0.00    +0.000 S 
ATOM     23  C   UNL     1      49.477   4.679  17.846  0.00  0.00    +0.000 A 
ATOM     24  N   UNL     1      49.347   3.650  18.723  0.00  0.00    +0.000 NA
ATOM     25  C   UNL     1      48.279   2.945  18.558  0.00  0.00    +0.000 A 
ATOM     26  N   UNL     1      47.330   3.175  17.597  0.00  0.00    +0.000 N 
ATOM     27  C   UNL     1      47.423   4.194  16.682  0.00  0.00    +0.000 A 
ATOM     28  O   UNL     1      46.577   4.347  15.807  0.00  0.00    +0.000 OA
ATOM     29  C   UNL     1      48.598   5.037  16.837  0.00  0.00    +0.000 A 
ATOM     30  H   UNL     1      46.523   2.573  17.513  0.00  0.00    +0.000 HD
ENDBRANCH  17  20
ENDBRANCH   1  16
BRANCH   1  31
ATOM     31  C   UNL     1      48.338   7.394  11.841  0.00  0.00    +0.000 C 
BRANCH  31  32
ATOM     32  N   UNL     1      48.614   8.837  11.886  0.00  0.00    +0.000 NA
ATOM     33  H   UNL     1      48.661   9.204  10.937  0.00  0.00    +0.000 HD
ATOM     34  H   UNL     1      49.536   8.987  12.299  0.00  0.00    +0.000 HD
ENDBRANCH  31  32
ENDBRANCH   1  31
TORSDOF 8
ENDMDL
MODEL 2
REMARK VINA RESULT:    -7.518      1.614      2.312
REMARK INTER + INTRA:         -11.986
REMARK INTER:                 -11.066
REMARK INTRA:                  -0.920
REMARK UNBOUND:                -1.171
REMARK  Name = 
REMARK  8 active torsions:
REMARK  status: ('A' for Active; 'I' for Inactive)
REMARK    1  A    between atoms: N_1  and  C_2
REMARK    2  A    between atoms: C_2  and  C_3
REMARK    3  A    between atoms: C_3  and  N_4
REMARK    4  A    between atoms: C_3  and  C_17
REMARK    5  A    between atoms: C_5  and  C_7
REMARK    6  A    between atoms: C_20  and  O_21
REMARK    7  A    between atoms: O_21  and  C_22
REMARK    8  A    between atoms: C_22  and  C_23
REMARK                            x       y       z     vdW  Elec       q    Type
REMARK                         _______ _______ _______ _____ _____    ______ ____
ROOT
ATOM      1  C   UNL     1      47.379   6.693  13.565  0.00  0.00    +0.000 C 
ENDROOT
BRANCH   1   2
ATOM      2  C   UNL     1      46.378   5.836  12.793  0.00  0.00    +0.000 A 
ATOM      3  C   UNL     1      45.817   6.316  11.602  0.00  0.00    +0.000 A 
ATOM      4  C   UNL     1      45.076   5.465  10.777  0.00  0.00    +0.000 A 
ATOM      5  C   UNL     1      44.892   4.131  11.138  0.00  0.00    +0.000 A 
ATOM      6  C   UNL     1      45.308   3.699  12.396  0.00  0.00    +0.000 A 
ATOM      7  C   UNL     1      46.043   4.547  13.218  0.00  0.00    +0.000 A 
BRANCH   5   8
ATOM      8  O   UNL     1      44.330   3.309  10.195  0.00  0.00    +0.000 OA
BRANCH   8   9
ATOM      9  C   UNL     1      44.514   3.780   8.849  0.00  0.00    +0.000 C 
BRANCH   9  10
ATOM     10  C   UNL     1      45.559   2.962   8.130  0.00  0.00    +0.000 A 
ATOM     11  C   UNL     1      46.384   3.562   7.182  0.00  0.00    +0.000 A 
ATOM     12  C   UNL     1      47.374   2.797   6.574  0.00  0.00    +0.000 A 
ATOM     13  C   UNL     1      47.518   1.462   6.933  0.00  0.00    +0.000 A 
ATOM     14  C   UNL     1      46.667   0.946   7.894  0.00  0.00    +0.000 A 
ATOM     15  N   UNL     1      45.698   1.664   8.504  0.00  0.00    +0.000 NA
ENDBRANCH   9  10
ENDBRANCH   8   9
ENDBRANCH   5   8
ENDBRANCH   1   2
BRANCH   1  16
ATOM     16  N   UNL     1      47.929   5.941  14.679  0.00  0.00    +0.000 N 
ATOM     17  C   UNL     1      48.469   6.572  15.771  0.00  0.00    +0.000 C 
ATOM     18  O   UNL     1      48.450   7.799  15.871  0.00  0.00    +0.000 OA
ATOM     19  H   UNL     1      48.038   4.939  14.553  0.00  0.00    +0.000 HD
BRANCH  17  20
ATOM     20  C   UNL     1      49.057   5.738  16.830  0.00  0.00    +0.000 A 
ATOM     21  C   UNL     1      48.213   5.024  17.672  0.00  0.00    +0.000 A 
ATOM     22  S   UNL     1      49.029   4.064  18.816  0.00  0.00    +0.000 S 
ATOM     23  C   UNL     1      50.545   4.586  18.251  0.00  0.00    +0.000 A 
ATOM     24  N   UNL     1      51.690   4.124  18.816  0.00  0.00    +0.000 NA
ATOM     25  C   UNL     1      52.769   4.613  18.305  0.00  0.00    +0.000 A 
ATOM     26  N   UNL     1      52.807   5.522  17.281  0.00  0.00    +0.000 N 
ATOM     27  C   UNL     1      51.677   6.028  16.686  0.00  0.00    +0.000 A 
ATOM     28  O   UNL     1      51.745   6.873  15.800  0.00  0.00    +0.000 OA
ATOM     29  C   UNL     1      50.431   5.491  17.208  0.00  0.00    +0.000 A 
ATOM     30  H   UNL     1      53.689   5.878  16.938  0.00  0.00    +0.000 HD
ENDBRANCH  17  20
ENDBRANCH   1  16
BRANCH   1  31
ATOM     31  C   UNL     1      48.516   7.294  12.670  0.00  0.00    +0.000 C 
BRANCH  31  32
ATOM     32  N   UNL     1      49.877   7.024  13.152  0.00  0.00    +0.000 NA
ATOM     33  H   UNL     1      50.269   6.234  12.641  0.00  0.00    +0.000 HD
ATOM     34  H   UNL     1      49.834   6.739  14.131  0.00  0.00    +0.000 HD
ENDBRANCH  31  32
ENDBRANCH   1  31
TORSDOF 8
ENDMDL
MODEL 3
REMARK VINA RESULT:    -7.436      2.972      4.084
REMARK INTER + INTRA:         -11.868
REMARK INTER:                 -10.395
REMARK INTRA:                  -1.473
REMARK UNBOUND:                -1.171
REMARK  Name = 
REMARK  8 active torsions:
REMARK  status: ('A' for Active; 'I' for Inactive)
REMARK    1  A    between atoms: N_1  and  C_2
REMARK    2  A    between atoms: C_2  and  C_3
REMARK    3  A    between atoms: C_3  and  N_4
REMARK    4  A    between atoms: C_3  and  C_17
REMARK    5  A    between atoms: C_5  and  C_7
REMARK    6  A    between atoms: C_20  and  O_21
REMARK    7  A    between atoms: O_21  and  C_22
REMARK    8  A    between atoms: C_22  and  C_23
REMARK                            x       y       z     vdW  Elec       q    Type
REMARK                         _______ _______ _______ _____ _____    ______ ____
ROOT
ATOM      1  C   UNL     1      47.913   4.968  15.346  0.00  0.00    +0.000 C 
ENDROOT
BRANCH   1   2
ATOM      2  C   UNL     1      47.081   4.730  14.088  0.00  0.00    +0.000 A 
ATOM      3  C   UNL     1      46.768   3.422  13.693  0.00  0.00    +0.000 A 
ATOM      4  C   UNL     1      45.833   3.196  12.679  0.00  0.00    +0.000 A 
ATOM      5  C   UNL     1      45.207   4.275  12.054  0.00  0.00    +0.000 A 
ATOM      6  C   UNL     1      45.639   5.570  12.332  0.00  0.00    +0.000 A 
ATOM      7  C   UNL     1      46.571   5.795  13.340  0.00  0.00    +0.000 A 
BRANCH   5   8
ATOM      8  O   UNL     1      44.164   3.980  11.215  0.00  0.00    +0.000 OA
BRANCH   8   9
ATOM      9  C   UNL     1      44.293   4.579   9.915  0.00  0.00    +0.000 C 
BRANCH   9  10
ATOM     10  C   UNL     1      45.181   3.746   9.024  0.00  0.00    +0.000 A 
ATOM     11  C   UNL     1      45.194   2.359   9.151  0.00  0.00    +0.000 A 
ATOM     12  C   UNL     1      45.982   1.613   8.280  0.00  0.00    +0.000 A 
ATOM     13  C   UNL     1      46.725   2.268   7.305  0.00  0.00    +0.000 A 
ATOM     14  C   UNL     1      46.646   3.647   7.236  0.00  0.00    +0.000 A 
ATOM     15  N   UNL     1      45.889   4.399   8.065  0.00  0.00    +0.000 NA
ENDBRANCH   9  10
ENDBRANCH   8   9
ENDBRANCH   5   8
ENDBRANCH   1   2
BRANCH   1  16
ATOM     16  N   UNL     1      47.875   6.373  15.714  0.00  0.00    +0.000 N 
ATOM     17  C   UNL     1      49.020   7.126  15.782  0.00  0.00    +0.000 C 
ATOM     18  O   UNL     1      50.113   6.652  15.473  0.00  0.00    +0.000 OA
ATOM     19  H   UNL     1      46.994   6.736  16.066  0.00  0.00    +0.000 HD
BRANCH  17  20
ATOM     20  C   UNL     1      48.901   8.525  16.218  0.00  0.00    +0.000 A 
ATOM     21  C   UNL     1      49.436   9.528  15.420  0.00  0.00    +0.000 A 
ATOM     22  S   UNL     1      49.182  11.101  16.021  0.00  0.00    +0.000 S 
ATOM     23  C   UNL     1      48.370  10.502  17.390  0.00  0.00    +0.000 A 
ATOM     24  N   UNL     1      47.878  11.352  18.328  0.00  0.00    +0.000 NA
ATOM     25  C   UNL     1      47.302  10.767  19.324  0.00  0.00    +0.000 A 
ATOM     26  N   UNL     1      47.172   9.410  19.466  0.00  0.00    +0.000 N 
ATOM     27  C   UNL     1      47.663   8.511  18.551  0.00  0.00    +0.000 A 
ATOM     28  O   UNL     1      47.567   7.302  18.729  0.00  0.00    +0.000 OA
ATOM     29  C   UNL     1      48.302   9.119  17.395  0.00  0.00    +0.000 A 
ATOM     30  H   UNL     1      46.722   9.017  20.280  0.00  0.00    +0.000 HD
ENDBRANCH  17  20
ENDBRANCH   1  16
BRANCH   1  31
ATOM     31  C   UNL     1      47.508   4.054  16.552  0.00  0.00    +0.000 C 
BRANCH  31  32
ATOM     32  N   UNL     1      46.813   4.756  17.640  0.00  0.00    +0.000 NA
ATOM     33  H   UNL     1      46.959   5.760  17.546  0.00  0.00    +0.000 HD
ATOM     34  H   UNL     1      47.231   4.486  18.532  0.00  0.00    +0.000 HD
ENDBRANCH  31  32
ENDBRANCH   1  31
TORSDOF 8
ENDMDL
MODEL 4
REMARK VINA RESULT:    -7.384      2.007      2.429
REMARK INTER + INTRA:         -11.792
REMARK INTER:                 -10.482
REMARK INTRA:                  -1.310
REMARK UNBOUND:                -1.171
REMARK  Name = 
REMARK  8 active torsions:
REMARK  status: ('A' for Active; 'I' for Inactive)
REMARK    1  A    between atoms: N_1  and  C_2
REMARK    2  A    between atoms: C_2  and  C_3
REMARK    3  A    between atoms: C_3  and  N_4
REMARK    4  A    between atoms: C_3  and  C_17
REMARK    5  A    between atoms: C_5  and  C_7
REMARK    6  A    between atoms: C_20  and  O_21
REMARK    7  A    between atoms: O_21  and  C_22
REMARK    8  A    between atoms: C_22  and  C_23
REMARK                            x       y       z     vdW  Elec       q    Type
REMARK                         _______ _______ _______ _____ _____    ______ ____
ROOT
ATOM      1  C   UNL     1      47.596   7.783  12.924  0.00  0.00    +0.000 C 
ENDROOT
BRANCH   1   2
ATOM      2  C   UNL     1      46.552   6.744  12.526  0.00  0.00    +0.000 A 
ATOM      3  C   UNL     1      45.608   7.043  11.533  0.00  0.00    +0.000 A 
ATOM      4  C   UNL     1      44.794   6.037  11.006  0.00  0.00    +0.000 A 
ATOM      5  C   UNL     1      44.918   4.727  11.469  0.00  0.00    +0.000 A 
ATOM      6  C   UNL     1      45.736   4.463  12.566  0.00  0.00    +0.000 A 
ATOM      7  C   UNL     1      46.544   5.465  13.091  0.00  0.00    +0.000 A 
BRANCH   5   8
ATOM      8  O   UNL     1      44.235   3.762  10.774  0.00  0.00    +0.000 OA
BRANCH   8   9
ATOM      9  C   UNL     1      44.127   4.041   9.368  0.00  0.00    +0.000 C 
BRANCH   9  10
ATOM     10  C   UNL     1      45.215   3.339   8.594  0.00  0.00    +0.000 A 
ATOM     11  C   UNL     1      45.445   1.979   8.791  0.00  0.00    +0.000 A 
ATOM     12  C   UNL     1      46.418   1.346   8.024  0.00  0.00    +0.000 A 
ATOM     13  C   UNL     1      47.126   2.081   7.080  0.00  0.00    +0.000 A 
ATOM     14  C   UNL     1      46.826   3.424   6.936  0.00  0.00    +0.000 A 
ATOM     15  N   UNL     1      45.885   4.067   7.663  0.00  0.00    +0.000 NA
ENDBRANCH   9  10
ENDBRANCH   8   9
ENDBRANCH   5   8
ENDBRANCH   1   2
BRANCH   1  16
ATOM     16  N   UNL     1      47.784   7.779  14.365  0.00  0.00    +0.000 N 
ATOM     17  C   UNL     1      48.159   8.913  15.040  0.00  0.00    +0.000 C 
ATOM     18  O   UNL     1      48.291   9.988  14.456  0.00  0.00    +0.000 OA
ATOM     19  H   UNL     1      47.777   6.877  14.830  0.00  0.00    +0.000 HD
BRANCH  17  20
ATOM     20  C   UNL     1      48.384   8.809  16.490  0.00  0.00    +0.000 A 
ATOM     21  C   UNL     1      48.089   9.901  17.297  0.00  0.00    +0.000 A 
ATOM     22  S   UNL     1      48.349   9.624  18.957  0.00  0.00    +0.000 S 
ATOM     23  C   UNL     1      48.896   8.041  18.660  0.00  0.00    +0.000 A 
ATOM     24  N   UNL     1      49.281   7.240  19.687  0.00  0.00    +0.000 NA
ATOM     25  C   UNL     1      49.691   6.072  19.323  0.00  0.00    +0.000 A 
ATOM     26  N   UNL     1      49.750   5.632  18.026  0.00  0.00    +0.000 N 
ATOM     27  C   UNL     1      49.384   6.410  16.955  0.00  0.00    +0.000 A 
ATOM     28  O   UNL     1      49.489   6.001  15.803  0.00  0.00    +0.000 OA
ATOM     29  C   UNL     1      48.890   7.730  17.311  0.00  0.00    +0.000 A 
ATOM     30  H   UNL     1      50.098   4.709  17.808  0.00  0.00    +0.000 HD
ENDBRANCH  17  20
ENDBRANCH   1  16
BRANCH   1  31
ATOM     31  C   UNL     1      48.962   7.625  12.173  0.00  0.00    +0.000 C 
BRANCH  31  32
ATOM     32  N   UNL     1      50.029   7.009  12.974  0.00  0.00    +0.000 NA
ATOM     33  H   UNL     1      49.680   6.809  13.910  0.00  0.00    +0.000 HD
ATOM     34  H   UNL     1      50.791   7.679  13.088  0.00  0.00    +0.000 HD
ENDBRANCH  31  32
ENDBRANCH   1  31
TORSDOF 8
ENDMDL
MODEL 5
REMARK VINA RESULT:    -7.336      4.357      8.672
REMARK INTER + INTRA:         -11.723
REMARK INTER:                 -10.603
REMARK INTRA:                  -1.120
REMARK UNBOUND:                -1.171
REMARK  Name = 
REMARK  8 active torsions:
REMARK  status: ('A' for Active; 'I' for Inactive)
REMARK    1  A    between atoms: N_1  and  C_2
REMARK    2  A    between atoms: C_2  and  C_3
REMARK    3  A    between atoms: C_3  and  N_4
REMARK    4  A    between atoms: C_3  and  C_17
REMARK    5  A    between atoms: C_5  and  C_7
REMARK    6  A    between atoms: C_20  and  O_21
REMARK    7  A    between atoms: O_21  and  C_22
REMARK    8  A    between atoms: C_22  and  C_23
REMARK                            x       y       z     vdW  Elec       q    Type
REMARK                         _______ _______ _______ _____ _____    ______ ____
ROOT
ATOM      1  C   UNL     1      48.711   5.803  17.397  0.00  0.00    +0.000 C 
ENDROOT
BRANCH   1   2
ATOM      2  C   UNL     1      49.548   4.535  17.543  0.00  0.00    +0.000 A 
ATOM      3  C   UNL     1      48.956   3.279  17.347  0.00  0.00    +0.000 A 
ATOM      4  C   UNL     1      49.749   2.131  17.263  0.00  0.00    +0.000 A 
ATOM      5  C   UNL     1      51.136   2.232  17.374  0.00  0.00    +0.000 A 
ATOM      6  C   UNL     1      51.707   3.451  17.732  0.00  0.00    +0.000 A 
ATOM      7  C   UNL     1      50.917   4.593  17.819  0.00  0.00    +0.000 A 
BRANCH   5   8
ATOM      8  O   UNL     1      51.861   1.105  17.083  0.00  0.00    +0.000 OA
BRANCH   8   9
ATOM      9  C   UNL     1      53.211   1.154  17.575  0.00  0.00    +0.000 C 
BRANCH   9  10
ATOM     10  C   UNL     1      53.814  -0.227  17.637  0.00  0.00    +0.000 A 
ATOM     11  C   UNL     1      54.540  -0.721  16.556  0.00  0.00    +0.000 A 
ATOM     12  C   UNL     1      55.130  -1.977  16.661  0.00  0.00    +0.000 A 
ATOM     13  C   UNL     1      54.986  -2.699  17.841  0.00  0.00    +0.000 A 
ATOM     14  C   UNL     1      54.261  -2.131  18.873  0.00  0.00    +0.000 A 
ATOM     15  N   UNL     1      53.679  -0.913  18.802  0.00  0.00    +0.000 NA
ENDBRANCH   9  10
ENDBRANCH   8   9
ENDBRANCH   5   8
ENDBRANCH   1   2
BRANCH   1  16
ATOM     16  N   UNL     1      47.873   5.717  16.213  0.00  0.00    +0.000 N 
ATOM     17  C   UNL     1      48.284   6.227  15.008  0.00  0.00    +0.000 C 
ATOM     18  O   UNL     1      49.403   6.720  14.873  0.00  0.00    +0.000 OA
ATOM     19  H   UNL     1      46.916   5.406  16.345  0.00  0.00    +0.000 HD
BRANCH  17  20
ATOM     20  C   UNL     1      47.352   6.150  13.872  0.00  0.00    +0.000 A 
ATOM     21  C   UNL     1      46.998   7.319  13.211  0.00  0.00    +0.000 A 
ATOM     22  S   UNL     1      45.954   7.077  11.888  0.00  0.00    +0.000 S 
ATOM     23  C   UNL     1      45.909   5.400  12.164  0.00  0.00    +0.000 A 
ATOM     24  N   UNL     1      45.179   4.587  11.359  0.00  0.00    +0.000 NA
ATOM     25  C   UNL     1      45.216   3.340  11.689  0.00  0.00    +0.000 A 
ATOM     26  N   UNL     1      45.919   2.833  12.751  0.00  0.00    +0.000 N 
ATOM     27  C   UNL     1      46.661   3.616  13.600  0.00  0.00    +0.000 A 
ATOM     28  O   UNL     1      47.244   3.136  14.567  0.00  0.00    +0.000 OA
ATOM     29  C   UNL     1      46.673   5.029  13.258  0.00  0.00    +0.000 A 
ATOM     30  H   UNL     1      45.892   1.845  12.964  0.00  0.00    +0.000 HD
ENDBRANCH  17  20
ENDBRANCH   1  16
BRANCH   1  31
ATOM     31  C   UNL     1      47.863   6.150  18.668  0.00  0.00    +0.000 C 
BRANCH  31  32
ATOM     32  N   UNL     1      46.544   5.504  18.715  0.00  0.00    +0.000 NA
ATOM     33  H   UNL     1      45.879   6.123  19.175  0.00  0.00    +0.000 HD
ATOM     34  H   UNL     1      46.604   4.665  19.292  0.00  0.00    +0.000 HD
ENDBRANCH  31  32
ENDBRANCH   1  31
TORSDOF 8
ENDMDL
MODEL 6
REMARK VINA RESULT:    -7.169      3.013      4.495
REMARK INTER + INTRA:         -11.483
REMARK INTER:                 -10.435
REMARK INTRA:                  -1.049
REMARK UNBOUND:                -1.171
REMARK  Name = 
REMARK  8 active torsions:
REMARK  status: ('A' for Active; 'I' for Inactive)
REMARK    1  A    between atoms: N_1  and  C_2
REMARK    2  A    between atoms: C_2  and  C_3
REMARK    3  A    between atoms: C_3  and  N_4
REMARK    4  A    between atoms: C_3  and  C_17
REMARK    5  A    between atoms: C_5  and  C_7
REMARK    6  A    between atoms: C_20  and  O_21
REMARK    7  A    between atoms: O_21  and  C_22
REMARK    8  A    between atoms: C_22  and  C_23
REMARK                            x       y       z     vdW  Elec       q    Type
REMARK                         _______ _______ _______ _____ _____    ______ ____
ROOT
ATOM      1  C   UNL     1      48.001   4.481  15.976  0.00  0.00    +0.000 C 
ENDROOT
BRANCH   1   2
ATOM      2  C   UNL     1      47.244   4.608  14.657  0.00  0.00    +0.000 A 
ATOM      3  C   UNL     1      46.783   3.458  14.001  0.00  0.00    +0.000 A 
ATOM      4  C   UNL     1      45.906   3.567  12.917  0.00  0.00    +0.000 A 
ATOM      5  C   UNL     1      45.486   4.825  12.485  0.00  0.00    +0.000 A 
ATOM      6  C   UNL     1      46.071   5.966  13.029  0.00  0.00    +0.000 A 
ATOM      7  C   UNL     1      46.945   5.858  14.106  0.00  0.00    +0.000 A 
BRANCH   5   8
ATOM      8  O   UNL     1      44.479   4.851  11.555  0.00  0.00    +0.000 OA
BRANCH   8   9
ATOM      9  C   UNL     1      44.879   5.429  10.300  0.00  0.00    +0.000 C 
BRANCH   9  10
ATOM     10  C   UNL     1      45.366   4.365   9.348  0.00  0.00    +0.000 A 
ATOM     11  C   UNL     1      44.993   3.036   9.535  0.00  0.00    +0.000 A 
ATOM     12  C   UNL     1      45.413   2.084   8.611  0.00  0.00    +0.000 A 
ATOM     13  C   UNL     1      46.183   2.484   7.525  0.00  0.00    +0.000 A 
ATOM     14  C   UNL     1      46.498   3.826   7.404  0.00  0.00    +0.000 A 
ATOM     15  N   UNL     1      46.104   4.774   8.283  0.00  0.00    +0.000 NA
ENDBRANCH   9  10
ENDBRANCH   8   9
ENDBRANCH   5   8
ENDBRANCH   1   2
BRANCH   1  16
ATOM     16  N   UNL     1      47.646   5.573  16.866  0.00  0.00    +0.000 N 
ATOM     17  C   UNL     1      48.606   6.312  17.509  0.00  0.00    +0.000 C 
ATOM     18  O   UNL     1      49.804   6.115  17.307  0.00  0.00    +0.000 OA
ATOM     19  H   UNL     1      46.666   5.669  17.113  0.00  0.00    +0.000 HD
BRANCH  17  20
ATOM     20  C   UNL     1      48.161   7.363  18.437  0.00  0.00    +0.000 A 
ATOM     21  C   UNL     1      47.906   7.028  19.761  0.00  0.00    +0.000 A 
ATOM     22  S   UNL     1      47.448   8.349  20.733  0.00  0.00    +0.000 S 
ATOM     23  C   UNL     1      47.545   9.419  19.415  0.00  0.00    +0.000 A 
ATOM     24  N   UNL     1      47.272  10.739  19.575  0.00  0.00    +0.000 NA
ATOM     25  C   UNL     1      47.365  11.436  18.493  0.00  0.00    +0.000 A 
ATOM     26  N   UNL     1      47.706  10.932  17.265  0.00  0.00    +0.000 N 
ATOM     27  C   UNL     1      47.979   9.603  17.051  0.00  0.00    +0.000 A 
ATOM     28  O   UNL     1      48.239   9.176  15.931  0.00  0.00    +0.000 OA
ATOM     29  C   UNL     1      47.912   8.775  18.245  0.00  0.00    +0.000 A 
ATOM     30  H   UNL     1      47.745  11.531  16.453  0.00  0.00    +0.000 HD
ENDBRANCH  17  20
ENDBRANCH   1  16
BRANCH   1  31
ATOM     31  C   UNL     1      47.815   3.093  16.679  0.00  0.00    +0.000 C 
BRANCH  31  32
ATOM     32  N   UNL     1      46.695   3.037  17.628  0.00  0.00    +0.000 NA
ATOM     33  H   UNL     1      45.823   3.229  17.137  0.00  0.00    +0.000 HD
ATOM     34  H   UNL     1      46.806   3.780  18.319  0.00  0.00    +0.000 HD
ENDBRANCH  31  32
ENDBRANCH   1  31
TORSDOF 8
ENDMDL
MODEL 7
REMARK VINA RESULT:    -7.145      1.795      2.222
REMARK INTER + INTRA:         -11.448
REMARK INTER:                 -10.441
REMARK INTRA:                  -1.007
REMARK UNBOUND:                -1.171
REMARK  Name = 
REMARK  8 active torsions:
REMARK  status: ('A' for Active; 'I' for Inactive)
REMARK    1  A    between atoms: N_1  and  C_2
REMARK    2  A    between atoms: C_2  and  C_3
REMARK    3  A    between atoms: C_3  and  N_4
REMARK    4  A    between atoms: C_3  and  C_17
REMARK    5  A    between atoms: C_5  and  C_7
REMARK    6  A    between atoms: C_20  and  O_21
REMARK    7  A    between atoms: O_21  and  C_22
REMARK    8  A    between atoms: C_22  and  C_23
REMARK                            x       y       z     vdW  Elec       q    Type
REMARK                         _______ _______ _______ _____ _____    ______ ____
ROOT
ATOM      1  C   UNL     1      47.666   6.726  14.757  0.00  0.00    +0.000 C 
ENDROOT
BRANCH   1   2
ATOM      2  C   UNL     1      47.031   5.988  13.582  0.00  0.00    +0.000 A 
ATOM      3  C   UNL     1      46.366   4.772  13.794  0.00  0.00    +0.000 A 
ATOM      4  C   UNL     1      45.597   4.200  12.777  0.00  0.00    +0.000 A 
ATOM      5  C   UNL     1      45.489   4.840  11.542  0.00  0.00    +0.000 A 
ATOM      6  C   UNL     1      46.278   5.958  11.279  0.00  0.00    +0.000 A 
ATOM      7  C   UNL     1      47.046   6.525  12.291  0.00  0.00    +0.000 A 
BRANCH   5   8
ATOM      8  O   UNL     1      44.566   4.332  10.664  0.00  0.00    +0.000 OA
BRANCH   8   9
ATOM      9  C   UNL     1      44.771   2.941  10.366  0.00  0.00    +0.000 C 
BRANCH   9  10
ATOM     10  C   UNL     1      45.449   2.770   9.029  0.00  0.00    +0.000 A 
ATOM     11  C   UNL     1      45.595   3.861   8.175  0.00  0.00    +0.000 A 
ATOM     12  C   UNL     1      46.272   3.686   6.973  0.00  0.00    +0.000 A 
ATOM     13  C   UNL     1      46.790   2.435   6.660  0.00  0.00    +0.000 A 
ATOM     14  C   UNL     1      46.615   1.406   7.569  0.00  0.00    +0.000 A 
ATOM     15  N   UNL     1      45.965   1.545   8.745  0.00  0.00    +0.000 NA
ENDBRANCH   9  10
ENDBRANCH   8   9
ENDBRANCH   5   8
ENDBRANCH   1   2
BRANCH   1  16
ATOM     16  N   UNL     1      48.765   5.947  15.303  0.00  0.00    +0.000 N 
ATOM     17  C   UNL     1      49.044   5.949  16.646  0.00  0.00    +0.000 C 
ATOM     18  O   UNL     1      48.336   6.564  17.443  0.00  0.00    +0.000 OA
ATOM     19  H   UNL     1      49.408   5.526  14.640  0.00  0.00    +0.000 HD
BRANCH  17  20
ATOM     20  C   UNL     1      50.209   5.180  17.110  0.00  0.00    +0.000 A 
ATOM     21  C   UNL     1      51.315   5.862  17.600  0.00  0.00    +0.000 A 
ATOM     22  S   UNL     1      52.568   4.846  18.147  0.00  0.00    +0.000 S 
ATOM     23  C   UNL     1      51.692   3.451  17.724  0.00  0.00    +0.000 A 
ATOM     24  N   UNL     1      52.212   2.216  17.941  0.00  0.00    +0.000 NA
ATOM     25  C   UNL     1      51.453   1.246  17.558  0.00  0.00    +0.000 A 
ATOM     26  N   UNL     1      50.221   1.398  16.978  0.00  0.00    +0.000 N 
ATOM     27  C   UNL     1      49.658   2.626  16.727  0.00  0.00    +0.000 A 
ATOM     28  O   UNL     1      48.572   2.728  16.167  0.00  0.00    +0.000 OA
ATOM     29  C   UNL     1      50.463   3.756  17.162  0.00  0.00    +0.000 A 
ATOM     30  H   UNL     1      49.684   0.594  16.686  0.00  0.00    +0.000 HD
ENDBRANCH  17  20
ENDBRANCH   1  16
BRANCH   1  31
ATOM     31  C   UNL     1      48.121   8.186  14.414  0.00  0.00    +0.000 C 
BRANCH  31  32
ATOM     32  N   UNL     1      47.026   9.164  14.348  0.00  0.00    +0.000 NA
ATOM     33  H   UNL     1      47.302  10.016  14.834  0.00  0.00    +0.000 HD
ATOM     34  H   UNL     1      46.218   8.795  14.850  0.00  0.00    +0.000 HD
ENDBRANCH  31  32
ENDBRANCH   1  31
TORSDOF 8
ENDMDL
MODEL 8
REMARK VINA RESULT:    -6.834      3.612      8.256
REMARK INTER + INTRA:         -11.001
REMARK INTER:                  -9.995
REMARK INTRA:                  -1.006
REMARK UNBOUND:                -1.171
REMARK  Name = 
REMARK  8 active torsions:
REMARK  status: ('A' for Active; 'I' for Inactive)
REMARK    1  A    between atoms: N_1  and  C_2
REMARK    2  A    between atoms: C_2  and  C_3
REMARK    3  A    between atoms: C_3  and  N_4
REMARK    4  A    between atoms: C_3  and  C_17
REMARK    5  A    between atoms: C_5  and  C_7
REMARK    6  A    between atoms: C_20  and  O_21
REMARK    7  A    between atoms: O_21  and  C_22
REMARK    8  A    between atoms: C_22  and  C_23
REMARK                            x       y       z     vdW  Elec       q    Type
REMARK                         _______ _______ _______ _____ _____    ______ ____
ROOT
ATOM      1  C   UNL     1      48.750   7.504  14.904  0.00  0.00    +0.000 C 
ENDROOT
BRANCH   1   2
ATOM      2  C   UNL     1      49.118   6.473  15.967  0.00  0.00    +0.000 A 
ATOM      3  C   UNL     1      48.217   5.447  16.289  0.00  0.00    +0.000 A 
ATOM      4  C   UNL     1      48.623   4.379  17.094  0.00  0.00    +0.000 A 
ATOM      5  C   UNL     1      49.930   4.329  17.580  0.00  0.00    +0.000 A 
ATOM      6  C   UNL     1      50.770   5.426  17.397  0.00  0.00    +0.000 A 
ATOM      7  C   UNL     1      50.365   6.491  16.599  0.00  0.00    +0.000 A 
BRANCH   5   8
ATOM      8  O   UNL     1      50.316   3.164  18.191  0.00  0.00    +0.000 OA
BRANCH   8   9
ATOM      9  C   UNL     1      50.871   2.202  17.279  0.00  0.00    +0.000 C 
BRANCH   9  10
ATOM     10  C   UNL     1      52.258   1.791  17.707  0.00  0.00    +0.000 A 
ATOM     11  C   UNL     1      53.026   2.642  18.499  0.00  0.00    +0.000 A 
ATOM     12  C   UNL     1      54.280   2.215  18.923  0.00  0.00    +0.000 A 
ATOM     13  C   UNL     1      54.729   0.952  18.554  0.00  0.00    +0.000 A 
ATOM     14  C   UNL     1      53.900   0.162  17.778  0.00  0.00    +0.000 A 
ATOM     15  N   UNL     1      52.676   0.547  17.353  0.00  0.00    +0.000 NA
ENDBRANCH   9  10
ENDBRANCH   8   9
ENDBRANCH   5   8
ENDBRANCH   1   2
BRANCH   1  16
ATOM     16  N   UNL     1      47.478   7.161  14.291  0.00  0.00    +0.000 N 
ATOM     17  C   UNL     1      47.415   6.380  13.165  0.00  0.00    +0.000 C 
ATOM     18  O   UNL     1      48.430   5.892  12.670  0.00  0.00    +0.000 OA
ATOM     19  H   UNL     1      46.653   7.644  14.634  0.00  0.00    +0.000 HD
BRANCH  17  20
ATOM     20  C   UNL     1      46.092   6.128  12.574  0.00  0.00    +0.000 A 
ATOM     21  C   UNL     1      45.372   7.195  12.052  0.00  0.00    +0.000 A 
ATOM     22  S   UNL     1      43.882   6.752  11.356  0.00  0.00    +0.000 S 
ATOM     23  C   UNL     1      44.126   5.116  11.751  0.00  0.00    +0.000 A 
ATOM     24  N   UNL     1      43.200   4.180  11.421  0.00  0.00    +0.000 NA
ATOM     25  C   UNL     1      43.499   2.981  11.795  0.00  0.00    +0.000 A 
ATOM     26  N   UNL     1      44.642   2.634  12.467  0.00  0.00    +0.000 N 
ATOM     27  C   UNL     1      45.601   3.546  12.833  0.00  0.00    +0.000 A 
ATOM     28  O   UNL     1      46.592   3.209  13.473  0.00  0.00    +0.000 OA
ATOM     29  C   UNL     1      45.325   4.911  12.415  0.00  0.00    +0.000 A 
ATOM     30  H   UNL     1      44.807   1.677  12.745  0.00  0.00    +0.000 HD
ENDBRANCH  17  20
ENDBRANCH   1  16
BRANCH   1  31
ATOM     31  C   UNL     1      48.746   8.980  15.431  0.00  0.00    +0.000 C 
BRANCH  31  32
ATOM     32  N   UNL     1      47.656   9.289  16.367  0.00  0.00    +0.000 NA
ATOM     33  H   UNL     1      47.804  10.214  16.768  0.00  0.00    +0.000 HD
ATOM     34  H   UNL     1      47.688   8.630  17.146  0.00  0.00    +0.000 HD
ENDBRANCH  31  32
ENDBRANCH   1  31
TORSDOF 8
ENDMDL
MODEL 9
REMARK VINA RESULT:    -6.743      2.683      3.829
REMARK INTER + INTRA:         -10.870
REMARK INTER:                  -9.760
REMARK INTRA:                  -1.110
REMARK UNBOUND:                -1.171
REMARK  Name = 
REMARK  8 active torsions:
REMARK  status: ('A' for Active; 'I' for Inactive)
REMARK    1  A    between atoms: N_1  and  C_2
REMARK    2  A    between atoms: C_2  and  C_3
REMARK    3  A    between atoms: C_3  and  N_4
REMARK    4  A    between atoms: C_3  and  C_17
REMARK    5  A    between atoms: C_5  and  C_7
REMARK    6  A    between atoms: C_20  and  O_21
REMARK    7  A    between atoms: O_21  and  C_22
REMARK    8  A    between atoms: C_22  and  C_23
REMARK                            x       y       z     vdW  Elec       q    Type
REMARK                         _______ _______ _______ _____ _____    ______ ____
ROOT
ATOM      1  C   UNL     1      48.748   6.879  16.240  0.00  0.00    +0.000 C 
ENDROOT
BRANCH   1   2
ATOM      2  C   UNL     1      48.321   6.624  14.796  0.00  0.00    +0.000 A 
ATOM      3  C   UNL     1      47.480   5.543  14.495  0.00  0.00    +0.000 A 
ATOM      4  C   UNL     1      46.909   5.426  13.225  0.00  0.00    +0.000 A 
ATOM      5  C   UNL     1      47.174   6.388  12.250  0.00  0.00    +0.000 A 
ATOM      6  C   UNL     1      48.135   7.367  12.498  0.00  0.00    +0.000 A 
ATOM      7  C   UNL     1      48.706   7.481  13.761  0.00  0.00    +0.000 A 
BRANCH   5   8
ATOM      8  O   UNL     1      46.429   6.322  11.101  0.00  0.00    +0.000 OA
BRANCH   8   9
ATOM      9  C   UNL     1      45.219   5.561  11.251  0.00  0.00    +0.000 C 
BRANCH   9  10
ATOM     10  C   UNL     1      45.103   4.514  10.171  0.00  0.00    +0.000 A 
ATOM     11  C   UNL     1      45.659   4.743   8.914  0.00  0.00    +0.000 A 
ATOM     12  C   UNL     1      45.584   3.738   7.954  0.00  0.00    +0.000 A 
ATOM     13  C   UNL     1      44.967   2.535   8.275  0.00  0.00    +0.000 A 
ATOM     14  C   UNL     1      44.453   2.382   9.551  0.00  0.00    +0.000 A 
ATOM     15  N   UNL     1      44.512   3.337  10.505  0.00  0.00    +0.000 NA
ENDBRANCH   9  10
ENDBRANCH   8   9
ENDBRANCH   5   8
ENDBRANCH   1   2
BRANCH   1  16
ATOM     16  N   UNL     1      49.845   5.998  16.602  0.00  0.00    +0.000 N 
ATOM     17  C   UNL     1      49.944   5.459  17.859  0.00  0.00    +0.000 C 
ATOM     18  O   UNL     1      49.074   5.655  18.707  0.00  0.00    +0.000 OA
ATOM     19  H   UNL     1      50.613   5.920  15.941  0.00  0.00    +0.000 HD
BRANCH  17  20
ATOM     20  C   UNL     1      51.117   4.624  18.161  0.00  0.00    +0.000 A 
ATOM     21  C   UNL     1      52.195   5.192  18.829  0.00  0.00    +0.000 A 
ATOM     22  S   UNL     1      53.459   4.100  19.156  0.00  0.00    +0.000 S 
ATOM     23  C   UNL     1      52.628   2.828  18.392  0.00  0.00    +0.000 A 
ATOM     24  N   UNL     1      53.175   1.587  18.327  0.00  0.00    +0.000 NA
ATOM     25  C   UNL     1      52.449   0.720  17.705  0.00  0.00    +0.000 A 
ATOM     26  N   UNL     1      51.227   0.982  17.143  0.00  0.00    +0.000 N 
ATOM     27  C   UNL     1      50.640   2.223  17.172  0.00  0.00    +0.000 A 
ATOM     28  O   UNL     1      49.564   2.434  16.622  0.00  0.00    +0.000 OA
ATOM     29  C   UNL     1      51.405   3.234  17.883  0.00  0.00    +0.000 A 
ATOM     30  H   UNL     1      50.717   0.259  16.654  0.00  0.00    +0.000 HD
ENDBRANCH  17  20
ENDBRANCH   1  16
BRANCH   1  31
ATOM     31  C   UNL     1      49.099   8.376  16.539  0.00  0.00    +0.000 C 
BRANCH  31  32
ATOM     32  N   UNL     1      48.716   8.835  17.881  0.00  0.00    +0.000 NA
ATOM     33  H   UNL     1      48.074   9.622  17.802  0.00  0.00    +0.000 HD
ATOM     34  H   UNL     1      49.545   9.187  18.362  0.00  0.00    +0.000 HD
ENDBRANCH  31  32
ENDBRANCH   1  31
TORSDOF 8
ENDMDL
