MODEL 1
REMARK VINA RESULT:    -8.135      0.000      0.000
REMARK INTER + INTRA:         -12.733
REMARK INTER:                 -11.464
REMARK INTRA:                  -1.269
REMARK UNBOUND:                -1.269
REMARK  Name = 
REMARK  8 active torsions:
REMARK  status: ('A' for Active; 'I' for Inactive)
REMARK    1  A    between atoms: C_1  and  O_2
REMARK    2  A    between atoms: O_2  and  C_3
REMARK    3  A    between atoms: C_10  and  C_11
REMARK    4  A    between atoms: N_13  and  C_14
REMARK    5  A    between atoms: C_14  and  C_15
REMARK    6  A    between atoms: C_18  and  C_19
REMARK    7  A    between atoms: C_19  and  C_20
REMARK    8  A    between atoms: C_21  and  C_22
REMARK                            x       y       z     vdW  Elec       q    Type
REMARK                         _______ _______ _______ _____ _____    ______ ____
ROOT
ATOM      1  C   UNL     1      47.669   8.539  13.512  0.00  0.00    +0.000 C 
ENDROOT
BRANCH   1   2
ATOM      2  C   UNL     1      46.667   7.614  12.871  0.00  0.00    +0.000 A 
ATOM      3  C   UNL     1      46.898   6.232  12.820  0.00  0.00    +0.000 A 
ATOM      4  C   UNL     1      46.006   5.382  12.155  0.00  0.00    +0.000 A 
ATOM      5  C   UNL     1      44.871   5.896  11.513  0.00  0.00    +0.000 A 
ATOM      6  C   UNL     1      44.618   7.271  11.601  0.00  0.00    +0.000 A 
ATOM      7  C   UNL     1      45.512   8.122  12.263  0.00  0.00    +0.000 A 
BRANCH   5   8
ATOM      8  C   UNL     1      43.953   4.995  10.714  0.00  0.00    +0.000 C 
BRANCH   8   9
ATOM      9  C   UNL     1      44.673   3.967   9.890  0.00  0.00    +0.000 C 
ATOM     10  C   UNL     1      45.293   4.234   8.730  0.00  0.00    +0.000 C 
BRANCH  10  11
ATOM     11  C   UNL     1      45.948   3.186   7.947  0.00  0.00    +0.000 A 
ATOM     12  C   UNL     1      46.003   1.882   8.454  0.00  0.00    +0.000 A 
ATOM     13  C   UNL     1      46.630   0.867   7.730  0.00  0.00    +0.000 A 
ATOM     14  C   UNL     1      47.207   1.150   6.492  0.00  0.00    +0.000 A 
ATOM     15  C   UNL     1      47.157   2.445   5.980  0.00  0.00    +0.000 A 
ATOM     16  C   UNL     1      46.530   3.463   6.705  0.00  0.00    +0.000 A 
ENDBRANCH  10  11
ENDBRANCH   8   9
ENDBRANCH   5   8
ENDBRANCH   1   2
BRANCH   1  19
ATOM     17  C   UNL     1      48.802   7.563  15.462  0.00  0.00    +0.000 C 
ATOM     18  O   UNL     1      49.665   7.071  14.739  0.00  0.00    +0.000 OA
ATOM     19  N   UNL     1      47.775   8.297  14.935  0.00  0.00    +0.000 N 
ATOM     20  H   UNL     1      47.059   8.684  15.535  0.00  0.00    +0.000 HD
BRANCH  17  28
ATOM     21  C   UNL     1      48.697   4.793  17.533  0.00  0.00    +0.000 A 
ATOM     22  N   UNL     1      48.660   3.920  18.559  0.00  0.00    +0.000 NA
ATOM     23  C   UNL     1      48.719   4.399  19.803  0.00  0.00    +0.000 A 
ATOM     24  N   UNL     1      48.812   5.674  20.162  0.00  0.00    +0.000 NA
ATOM     25  C   UNL     1      48.843   6.515  19.113  0.00  0.00    +0.000 A 
ATOM     26  S   UNL     1      48.960   8.184  19.392  0.00  0.00    +0.000 S 
ATOM     27  C   UNL     1      48.935   8.511  17.727  0.00  0.00    +0.000 A 
ATOM     28  C   UNL     1      48.841   7.378  16.927  0.00  0.00    +0.000 A 
ATOM     29  C   UNL     1      48.789   6.178  17.762  0.00  0.00    +0.000 A 
BRANCH  21  31
ATOM     30  C   UNL     1      47.318   4.084  15.772  0.00  0.00    +0.000 C 
ATOM     31  O   UNL     1      48.649   4.293  16.245  0.00  0.00    +0.000 OA
ENDBRANCH  21  31
ENDBRANCH  17  28
ENDBRANCH   1  19
TORSDOF 7
ENDMDL
MODEL 2
REMARK VINA RESULT:    -7.617      1.888      2.358
REMARK INTER + INTRA:         -12.003
REMARK INTER:                 -10.649
REMARK INTRA:                  -1.354
REMARK UNBOUND:                -1.269
REMARK  Name = 
REMARK  8 active torsions:
REMARK  status: ('A' for Active; 'I' for Inactive)
REMARK    1  A    between atoms: C_1  and  O_2
REMARK    2  A    between atoms: O_2  and  C_3
REMARK    3  A    between atoms: C_10  and  C_11
REMARK    4  A    between atoms: N_13  and  C_14
REMARK    5  A    between atoms: C_14  and  C_15
REMARK    6  A    between atoms: C_18  and  C_19
REMARK    7  A    between atoms: C_19  and  C_20
REMARK    8  A    between atoms: C_21  and  C_22
REMARK                            x       y       z     vdW  Elec       q    Type
REMARK                         _______ _______ _______ _____ _____    ______ ____
ROOT
ATOM      1  C   UNL     1      48.394   8.090  14.805  0.00  0.00    +0.000 C 
ENDROOT
BRANCH   1   2
ATOM      2  C   UNL     1      47.391   7.508  13.843  0.00  0.00    +0.000 A 
ATOM      3  C   UNL     1      47.432   6.150  13.500  0.00  0.00    +0.000 A 
ATOM      4  C   UNL     1      46.550   5.625  12.547  0.00  0.00    +0.000 A 
ATOM      5  C   UNL     1      45.618   6.451  11.905  0.00  0.00    +0.000 A 
ATOM      6  C   UNL     1      45.548   7.800  12.279  0.00  0.00    +0.000 A 
ATOM      7  C   UNL     1      46.432   8.325  13.230  0.00  0.00    +0.000 A 
BRANCH   5   8
ATOM      8  C   UNL     1      44.725   5.911  10.806  0.00  0.00    +0.000 C 
BRANCH   8   9
ATOM      9  C   UNL     1      45.444   5.063   9.798  0.00  0.00    +0.000 C 
ATOM     10  C   UNL     1      44.969   3.902   9.319  0.00  0.00    +0.000 C 
BRANCH  10  11
ATOM     11  C   UNL     1      45.729   3.095   8.363  0.00  0.00    +0.000 A 
ATOM     12  C   UNL     1      46.275   3.706   7.228  0.00  0.00    +0.000 A 
ATOM     13  C   UNL     1      46.996   2.955   6.299  0.00  0.00    +0.000 A 
ATOM     14  C   UNL     1      47.176   1.587   6.499  0.00  0.00    +0.000 A 
ATOM     15  C   UNL     1      46.636   0.970   7.626  0.00  0.00    +0.000 A 
ATOM     16  C   UNL     1      45.912   1.721   8.558  0.00  0.00    +0.000 A 
ENDBRANCH  10  11
ENDBRANCH   8   9
ENDBRANCH   5   8
ENDBRANCH   1   2
BRANCH   1  19
ATOM     17  C   UNL     1      49.664   7.073  16.646  0.00  0.00    +0.000 C 
ATOM     18  O   UNL     1      49.296   7.957  17.415  0.00  0.00    +0.000 OA
ATOM     19  N   UNL     1      49.270   7.068  15.336  0.00  0.00    +0.000 N 
ATOM     20  H   UNL     1      49.592   6.346  14.706  0.00  0.00    +0.000 HD
BRANCH  17  28
ATOM     21  C   UNL     1      49.396   3.623  16.682  0.00  0.00    +0.000 A 
ATOM     22  N   UNL     1      49.557   2.294  16.837  0.00  0.00    +0.000 NA
ATOM     23  C   UNL     1      50.685   1.852  17.397  0.00  0.00    +0.000 A 
ATOM     24  N   UNL     1      51.699   2.588  17.835  0.00  0.00    +0.000 NA
ATOM     25  C   UNL     1      51.501   3.908  17.667  0.00  0.00    +0.000 A 
ATOM     26  S   UNL     1      52.701   4.997  18.173  0.00  0.00    +0.000 S 
ATOM     27  C   UNL     1      51.773   6.325  17.668  0.00  0.00    +0.000 A 
ATOM     28  C   UNL     1      50.547   5.982  17.108  0.00  0.00    +0.000 A 
ATOM     29  C   UNL     1      50.387   4.528  17.105  0.00  0.00    +0.000 A 
BRANCH  21  31
ATOM     30  C   UNL     1      47.134   4.160  16.998  0.00  0.00    +0.000 C 
ATOM     31  O   UNL     1      48.233   4.077  16.090  0.00  0.00    +0.000 OA
ENDBRANCH  21  31
ENDBRANCH  17  28
ENDBRANCH   1  19
TORSDOF 7
ENDMDL
MODEL 3
REMARK VINA RESULT:    -7.247      1.572      3.132
REMARK INTER + INTRA:         -11.482
REMARK INTER:                 -10.104
REMARK INTRA:                  -1.378
REMARK UNBOUND:                -1.269
REMARK  Name = 
REMARK  8 active torsions:
REMARK  status: ('A' for Active; 'I' for Inactive)
REMARK    1  A    between atoms: C_1  and  O_2
REMARK    2  A    between atoms: O_2  and  C_3
REMARK    3  A    between atoms: C_10  and  C_11
REMARK    4  A    between atoms: N_13  and  C_14
REMARK    5  A    between atoms: C_14  and  C_15
REMARK    6  A    between atoms: C_18  and  C_19
REMARK    7  A    between atoms: C_19  and  C_20
REMARK    8  A    between atoms: C_21  and  C_22
REMARK                            x       y       z     vdW  Elec       q    Type
REMARK                         _______ _______ _______ _____ _____    ______ ____
ROOT
ATOM      1  C   UNL     1      47.379   4.392  15.537  0.00  0.00    +0.000 C 
ENDROOT
BRANCH   1   2
ATOM      2  C   UNL     1      46.757   4.847  14.242  0.00  0.00    +0.000 A 
ATOM      3  C   UNL     1      45.562   4.277  13.783  0.00  0.00    +0.000 A 
ATOM      4  C   UNL     1      45.026   4.642  12.542  0.00  0.00    +0.000 A 
ATOM      5  C   UNL     1      45.682   5.573  11.725  0.00  0.00    +0.000 A 
ATOM      6  C   UNL     1      46.854   6.173  12.203  0.00  0.00    +0.000 A 
ATOM      7  C   UNL     1      47.392   5.806  13.442  0.00  0.00    +0.000 A 
BRANCH   5   8
ATOM      8  C   UNL     1      45.159   5.902  10.342  0.00  0.00    +0.000 C 
BRANCH   8   9
ATOM      9  C   UNL     1      45.775   5.082   9.246  0.00  0.00    +0.000 C 
ATOM     10  C   UNL     1      45.374   3.842   8.920  0.00  0.00    +0.000 C 
BRANCH  10  11
ATOM     11  C   UNL     1      46.034   3.071   7.866  0.00  0.00    +0.000 A 
ATOM     12  C   UNL     1      46.333   1.721   8.086  0.00  0.00    +0.000 A 
ATOM     13  C   UNL     1      46.970   0.968   7.099  0.00  0.00    +0.000 A 
ATOM     14  C   UNL     1      47.313   1.560   5.884  0.00  0.00    +0.000 A 
ATOM     15  C   UNL     1      47.019   2.904   5.656  0.00  0.00    +0.000 A 
ATOM     16  C   UNL     1      46.381   3.660   6.645  0.00  0.00    +0.000 A 
ENDBRANCH  10  11
ENDBRANCH   8   9
ENDBRANCH   5   8
ENDBRANCH   1   2
BRANCH   1  19
ATOM     17  C   UNL     1      48.841   5.662  17.050  0.00  0.00    +0.000 C 
ATOM     18  O   UNL     1      49.744   4.843  16.898  0.00  0.00    +0.000 OA
ATOM     19  N   UNL     1      47.636   5.510  16.419  0.00  0.00    +0.000 N 
ATOM     20  H   UNL     1      46.893   6.180  16.564  0.00  0.00    +0.000 HD
BRANCH  17  28
ATOM     21  C   UNL     1      48.517   9.073  16.568  0.00  0.00    +0.000 A 
ATOM     22  N   UNL     1      48.488  10.417  16.663  0.00  0.00    +0.000 NA
ATOM     23  C   UNL     1      48.802  10.977  17.833  0.00  0.00    +0.000 A 
ATOM     24  N   UNL     1      49.153  10.348  18.949  0.00  0.00    +0.000 NA
ATOM     25  C   UNL     1      49.175   9.010  18.814  0.00  0.00    +0.000 A 
ATOM     26  S   UNL     1      49.603   8.050  20.145  0.00  0.00    +0.000 S 
ATOM     27  C   UNL     1      49.413   6.627  19.239  0.00  0.00    +0.000 A 
ATOM     28  C   UNL     1      49.023   6.841  17.921  0.00  0.00    +0.000 A 
ATOM     29  C   UNL     1      48.877   8.274  17.669  0.00  0.00    +0.000 A 
BRANCH  21  31
ATOM     30  C   UNL     1      48.604   9.259  14.230  0.00  0.00    +0.000 C 
ATOM     31  O   UNL     1      48.178   8.495  15.358  0.00  0.00    +0.000 OA
ENDBRANCH  21  31
ENDBRANCH  17  28
ENDBRANCH   1  19
TORSDOF 7
ENDMDL
MODEL 4
REMARK VINA RESULT:    -7.225      1.411      2.467
REMARK INTER + INTRA:         -11.451
REMARK INTER:                 -10.379
REMARK INTRA:                  -1.072
REMARK UNBOUND:                -1.269
REMARK  Name = 
REMARK  8 active torsions:
REMARK  status: ('A' for Active; 'I' for Inactive)
REMARK    1  A    between atoms: C_1  and  O_2
REMARK    2  A    between atoms: O_2  and  C_3
REMARK    3  A    between atoms: C_10  and  C_11
REMARK    4  A    between atoms: N_13  and  C_14
REMARK    5  A    between atoms: C_14  and  C_15
REMARK    6  A    between atoms: C_18  and  C_19
REMARK    7  A    between atoms: C_19  and  C_20
REMARK    8  A    between atoms: C_21  and  C_22
REMARK                            x       y       z     vdW  Elec       q    Type
REMARK                         _______ _______ _______ _____ _____    ______ ____
ROOT
ATOM      1  C   UNL     1      47.705   8.430  14.046  0.00  0.00    +0.000 C 
ENDROOT
BRANCH   1   2
ATOM      2  C   UNL     1      46.837   7.615  13.123  0.00  0.00    +0.000 A 
ATOM      3  C   UNL     1      45.729   8.191  12.487  0.00  0.00    +0.000 A 
ATOM      4  C   UNL     1      44.877   7.414  11.693  0.00  0.00    +0.000 A 
ATOM      5  C   UNL     1      45.105   6.041  11.529  0.00  0.00    +0.000 A 
ATOM      6  C   UNL     1      46.237   5.475  12.130  0.00  0.00    +0.000 A 
ATOM      7  C   UNL     1      47.087   6.250  12.927  0.00  0.00    +0.000 A 
BRANCH   5   8
ATOM      8  C   UNL     1      44.136   5.178  10.748  0.00  0.00    +0.000 C 
BRANCH   8   9
ATOM      9  C   UNL     1      44.797   4.115   9.920  0.00  0.00    +0.000 C 
ATOM     10  C   UNL     1      45.362   4.339   8.722  0.00  0.00    +0.000 C 
BRANCH  10  11
ATOM     11  C   UNL     1      45.960   3.259   7.938  0.00  0.00    +0.000 A 
ATOM     12  C   UNL     1      45.987   1.961   8.463  0.00  0.00    +0.000 A 
ATOM     13  C   UNL     1      46.561   0.916   7.737  0.00  0.00    +0.000 A 
ATOM     14  C   UNL     1      47.111   1.162   6.480  0.00  0.00    +0.000 A 
ATOM     15  C   UNL     1      47.089   2.450   5.950  0.00  0.00    +0.000 A 
ATOM     16  C   UNL     1      46.515   3.499   6.676  0.00  0.00    +0.000 A 
ENDBRANCH  10  11
ENDBRANCH   8   9
ENDBRANCH   5   8
ENDBRANCH   1   2
BRANCH   1  19
ATOM     17  C   UNL     1      49.089   7.068  15.552  0.00  0.00    +0.000 C 
ATOM     18  O   UNL     1      49.980   7.005  14.709  0.00  0.00    +0.000 OA
ATOM     19  N   UNL     1      47.927   7.747  15.302  0.00  0.00    +0.000 N 
ATOM     20  H   UNL     1      47.192   7.779  15.995  0.00  0.00    +0.000 HD
BRANCH  17  28
ATOM     21  C   UNL     1      50.444   8.047  18.581  0.00  0.00    +0.000 A 
ATOM     22  N   UNL     1      50.903   8.148  19.844  0.00  0.00    +0.000 NA
ATOM     23  C   UNL     1      50.752   7.103  20.661  0.00  0.00    +0.000 A 
ATOM     24  N   UNL     1      50.186   5.938  20.367  0.00  0.00    +0.000 NA
ATOM     25  C   UNL     1      49.744   5.873  19.099  0.00  0.00    +0.000 A 
ATOM     26  S   UNL     1      48.993   4.453  18.554  0.00  0.00    +0.000 S 
ATOM     27  C   UNL     1      48.760   5.113  17.008  0.00  0.00    +0.000 A 
ATOM     28  C   UNL     1      49.238   6.411  16.867  0.00  0.00    +0.000 A 
ATOM     29  C   UNL     1      49.826   6.868  18.126  0.00  0.00    +0.000 A 
BRANCH  21  31
ATOM     30  C   UNL     1      49.473  10.023  17.772  0.00  0.00    +0.000 C 
ATOM     31  O   UNL     1      50.591   9.136  17.743  0.00  0.00    +0.000 OA
ENDBRANCH  21  31
ENDBRANCH  17  28
ENDBRANCH   1  19
TORSDOF 7
ENDMDL
MODEL 5
REMARK VINA RESULT:    -7.202      5.246      9.383
REMARK INTER + INTRA:         -11.418
REMARK INTER:                 -10.334
REMARK INTRA:                  -1.084
REMARK UNBOUND:                -1.269
REMARK  Name = 
REMARK  8 active torsions:
REMARK  status: ('A' for Active; 'I' for Inactive)
REMARK    1  A    between atoms: C_1  and  O_2
REMARK    2  A    between atoms: O_2  and  C_3
REMARK    3  A    between atoms: C_10  and  C_11
REMARK    4  A    between atoms: N_13  and  C_14
REMARK    5  A    between atoms: C_14  and  C_15
REMARK    6  A    between atoms: C_18  and  C_19
REMARK    7  A    between atoms: C_19  and  C_20
REMARK    8  A    between atoms: C_21  and  C_22
REMARK                            x       y       z     vdW  Elec       q    Type
REMARK                         _______ _______ _______ _____ _____    ______ ____
ROOT
ATOM      1  C   UNL     1      47.208   3.414  16.824  0.00  0.00    +0.000 C 
ENDROOT
BRANCH   1   2
ATOM      2  C   UNL     1      48.690   3.293  17.066  0.00  0.00    +0.000 A 
ATOM      3  C   UNL     1      49.358   2.084  16.830  0.00  0.00    +0.000 A 
ATOM      4  C   UNL     1      50.719   1.947  17.130  0.00  0.00    +0.000 A 
ATOM      5  C   UNL     1      51.439   3.013  17.688  0.00  0.00    +0.000 A 
ATOM      6  C   UNL     1      50.781   4.235  17.883  0.00  0.00    +0.000 A 
ATOM      7  C   UNL     1      49.420   4.371  17.587  0.00  0.00    +0.000 A 
BRANCH   5   8
ATOM      8  C   UNL     1      52.886   2.844  18.101  0.00  0.00    +0.000 C 
BRANCH   8   9
ATOM      9  C   UNL     1      53.346   1.415  18.142  0.00  0.00    +0.000 C 
ATOM     10  C   UNL     1      54.144   0.857  17.218  0.00  0.00    +0.000 C 
BRANCH  10  11
ATOM     11  C   UNL     1      54.532  -0.552  17.285  0.00  0.00    +0.000 A 
ATOM     12  C   UNL     1      55.102  -1.163  16.162  0.00  0.00    +0.000 A 
ATOM     13  C   UNL     1      55.473  -2.508  16.200  0.00  0.00    +0.000 A 
ATOM     14  C   UNL     1      55.276  -3.252  17.363  0.00  0.00    +0.000 A 
ATOM     15  C   UNL     1      54.709  -2.652  18.486  0.00  0.00    +0.000 A 
ATOM     16  C   UNL     1      54.337  -1.304  18.449  0.00  0.00    +0.000 A 
ENDBRANCH  10  11
ENDBRANCH   8   9
ENDBRANCH   5   8
ENDBRANCH   1   2
BRANCH   1  19
ATOM     17  C   UNL     1      46.941   4.247  14.527  0.00  0.00    +0.000 C 
ATOM     18  O   UNL     1      47.232   3.144  14.072  0.00  0.00    +0.000 OA
ATOM     19  N   UNL     1      46.913   4.469  15.877  0.00  0.00    +0.000 N 
ATOM     20  H   UNL     1      46.689   5.384  16.243  0.00  0.00    +0.000 HD
BRANCH  17  28
ATOM     21  C   UNL     1      44.142   5.111  12.686  0.00  0.00    +0.000 A 
ATOM     22  N   UNL     1      43.225   5.675  11.876  0.00  0.00    +0.000 NA
ATOM     23  C   UNL     1      43.541   6.812  11.253  0.00  0.00    +0.000 A 
ATOM     24  N   UNL     1      44.689   7.474  11.337  0.00  0.00    +0.000 NA
ATOM     25  C   UNL     1      45.580   6.880  12.150  0.00  0.00    +0.000 A 
ATOM     26  S   UNL     1      47.103   7.593  12.373  0.00  0.00    +0.000 S 
ATOM     27  C   UNL     1      47.583   6.350  13.425  0.00  0.00    +0.000 A 
ATOM     28  C   UNL     1      46.612   5.376  13.633  0.00  0.00    +0.000 A 
ATOM     29  C   UNL     1      45.408   5.698  12.869  0.00  0.00    +0.000 A 
BRANCH  21  31
ATOM     30  C   UNL     1      43.680   2.821  12.463  0.00  0.00    +0.000 C 
ATOM     31  O   UNL     1      43.806   3.941  13.341  0.00  0.00    +0.000 OA
ENDBRANCH  21  31
ENDBRANCH  17  28
ENDBRANCH   1  19
TORSDOF 7
ENDMDL
MODEL 6
REMARK VINA RESULT:    -7.008      1.946      2.775
REMARK INTER + INTRA:         -11.145
REMARK INTER:                  -9.828
REMARK INTRA:                  -1.317
REMARK UNBOUND:                -1.269
REMARK  Name = 
REMARK  8 active torsions:
REMARK  status: ('A' for Active; 'I' for Inactive)
REMARK    1  A    between atoms: C_1  and  O_2
REMARK    2  A    between atoms: O_2  and  C_3
REMARK    3  A    between atoms: C_10  and  C_11
REMARK    4  A    between atoms: N_13  and  C_14
REMARK    5  A    between atoms: C_14  and  C_15
REMARK    6  A    between atoms: C_18  and  C_19
REMARK    7  A    between atoms: C_19  and  C_20
REMARK    8  A    between atoms: C_21  and  C_22
REMARK                            x       y       z     vdW  Elec       q    Type
REMARK                         _______ _______ _______ _____ _____    ______ ____
ROOT
ATOM      1  C   UNL     1      47.892   5.099  15.260  0.00  0.00    +0.000 C 
ENDROOT
BRANCH   1   2
ATOM      2  C   UNL     1      46.961   5.217  14.080  0.00  0.00    +0.000 A 
ATOM      3  C   UNL     1      45.932   4.285  13.884  0.00  0.00    +0.000 A 
ATOM      4  C   UNL     1      45.118   4.348  12.747  0.00  0.00    +0.000 A 
ATOM      5  C   UNL     1      45.324   5.334  11.772  0.00  0.00    +0.000 A 
ATOM      6  C   UNL     1      46.326   6.290  11.990  0.00  0.00    +0.000 A 
ATOM      7  C   UNL     1      47.142   6.226  13.125  0.00  0.00    +0.000 A 
BRANCH   5   8
ATOM      8  C   UNL     1      44.509   5.352  10.496  0.00  0.00    +0.000 C 
BRANCH   8   9
ATOM      9  C   UNL     1      45.193   4.703   9.327  0.00  0.00    +0.000 C 
ATOM     10  C   UNL     1      45.277   3.375   9.149  0.00  0.00    +0.000 C 
BRANCH  10  11
ATOM     11  C   UNL     1      45.989   2.794   8.010  0.00  0.00    +0.000 A 
ATOM     12  C   UNL     1      46.407   1.459   8.068  0.00  0.00    +0.000 A 
ATOM     13  C   UNL     1      47.095   0.887   6.997  0.00  0.00    +0.000 A 
ATOM     14  C   UNL     1      47.368   1.645   5.859  0.00  0.00    +0.000 A 
ATOM     15  C   UNL     1      46.955   2.974   5.793  0.00  0.00    +0.000 A 
ATOM     16  C   UNL     1      46.267   3.550   6.865  0.00  0.00    +0.000 A 
ENDBRANCH  10  11
ENDBRANCH   8   9
ENDBRANCH   5   8
ENDBRANCH   1   2
BRANCH   1  19
ATOM     17  C   UNL     1      49.195   7.026  16.050  0.00  0.00    +0.000 C 
ATOM     18  O   UNL     1      50.213   6.576  15.532  0.00  0.00    +0.000 OA
ATOM     19  N   UNL     1      48.005   6.355  15.970  0.00  0.00    +0.000 N 
ATOM     20  H   UNL     1      47.176   6.724  16.414  0.00  0.00    +0.000 HD
BRANCH  17  28
ATOM     21  C   UNL     1      47.844   8.099  19.050  0.00  0.00    +0.000 A 
ATOM     22  N   UNL     1      47.435   8.782  20.138  0.00  0.00    +0.000 NA
ATOM     23  C   UNL     1      47.792  10.062  20.256  0.00  0.00    +0.000 A 
ATOM     24  N   UNL     1      48.525  10.767  19.401  0.00  0.00    +0.000 NA
ATOM     25  C   UNL     1      48.911  10.054  18.327  0.00  0.00    +0.000 A 
ATOM     26  S   UNL     1      49.855  10.802  17.132  0.00  0.00    +0.000 S 
ATOM     27  C   UNL     1      49.904   9.376  16.213  0.00  0.00    +0.000 A 
ATOM     28  C   UNL     1      49.217   8.309  16.782  0.00  0.00    +0.000 A 
ATOM     29  C   UNL     1      48.623   8.718  18.055  0.00  0.00    +0.000 A 
BRANCH  21  31
ATOM     30  C   UNL     1      47.388   6.104  20.197  0.00  0.00    +0.000 C 
ATOM     31  O   UNL     1      47.484   6.770  18.938  0.00  0.00    +0.000 OA
ENDBRANCH  21  31
ENDBRANCH  17  28
ENDBRANCH   1  19
TORSDOF 7
ENDMDL
MODEL 7
REMARK VINA RESULT:    -6.890      2.543      3.177
REMARK INTER + INTRA:         -10.979
REMARK INTER:                  -9.799
REMARK INTRA:                  -1.180
REMARK UNBOUND:                -1.269
REMARK  Name = 
REMARK  8 active torsions:
REMARK  status: ('A' for Active; 'I' for Inactive)
REMARK    1  A    between atoms: C_1  and  O_2
REMARK    2  A    between atoms: O_2  and  C_3
REMARK    3  A    between atoms: C_10  and  C_11
REMARK    4  A    between atoms: N_13  and  C_14
REMARK    5  A    between atoms: C_14  and  C_15
REMARK    6  A    between atoms: C_18  and  C_19
REMARK    7  A    between atoms: C_19  and  C_20
REMARK    8  A    between atoms: C_21  and  C_22
REMARK                            x       y       z     vdW  Elec       q    Type
REMARK                         _______ _______ _______ _____ _____    ______ ____
ROOT
ATOM      1  C   UNL     1      48.013   8.003  14.502  0.00  0.00    +0.000 C 
ENDROOT
BRANCH   1   2
ATOM      2  C   UNL     1      47.118   7.358  13.475  0.00  0.00    +0.000 A 
ATOM      3  C   UNL     1      46.139   8.106  12.808  0.00  0.00    +0.000 A 
ATOM      4  C   UNL     1      45.255   7.491  11.913  0.00  0.00    +0.000 A 
ATOM      5  C   UNL     1      45.320   6.111  11.677  0.00  0.00    +0.000 A 
ATOM      6  C   UNL     1      46.327   5.371  12.313  0.00  0.00    +0.000 A 
ATOM      7  C   UNL     1      47.209   5.985  13.210  0.00  0.00    +0.000 A 
BRANCH   5   8
ATOM      8  C   UNL     1      44.309   5.423  10.784  0.00  0.00    +0.000 C 
BRANCH   8   9
ATOM      9  C   UNL     1      44.883   4.309   9.957  0.00  0.00    +0.000 C 
ATOM     10  C   UNL     1      45.538   4.494   8.799  0.00  0.00    +0.000 C 
BRANCH  10  11
ATOM     11  C   UNL     1      46.045   3.369   8.014  0.00  0.00    +0.000 A 
ATOM     12  C   UNL     1      45.970   2.073   8.540  0.00  0.00    +0.000 A 
ATOM     13  C   UNL     1      46.456   0.986   7.812  0.00  0.00    +0.000 A 
ATOM     14  C   UNL     1      47.019   1.186   6.553  0.00  0.00    +0.000 A 
ATOM     15  C   UNL     1      47.098   2.472   6.022  0.00  0.00    +0.000 A 
ATOM     16  C   UNL     1      46.613   3.563   6.749  0.00  0.00    +0.000 A 
ENDBRANCH  10  11
ENDBRANCH   8   9
ENDBRANCH   5   8
ENDBRANCH   1   2
BRANCH   1  19
ATOM     17  C   UNL     1      49.181   6.989  16.411  0.00  0.00    +0.000 C 
ATOM     18  O   UNL     1      48.619   7.756  17.188  0.00  0.00    +0.000 OA
ATOM     19  N   UNL     1      48.944   7.048  15.064  0.00  0.00    +0.000 N 
ATOM     20  H   UNL     1      49.424   6.425  14.430  0.00  0.00    +0.000 HD
BRANCH  17  28
ATOM     21  C   UNL     1      52.631   6.851  16.632  0.00  0.00    +0.000 A 
ATOM     22  N   UNL     1      53.924   6.519  16.819  0.00  0.00    +0.000 NA
ATOM     23  C   UNL     1      54.204   5.324  17.342  0.00  0.00    +0.000 A 
ATOM     24  N   UNL     1      53.332   4.392  17.711  0.00  0.00    +0.000 NA
ATOM     25  C   UNL     1      52.054   4.757  17.505  0.00  0.00    +0.000 A 
ATOM     26  S   UNL     1      50.809   3.682  17.920  0.00  0.00    +0.000 S 
ATOM     27  C   UNL     1      49.625   4.779  17.396  0.00  0.00    +0.000 A 
ATOM     28  C   UNL     1      50.136   5.974  16.901  0.00  0.00    +0.000 A 
ATOM     29  C   UNL     1      51.597   5.960  16.971  0.00  0.00    +0.000 A 
BRANCH  21  31
ATOM     30  C   UNL     1      52.404   8.127  14.676  0.00  0.00    +0.000 C 
ATOM     31  O   UNL     1      52.345   8.095  16.103  0.00  0.00    +0.000 OA
ENDBRANCH  21  31
ENDBRANCH  17  28
ENDBRANCH   1  19
TORSDOF 7
ENDMDL
MODEL 8
REMARK VINA RESULT:    -6.886      2.569      3.118
REMARK INTER + INTRA:         -10.974
REMARK INTER:                  -9.797
REMARK INTRA:                  -1.177
REMARK UNBOUND:                -1.269
REMARK  Name = 
REMARK  8 active torsions:
REMARK  status: ('A' for Active; 'I' for Inactive)
REMARK    1  A    between atoms: C_1  and  O_2
REMARK    2  A    between atoms: O_2  and  C_3
REMARK    3  A    between atoms: C_10  and  C_11
REMARK    4  A    between atoms: N_13  and  C_14
REMARK    5  A    between atoms: C_14  and  C_15
REMARK    6  A    between atoms: C_18  and  C_19
REMARK    7  A    between atoms: C_19  and  C_20
REMARK    8  A    between atoms: C_21  and  C_22
REMARK                            x       y       z     vdW  Elec       q    Type
REMARK                         _______ _______ _______ _____ _____    ______ ____
ROOT
ATOM      1  C   UNL     1      47.039   8.555  13.851  0.00  0.00    +0.000 C 
ENDROOT
BRANCH   1   2
ATOM      2  C   UNL     1      46.275   7.592  12.980  0.00  0.00    +0.000 A 
ATOM      3  C   UNL     1      45.278   8.053  12.108  0.00  0.00    +0.000 A 
ATOM      4  C   UNL     1      44.513   7.152  11.356  0.00  0.00    +0.000 A 
ATOM      5  C   UNL     1      44.717   5.770  11.472  0.00  0.00    +0.000 A 
ATOM      6  C   UNL     1      45.741   5.313  12.312  0.00  0.00    +0.000 A 
ATOM      7  C   UNL     1      46.504   6.213  13.065  0.00  0.00    +0.000 A 
BRANCH   5   8
ATOM      8  C   UNL     1      43.831   4.788  10.734  0.00  0.00    +0.000 C 
BRANCH   8   9
ATOM      9  C   UNL     1      44.584   3.826   9.861  0.00  0.00    +0.000 C 
ATOM     10  C   UNL     1      45.255   4.184   8.754  0.00  0.00    +0.000 C 
BRANCH  10  11
ATOM     11  C   UNL     1      45.941   3.200   7.916  0.00  0.00    +0.000 A 
ATOM     12  C   UNL     1      46.046   1.875   8.358  0.00  0.00    +0.000 A 
ATOM     13  C   UNL     1      46.703   0.921   7.580  0.00  0.00    +0.000 A 
ATOM     14  C   UNL     1      47.259   1.284   6.355  0.00  0.00    +0.000 A 
ATOM     15  C   UNL     1      47.160   2.601   5.908  0.00  0.00    +0.000 A 
ATOM     16  C   UNL     1      46.502   3.559   6.686  0.00  0.00    +0.000 A 
ENDBRANCH  10  11
ENDBRANCH   8   9
ENDBRANCH   5   8
ENDBRANCH   1   2
BRANCH   1  19
ATOM     17  C   UNL     1      49.359   9.024  14.512  0.00  0.00    +0.000 C 
ATOM     18  O   UNL     1      49.030  10.117  14.965  0.00  0.00    +0.000 OA
ATOM     19  N   UNL     1      48.438   8.192  13.936  0.00  0.00    +0.000 N 
ATOM     20  H   UNL     1      48.720   7.302  13.550  0.00  0.00    +0.000 HD
BRANCH  17  28
ATOM     21  C   UNL     1      51.090   6.847  16.570  0.00  0.00    +0.000 A 
ATOM     22  N   UNL     1      52.000   6.086  17.209  0.00  0.00    +0.000 NA
ATOM     23  C   UNL     1      53.259   6.096  16.766  0.00  0.00    +0.000 A 
ATOM     24  N   UNL     1      53.737   6.790  15.739  0.00  0.00    +0.000 NA
ATOM     25  C   UNL     1      52.801   7.540  15.131  0.00  0.00    +0.000 A 
ATOM     26  S   UNL     1      53.241   8.493  13.797  0.00  0.00    +0.000 S 
ATOM     27  C   UNL     1      51.656   9.075  13.632  0.00  0.00    +0.000 A 
ATOM     28  C   UNL     1      50.763   8.568  14.570  0.00  0.00    +0.000 A 
ATOM     29  C   UNL     1      51.453   7.642  15.468  0.00  0.00    +0.000 A 
BRANCH  21  31
ATOM     30  C   UNL     1      49.035   5.715  16.526  0.00  0.00    +0.000 C 
ATOM     31  O   UNL     1      49.784   6.824  17.023  0.00  0.00    +0.000 OA
ENDBRANCH  21  31
ENDBRANCH  17  28
ENDBRANCH   1  19
TORSDOF 7
ENDMDL
MODEL 9
REMARK VINA RESULT:    -6.720      2.541      4.336
REMARK INTER + INTRA:         -10.740
REMARK INTER:                  -9.332
REMARK INTRA:                  -1.408
REMARK UNBOUND:                -1.269
REMARK  Name = 
REMARK  8 active torsions:
REMARK  status: ('A' for Active; 'I' for Inactive)
REMARK    1  A    between atoms: C_1  and  O_2
REMARK    2  A    between atoms: O_2  and  C_3
REMARK    3  A    between atoms: C_10  and  C_11
REMARK    4  A    between atoms: N_13  and  C_14
REMARK    5  A    between atoms: C_14  and  C_15
REMARK    6  A    between atoms: C_18  and  C_19
REMARK    7  A    between atoms: C_19  and  C_20
REMARK    8  A    between atoms: C_21  and  C_22
REMARK                            x       y       z     vdW  Elec       q    Type
REMARK                         _______ _______ _______ _____ _____    ______ ____
ROOT
ATOM      1  C   UNL     1      48.045   5.784  15.028  0.00  0.00    +0.000 C 
ENDROOT
BRANCH   1   2
ATOM      2  C   UNL     1      47.001   5.638  13.951  0.00  0.00    +0.000 A 
ATOM      3  C   UNL     1      46.292   4.439  13.798  0.00  0.00    +0.000 A 
ATOM      4  C   UNL     1      45.380   4.275  12.749  0.00  0.00    +0.000 A 
ATOM      5  C   UNL     1      45.168   5.303  11.819  0.00  0.00    +0.000 A 
ATOM      6  C   UNL     1      45.845   6.516  11.997  0.00  0.00    +0.000 A 
ATOM      7  C   UNL     1      46.760   6.679  13.044  0.00  0.00    +0.000 A 
BRANCH   5   8
ATOM      8  C   UNL     1      44.254   5.100  10.628  0.00  0.00    +0.000 C 
BRANCH   8   9
ATOM      9  C   UNL     1      44.941   4.527   9.422  0.00  0.00    +0.000 C 
ATOM     10  C   UNL     1      45.234   3.225   9.273  0.00  0.00    +0.000 C 
BRANCH  10  11
ATOM     11  C   UNL     1      45.939   2.725   8.092  0.00  0.00    +0.000 A 
ATOM     12  C   UNL     1      46.375   1.395   8.064  0.00  0.00    +0.000 A 
ATOM     13  C   UNL     1      47.057   0.898   6.953  0.00  0.00    +0.000 A 
ATOM     14  C   UNL     1      47.308   1.728   5.861  0.00  0.00    +0.000 A 
ATOM     15  C   UNL     1      46.877   3.053   5.880  0.00  0.00    +0.000 A 
ATOM     16  C   UNL     1      46.194   3.553   6.994  0.00  0.00    +0.000 A 
ENDBRANCH  10  11
ENDBRANCH   8   9
ENDBRANCH   5   8
ENDBRANCH   1   2
BRANCH   1  19
ATOM     17  C   UNL     1      50.002   7.206  15.456  0.00  0.00    +0.000 C 
ATOM     18  O   UNL     1      50.541   6.307  16.096  0.00  0.00    +0.000 OA
ATOM     19  N   UNL     1      48.764   7.033  14.900  0.00  0.00    +0.000 N 
ATOM     20  H   UNL     1      48.321   7.784  14.389  0.00  0.00    +0.000 HD
BRANCH  17  28
ATOM     21  C   UNL     1      50.385   9.328  12.750  0.00  0.00    +0.000 A 
ATOM     22  N   UNL     1      50.701  10.315  11.889  0.00  0.00    +0.000 NA
ATOM     23  C   UNL     1      51.423  11.344  12.338  0.00  0.00    +0.000 A 
ATOM     24  N   UNL     1      51.883  11.516  13.571  0.00  0.00    +0.000 NA
ATOM     25  C   UNL     1      51.552  10.510  14.401  0.00  0.00    +0.000 A 
ATOM     26  S   UNL     1      52.061  10.568  16.018  0.00  0.00    +0.000 S 
ATOM     27  C   UNL     1      51.318   9.080  16.354  0.00  0.00    +0.000 A 
ATOM     28  C   UNL     1      50.672   8.509  15.263  0.00  0.00    +0.000 A 
ATOM     29  C   UNL     1      50.811   9.372  14.091  0.00  0.00    +0.000 A 
BRANCH  21  31
ATOM     30  C   UNL     1      50.272   7.526  11.252  0.00  0.00    +0.000 C 
ATOM     31  O   UNL     1      49.626   8.271  12.285  0.00  0.00    +0.000 OA
ENDBRANCH  21  31
ENDBRANCH  17  28
ENDBRANCH   1  19
TORSDOF 7
ENDMDL
