MODEL 1
REMARK VINA RESULT:    -8.695      0.000      0.000
REMARK INTER + INTRA:         -11.950
REMARK INTER:                 -11.236
REMARK INTRA:                  -0.714
REMARK UNBOUND:                -0.714
REMARK  Name = 
REMARK  7 active torsions:
REMARK  status: ('A' for Active; 'I' for Inactive)
REMARK    1  A    between atoms: C_1  and  C_2
REMARK    2  A    between atoms: N_6  and  C_7
REMARK    3  A    between atoms: C_7  and  C_8
REMARK    4  A    between atoms: C_8  and  C_11
REMARK    5  A    between atoms: C_15  and  O_16
REMARK    6  A    between atoms: O_16  and  C_17
REMARK    7  A    between atoms: N_19  and  C_20
REMARK                            x       y       z     vdW  Elec       q    Type
REMARK                         _______ _______ _______ _____ _____    ______ ____
ROOT
ATOM      1  C   UNL     1      43.565   5.411  11.976  0.00  0.00    +0.000 C 
ATOM      2  F   UNL     1      43.223   6.602  11.385  0.00  0.00    +0.000 F 
ATOM      3  F   UNL     1      42.641   5.239  12.972  0.00  0.00    +0.000 F 
ENDROOT
BRANCH   1   4
ATOM      4  C   UNL     1      44.965   5.484  12.565  0.00  0.00    +0.000 A 
ATOM      5  C   UNL     1      45.745   6.624  12.314  0.00  0.00    +0.000 A 
ATOM      6  C   UNL     1      47.013   6.764  12.882  0.00  0.00    +0.000 A 
ATOM      7  C   UNL     1      47.532   5.766  13.713  0.00  0.00    +0.000 A 
ATOM      8  C   UNL     1      46.780   4.622  13.955  0.00  0.00    +0.000 A 
ATOM      9  C   UNL     1      45.510   4.488  13.388  0.00  0.00    +0.000 A 
BRANCH   8  10
ATOM     10  O   UNL     1      47.133   3.583  14.775  0.00  0.00    +0.000 OA
BRANCH  10  11
ATOM     11  C   UNL     1      47.923   3.832  15.956  0.00  0.00    +0.000 C 
ATOM     12  C   UNL     1      48.450   2.617  16.755  0.00  0.00    +0.000 C 
ATOM     13  N   UNL     1      47.919   3.197  18.009  0.00  0.00    +0.000 NA
ATOM     14  C   UNL     1      48.959   3.936  18.726  0.00  0.00    +0.000 C 
ATOM     15  C   UNL     1      47.081   4.125  17.224  0.00  0.00    +0.000 C 
ENDBRANCH  10  11
ENDBRANCH   8  10
ENDBRANCH   1   4
BRANCH   1  16
ATOM     16  C   UNL     1      43.352   4.295  10.922  0.00  0.00    +0.000 C 
BRANCH  16  22
ATOM     17  C   UNL     1      47.472   1.474   6.909  0.00  0.00    +0.000 C 
ATOM     18  C   UNL     1      46.517   2.324   7.670  0.00  0.00    +0.000 A 
ATOM     19  C   UNL     1      45.668   1.825   8.632  0.00  0.00    +0.000 A 
ATOM     20  N   UNL     1      44.770   2.578   9.298  0.00  0.00    +0.000 NA
ATOM     21  C   UNL     1      44.710   3.879   8.984  0.00  0.00    +0.000 A 
ATOM     22  N   UNL     1      43.760   4.694   9.573  0.00  0.00    +0.000 N 
ATOM     23  N   UNL     1      45.514   4.470   8.091  0.00  0.00    +0.000 NA
ATOM     24  C   UNL     1      46.397   3.677   7.451  0.00  0.00    +0.000 A 
ATOM     25  H   UNL     1      44.049   5.658   9.456  0.00  0.00    +0.000 HD
ENDBRANCH  16  22
ENDBRANCH   1  16
TORSDOF 5
ENDMDL
MODEL 2
REMARK VINA RESULT:    -7.499      3.532      5.590
REMARK INTER + INTRA:         -10.406
REMARK INTER:                  -9.732
REMARK INTRA:                  -0.673
REMARK UNBOUND:                -0.714
REMARK  Name = 
REMARK  7 active torsions:
REMARK  status: ('A' for Active; 'I' for Inactive)
REMARK    1  A    between atoms: C_1  and  C_2
REMARK    2  A    between atoms: N_6  and  C_7
REMARK    3  A    between atoms: C_7  and  C_8
REMARK    4  A    between atoms: C_8  and  C_11
REMARK    5  A    between atoms: C_15  and  O_16
REMARK    6  A    between atoms: O_16  and  C_17
REMARK    7  A    between atoms: N_19  and  C_20
REMARK                            x       y       z     vdW  Elec       q    Type
REMARK                         _______ _______ _______ _____ _____    ______ ____
ROOT
ATOM      1  C   UNL     1      44.323   4.650  12.321  0.00  0.00    +0.000 C 
ATOM      2  F   UNL     1      43.551   4.646  13.457  0.00  0.00    +0.000 F 
ATOM      3  F   UNL     1      45.126   3.547  12.442  0.00  0.00    +0.000 F 
ENDROOT
BRANCH   1   4
ATOM      4  C   UNL     1      45.170   5.911  12.249  0.00  0.00    +0.000 A 
ATOM      5  C   UNL     1      46.550   5.786  12.030  0.00  0.00    +0.000 A 
ATOM      6  C   UNL     1      47.361   6.916  11.896  0.00  0.00    +0.000 A 
ATOM      7  C   UNL     1      46.809   8.198  11.980  0.00  0.00    +0.000 A 
ATOM      8  C   UNL     1      45.446   8.338  12.217  0.00  0.00    +0.000 A 
ATOM      9  C   UNL     1      44.639   7.205  12.346  0.00  0.00    +0.000 A 
BRANCH   8  10
ATOM     10  O   UNL     1      44.756   9.520  12.283  0.00  0.00    +0.000 OA
BRANCH  10  11
ATOM     11  C   UNL     1      44.290  10.153  11.074  0.00  0.00    +0.000 C 
ATOM     12  C   UNL     1      43.566  11.515  11.190  0.00  0.00    +0.000 C 
ATOM     13  N   UNL     1      42.454  11.007  10.356  0.00  0.00    +0.000 NA
ATOM     14  C   UNL     1      42.634  11.387   8.955  0.00  0.00    +0.000 C 
ATOM     15  C   UNL     1      42.921   9.623  10.576  0.00  0.00    +0.000 C 
ENDBRANCH  10  11
ENDBRANCH   8  10
ENDBRANCH   1   4
BRANCH   1  16
ATOM     16  C   UNL     1      43.372   4.425  11.117  0.00  0.00    +0.000 C 
BRANCH  16  22
ATOM     17  C   UNL     1      47.220   1.569   6.866  0.00  0.00    +0.000 C 
ATOM     18  C   UNL     1      46.369   2.446   7.714  0.00  0.00    +0.000 A 
ATOM     19  C   UNL     1      45.400   1.961   8.563  0.00  0.00    +0.000 A 
ATOM     20  N   UNL     1      44.594   2.748   9.304  0.00  0.00    +0.000 NA
ATOM     21  C   UNL     1      44.755   4.073   9.184  0.00  0.00    +0.000 A 
ATOM     22  N   UNL     1      43.912   4.939   9.856  0.00  0.00    +0.000 N 
ATOM     23  N   UNL     1      45.689   4.645   8.415  0.00  0.00    +0.000 NA
ATOM     24  C   UNL     1      46.472   3.818   7.693  0.00  0.00    +0.000 A 
ATOM     25  H   UNL     1      44.354   5.851   9.893  0.00  0.00    +0.000 HD
ENDBRANCH  16  22
ENDBRANCH   1  16
TORSDOF 5
ENDMDL
MODEL 3
REMARK VINA RESULT:    -7.442      2.745      3.968
REMARK INTER + INTRA:         -10.331
REMARK INTER:                  -9.624
REMARK INTRA:                  -0.708
REMARK UNBOUND:                -0.714
REMARK  Name = 
REMARK  7 active torsions:
REMARK  status: ('A' for Active; 'I' for Inactive)
REMARK    1  A    between atoms: C_1  and  C_2
REMARK    2  A    between atoms: N_6  and  C_7
REMARK    3  A    between atoms: C_7  and  C_8
REMARK    4  A    between atoms: C_8  and  C_11
REMARK    5  A    between atoms: C_15  and  O_16
REMARK    6  A    between atoms: O_16  and  C_17
REMARK    7  A    between atoms: N_19  and  C_20
REMARK                            x       y       z     vdW  Elec       q    Type
REMARK                         _______ _______ _______ _____ _____    ______ ____
ROOT
ATOM      1  C   UNL     1      43.436   4.809  12.131  0.00  0.00    +0.000 C 
ATOM      2  F   UNL     1      42.648   5.882  11.793  0.00  0.00    +0.000 F 
ATOM      3  F   UNL     1      42.775   4.205  13.168  0.00  0.00    +0.000 F 
ENDROOT
BRANCH   1   4
ATOM      4  C   UNL     1      44.812   5.272  12.584  0.00  0.00    +0.000 A 
ATOM      5  C   UNL     1      45.604   4.397  13.343  0.00  0.00    +0.000 A 
ATOM      6  C   UNL     1      46.897   4.754  13.732  0.00  0.00    +0.000 A 
ATOM      7  C   UNL     1      47.429   5.996  13.371  0.00  0.00    +0.000 A 
ATOM      8  C   UNL     1      46.650   6.882  12.636  0.00  0.00    +0.000 A 
ATOM      9  C   UNL     1      45.357   6.519  12.246  0.00  0.00    +0.000 A 
BRANCH   8  10
ATOM     10  O   UNL     1      47.043   8.110  12.174  0.00  0.00    +0.000 OA
BRANCH  10  11
ATOM     11  C   UNL     1      48.389   8.573  12.409  0.00  0.00    +0.000 C 
ATOM     12  C   UNL     1      48.632   9.562  13.573  0.00  0.00    +0.000 C 
ATOM     13  N   UNL     1      49.376  10.463  12.665  0.00  0.00    +0.000 NA
ATOM     14  C   UNL     1      50.817  10.227  12.758  0.00  0.00    +0.000 C 
ATOM     15  C   UNL     1      48.814   9.753  11.499  0.00  0.00    +0.000 C 
ENDBRANCH  10  11
ENDBRANCH   8  10
ENDBRANCH   1   4
BRANCH   1  16
ATOM     16  C   UNL     1      43.432   3.836  10.925  0.00  0.00    +0.000 C 
BRANCH  16  22
ATOM     17  C   UNL     1      47.759   1.994   6.575  0.00  0.00    +0.000 C 
ATOM     18  C   UNL     1      46.745   2.642   7.449  0.00  0.00    +0.000 A 
ATOM     19  C   UNL     1      45.924   1.937   8.300  0.00  0.00    +0.000 A 
ATOM     20  N   UNL     1      44.973   2.508   9.065  0.00  0.00    +0.000 NA
ATOM     21  C   UNL     1      44.829   3.837   8.969  0.00  0.00    +0.000 A 
ATOM     22  N   UNL     1      43.823   4.479   9.668  0.00  0.00    +0.000 N 
ATOM     23  N   UNL     1      45.598   4.619   8.201  0.00  0.00    +0.000 NA
ATOM     24  C   UNL     1      46.536   4.001   7.454  0.00  0.00    +0.000 A 
ATOM     25  H   UNL     1      44.048   5.467   9.717  0.00  0.00    +0.000 HD
ENDBRANCH  16  22
ENDBRANCH   1  16
TORSDOF 5
ENDMDL
MODEL 4
REMARK VINA RESULT:    -7.314      2.666      3.170
REMARK INTER + INTRA:         -10.166
REMARK INTER:                  -9.622
REMARK INTRA:                  -0.544
REMARK UNBOUND:                -0.714
REMARK  Name = 
REMARK  7 active torsions:
REMARK  status: ('A' for Active; 'I' for Inactive)
REMARK    1  A    between atoms: C_1  and  C_2
REMARK    2  A    between atoms: N_6  and  C_7
REMARK    3  A    between atoms: C_7  and  C_8
REMARK    4  A    between atoms: C_8  and  C_11
REMARK    5  A    between atoms: C_15  and  O_16
REMARK    6  A    between atoms: O_16  and  C_17
REMARK    7  A    between atoms: N_19  and  C_20
REMARK                            x       y       z     vdW  Elec       q    Type
REMARK                         _______ _______ _______ _____ _____    ______ ____
ROOT
ATOM      1  C   UNL     1      44.471   4.363  12.073  0.00  0.00    +0.000 C 
ATOM      2  F   UNL     1      43.735   4.242  13.227  0.00  0.00    +0.000 F 
ATOM      3  F   UNL     1      45.395   3.353  12.143  0.00  0.00    +0.000 F 
ENDROOT
BRANCH   1   4
ATOM      4  C   UNL     1      45.171   5.712  12.019  0.00  0.00    +0.000 A 
ATOM      5  C   UNL     1      44.395   6.869  11.855  0.00  0.00    +0.000 A 
ATOM      6  C   UNL     1      44.985   8.135  11.858  0.00  0.00    +0.000 A 
ATOM      7  C   UNL     1      46.367   8.273  12.024  0.00  0.00    +0.000 A 
ATOM      8  C   UNL     1      47.152   7.135  12.168  0.00  0.00    +0.000 A 
ATOM      9  C   UNL     1      46.556   5.870  12.167  0.00  0.00    +0.000 A 
BRANCH   8  10
ATOM     10  O   UNL     1      48.505   7.110  12.380  0.00  0.00    +0.000 OA
BRANCH  10  11
ATOM     11  C   UNL     1      49.087   7.914  13.426  0.00  0.00    +0.000 C 
ATOM     12  C   UNL     1      50.626   8.065  13.465  0.00  0.00    +0.000 C 
ATOM     13  N   UNL     1      50.637   7.693  14.897  0.00  0.00    +0.000 NA
ATOM     14  C   UNL     1      50.644   8.883  15.748  0.00  0.00    +0.000 C 
ATOM     15  C   UNL     1      49.265   7.162  14.769  0.00  0.00    +0.000 C 
ENDBRANCH  10  11
ENDBRANCH   8  10
ENDBRANCH   1   4
BRANCH   1  16
ATOM     16  C   UNL     1      43.520   4.066  10.886  0.00  0.00    +0.000 C 
BRANCH  16  22
ATOM     17  C   UNL     1      47.645   1.673   6.608  0.00  0.00    +0.000 C 
ATOM     18  C   UNL     1      46.702   2.446   7.462  0.00  0.00    +0.000 A 
ATOM     19  C   UNL     1      45.804   1.852   8.319  0.00  0.00    +0.000 A 
ATOM     20  N   UNL     1      44.917   2.540   9.065  0.00  0.00    +0.000 NA
ATOM     21  C   UNL     1      44.920   3.874   8.943  0.00  0.00    +0.000 A 
ATOM     22  N   UNL     1      43.986   4.637   9.621  0.00  0.00    +0.000 N 
ATOM     23  N   UNL     1      45.774   4.551   8.166  0.00  0.00    +0.000 NA
ATOM     24  C   UNL     1      46.644   3.820   7.439  0.00  0.00    +0.000 A 
ATOM     25  H   UNL     1      44.318   5.594   9.653  0.00  0.00    +0.000 HD
ENDBRANCH  16  22
ENDBRANCH   1  16
TORSDOF 5
ENDMDL
MODEL 5
REMARK VINA RESULT:    -7.195      2.323      7.549
REMARK INTER + INTRA:         -10.012
REMARK INTER:                  -9.499
REMARK INTRA:                  -0.513
REMARK UNBOUND:                -0.714
REMARK  Name = 
REMARK  7 active torsions:
REMARK  status: ('A' for Active; 'I' for Inactive)
REMARK    1  A    between atoms: C_1  and  C_2
REMARK    2  A    between atoms: N_6  and  C_7
REMARK    3  A    between atoms: C_7  and  C_8
REMARK    4  A    between atoms: C_8  and  C_11
REMARK    5  A    between atoms: C_15  and  O_16
REMARK    6  A    between atoms: O_16  and  C_17
REMARK    7  A    between atoms: N_19  and  C_20
REMARK                            x       y       z     vdW  Elec       q    Type
REMARK                         _______ _______ _______ _____ _____    ______ ____
ROOT
ATOM      1  C   UNL     1      46.618   6.520  12.154  0.00  0.00    +0.000 C 
ATOM      2  F   UNL     1      46.285   7.785  12.573  0.00  0.00    +0.000 F 
ATOM      3  F   UNL     1      47.416   6.715  11.058  0.00  0.00    +0.000 F 
ENDROOT
BRANCH   1   4
ATOM      4  C   UNL     1      45.374   5.736  11.765  0.00  0.00    +0.000 A 
ATOM      5  C   UNL     1      44.164   6.022  12.415  0.00  0.00    +0.000 A 
ATOM      6  C   UNL     1      42.983   5.371  12.052  0.00  0.00    +0.000 A 
ATOM      7  C   UNL     1      42.986   4.416  11.030  0.00  0.00    +0.000 A 
ATOM      8  C   UNL     1      44.180   4.107  10.390  0.00  0.00    +0.000 A 
ATOM      9  C   UNL     1      45.359   4.763  10.755  0.00  0.00    +0.000 A 
BRANCH   8  10
ATOM     10  O   UNL     1      44.335   3.229   9.349  0.00  0.00    +0.000 OA
BRANCH  10  11
ATOM     11  C   UNL     1      45.619   3.085   8.710  0.00  0.00    +0.000 C 
ATOM     12  C   UNL     1      45.720   3.365   7.193  0.00  0.00    +0.000 C 
ATOM     13  N   UNL     1      46.412   2.073   6.989  0.00  0.00    +0.000 NA
ATOM     14  C   UNL     1      47.863   2.253   6.970  0.00  0.00    +0.000 C 
ATOM     15  C   UNL     1      45.968   1.625   8.324  0.00  0.00    +0.000 C 
ENDBRANCH  10  11
ENDBRANCH   8  10
ENDBRANCH   1   4
BRANCH   1  16
ATOM     16  C   UNL     1      47.479   5.877  13.271  0.00  0.00    +0.000 C 
BRANCH  16  22
ATOM     17  C   UNL     1      49.095   3.740  19.090  0.00  0.00    +0.000 C 
ATOM     18  C   UNL     1      48.508   4.090  17.768  0.00  0.00    +0.000 A 
ATOM     19  C   UNL     1      48.880   5.205  17.052  0.00  0.00    +0.000 A 
ATOM     20  N   UNL     1      48.326   5.555  15.874  0.00  0.00    +0.000 NA
ATOM     21  C   UNL     1      47.353   4.766  15.398  0.00  0.00    +0.000 A 
ATOM     22  N   UNL     1      46.689   5.107  14.233  0.00  0.00    +0.000 N 
ATOM     23  N   UNL     1      46.943   3.641  15.997  0.00  0.00    +0.000 NA
ATOM     24  C   UNL     1      47.527   3.332  17.173  0.00  0.00    +0.000 A 
ATOM     25  H   UNL     1      46.224   4.279  13.876  0.00  0.00    +0.000 HD
ENDBRANCH  16  22
ENDBRANCH   1  16
TORSDOF 5
ENDMDL
MODEL 6
REMARK VINA RESULT:    -6.561      2.501      7.959
REMARK INTER + INTRA:          -9.193
REMARK INTER:                  -8.933
REMARK INTRA:                  -0.259
REMARK UNBOUND:                -0.714
REMARK  Name = 
REMARK  7 active torsions:
REMARK  status: ('A' for Active; 'I' for Inactive)
REMARK    1  A    between atoms: C_1  and  C_2
REMARK    2  A    between atoms: N_6  and  C_7
REMARK    3  A    between atoms: C_7  and  C_8
REMARK    4  A    between atoms: C_8  and  C_11
REMARK    5  A    between atoms: C_15  and  O_16
REMARK    6  A    between atoms: O_16  and  C_17
REMARK    7  A    between atoms: N_19  and  C_20
REMARK                            x       y       z     vdW  Elec       q    Type
REMARK                         _______ _______ _______ _____ _____    ______ ____
ROOT
ATOM      1  C   UNL     1      46.816   4.396  13.593  0.00  0.00    +0.000 C 
ATOM      2  F   UNL     1      47.722   5.196  12.941  0.00  0.00    +0.000 F 
ATOM      3  F   UNL     1      47.390   3.153  13.598  0.00  0.00    +0.000 F 
ENDROOT
BRANCH   1   4
ATOM      4  C   UNL     1      45.492   4.362  12.845  0.00  0.00    +0.000 A 
ATOM      5  C   UNL     1      44.548   5.369  13.096  0.00  0.00    +0.000 A 
ATOM      6  C   UNL     1      43.343   5.414  12.391  0.00  0.00    +0.000 A 
ATOM      7  C   UNL     1      43.053   4.450  11.420  0.00  0.00    +0.000 A 
ATOM      8  C   UNL     1      43.970   3.435  11.174  0.00  0.00    +0.000 A 
ATOM      9  C   UNL     1      45.176   3.396  11.879  0.00  0.00    +0.000 A 
BRANCH   8  10
ATOM     10  O   UNL     1      43.848   2.449  10.230  0.00  0.00    +0.000 OA
BRANCH  10  11
ATOM     11  C   UNL     1      44.418   2.631   8.918  0.00  0.00    +0.000 C 
ATOM     12  C   UNL     1      45.750   1.916   8.591  0.00  0.00    +0.000 C 
ATOM     13  N   UNL     1      46.324   3.188   8.098  0.00  0.00    +0.000 NA
ATOM     14  C   UNL     1      46.192   3.294   6.645  0.00  0.00    +0.000 C 
ATOM     15  C   UNL     1      45.241   3.936   8.767  0.00  0.00    +0.000 C 
ENDBRANCH  10  11
ENDBRANCH   8  10
ENDBRANCH   1   4
BRANCH   1  16
ATOM     16  C   UNL     1      46.731   4.895  15.058  0.00  0.00    +0.000 C 
BRANCH  16  22
ATOM     17  C   UNL     1      51.315   4.652  19.527  0.00  0.00    +0.000 C 
ATOM     18  C   UNL     1      50.323   4.955  18.460  0.00  0.00    +0.000 A 
ATOM     19  C   UNL     1      49.709   3.982  17.705  0.00  0.00    +0.000 A 
ATOM     20  N   UNL     1      48.842   4.246  16.708  0.00  0.00    +0.000 NA
ATOM     21  C   UNL     1      48.584   5.535  16.448  0.00  0.00    +0.000 A 
ATOM     22  N   UNL     1      47.763   5.880  15.390  0.00  0.00    +0.000 N 
ATOM     23  N   UNL     1      49.099   6.555  17.145  0.00  0.00    +0.000 NA
ATOM     24  C   UNL     1      49.962   6.241  18.133  0.00  0.00    +0.000 A 
ATOM     25  H   UNL     1      47.448   6.834  15.528  0.00  0.00    +0.000 HD
ENDBRANCH  16  22
ENDBRANCH   1  16
TORSDOF 5
ENDMDL
MODEL 7
REMARK VINA RESULT:    -6.337      3.453      7.492
REMARK INTER + INTRA:          -8.903
REMARK INTER:                  -8.647
REMARK INTRA:                  -0.256
REMARK UNBOUND:                -0.714
REMARK  Name = 
REMARK  7 active torsions:
REMARK  status: ('A' for Active; 'I' for Inactive)
REMARK    1  A    between atoms: C_1  and  C_2
REMARK    2  A    between atoms: N_6  and  C_7
REMARK    3  A    between atoms: C_7  and  C_8
REMARK    4  A    between atoms: C_8  and  C_11
REMARK    5  A    between atoms: C_15  and  O_16
REMARK    6  A    between atoms: O_16  and  C_17
REMARK    7  A    between atoms: N_19  and  C_20
REMARK                            x       y       z     vdW  Elec       q    Type
REMARK                         _______ _______ _______ _____ _____    ______ ____
ROOT
ATOM      1  C   UNL     1      46.615   4.453  13.797  0.00  0.00    +0.000 C 
ATOM      2  F   UNL     1      47.320   3.277  13.717  0.00  0.00    +0.000 F 
ATOM      3  F   UNL     1      46.298   4.580  15.123  0.00  0.00    +0.000 F 
ENDROOT
BRANCH   1   4
ATOM      4  C   UNL     1      45.347   4.379  12.959  0.00  0.00    +0.000 A 
ATOM      5  C   UNL     1      44.370   5.374  13.123  0.00  0.00    +0.000 A 
ATOM      6  C   UNL     1      43.217   5.382  12.334  0.00  0.00    +0.000 A 
ATOM      7  C   UNL     1      43.013   4.396  11.365  0.00  0.00    +0.000 A 
ATOM      8  C   UNL     1      43.962   3.393  11.204  0.00  0.00    +0.000 A 
ATOM      9  C   UNL     1      45.116   3.390  11.993  0.00  0.00    +0.000 A 
BRANCH   8  10
ATOM     10  O   UNL     1      43.924   2.388  10.274  0.00  0.00    +0.000 OA
BRANCH  10  11
ATOM     11  C   UNL     1      44.462   2.604   8.954  0.00  0.00    +0.000 C 
ATOM     12  C   UNL     1      45.821   1.957   8.600  0.00  0.00    +0.000 C 
ATOM     13  N   UNL     1      46.325   3.258   8.106  0.00  0.00    +0.000 NA
ATOM     14  C   UNL     1      46.164   3.365   6.656  0.00  0.00    +0.000 C 
ATOM     15  C   UNL     1      45.219   3.948   8.798  0.00  0.00    +0.000 C 
ENDBRANCH  10  11
ENDBRANCH   8  10
ENDBRANCH   1   4
BRANCH   1  16
ATOM     16  C   UNL     1      47.587   5.600  13.420  0.00  0.00    +0.000 C 
BRANCH  16  22
ATOM     17  C   UNL     1      52.694   9.409  14.088  0.00  0.00    +0.000 C 
ATOM     18  C   UNL     1      51.477   8.560  14.187  0.00  0.00    +0.000 A 
ATOM     19  C   UNL     1      50.692   8.238  13.102  0.00  0.00    +0.000 A 
ATOM     20  N   UNL     1      49.565   7.505  13.187  0.00  0.00    +0.000 NA
ATOM     21  C   UNL     1      49.199   7.084  14.406  0.00  0.00    +0.000 A 
ATOM     22  N   UNL     1      48.014   6.392  14.575  0.00  0.00    +0.000 N 
ATOM     23  N   UNL     1      49.909   7.311  15.518  0.00  0.00    +0.000 NA
ATOM     24  C   UNL     1      51.030   8.048  15.383  0.00  0.00    +0.000 A 
ATOM     25  H   UNL     1      48.051   5.909  15.466  0.00  0.00    +0.000 HD
ENDBRANCH  16  22
ENDBRANCH   1  16
TORSDOF 5
ENDMDL
MODEL 8
REMARK VINA RESULT:    -6.305      2.529      7.894
REMARK INTER + INTRA:          -8.862
REMARK INTER:                  -8.323
REMARK INTRA:                  -0.539
REMARK UNBOUND:                -0.714
REMARK  Name = 
REMARK  7 active torsions:
REMARK  status: ('A' for Active; 'I' for Inactive)
REMARK    1  A    between atoms: C_1  and  C_2
REMARK    2  A    between atoms: N_6  and  C_7
REMARK    3  A    between atoms: C_7  and  C_8
REMARK    4  A    between atoms: C_8  and  C_11
REMARK    5  A    between atoms: C_15  and  O_16
REMARK    6  A    between atoms: O_16  and  C_17
REMARK    7  A    between atoms: N_19  and  C_20
REMARK                            x       y       z     vdW  Elec       q    Type
REMARK                         _______ _______ _______ _____ _____    ______ ____
ROOT
ATOM      1  C   UNL     1      47.743   6.335  13.722  0.00  0.00    +0.000 C 
ATOM      2  F   UNL     1      48.056   7.294  14.654  0.00  0.00    +0.000 F 
ATOM      3  F   UNL     1      48.851   6.254  12.920  0.00  0.00    +0.000 F 
ENDROOT
BRANCH   1   4
ATOM      4  C   UNL     1      46.531   6.752  12.904  0.00  0.00    +0.000 A 
ATOM      5  C   UNL     1      46.212   8.116  12.817  0.00  0.00    +0.000 A 
ATOM      6  C   UNL     1      45.144   8.554  12.030  0.00  0.00    +0.000 A 
ATOM      7  C   UNL     1      44.370   7.637  11.312  0.00  0.00    +0.000 A 
ATOM      8  C   UNL     1      44.661   6.281  11.404  0.00  0.00    +0.000 A 
ATOM      9  C   UNL     1      45.732   5.848  12.190  0.00  0.00    +0.000 A 
BRANCH   8  10
ATOM     10  O   UNL     1      44.024   5.271  10.732  0.00  0.00    +0.000 OA
BRANCH  10  11
ATOM     11  C   UNL     1      44.791   4.217  10.115  0.00  0.00    +0.000 C 
ATOM     12  C   UNL     1      44.594   3.954   8.604  0.00  0.00    +0.000 C 
ATOM     13  N   UNL     1      44.397   2.511   8.870  0.00  0.00    +0.000 NA
ATOM     14  C   UNL     1      45.645   1.770   8.688  0.00  0.00    +0.000 C 
ATOM     15  C   UNL     1      44.179   2.805  10.300  0.00  0.00    +0.000 C 
ENDBRANCH  10  11
ENDBRANCH   8  10
ENDBRANCH   1   4
BRANCH   1  16
ATOM     16  C   UNL     1      47.596   4.990  14.478  0.00  0.00    +0.000 C 
BRANCH  16  22
ATOM     17  C   UNL     1      51.150   4.656  19.798  0.00  0.00    +0.000 C 
ATOM     18  C   UNL     1      50.123   4.741  18.725  0.00  0.00    +0.000 A 
ATOM     19  C   UNL     1      50.409   5.145  17.440  0.00  0.00    +0.000 A 
ATOM     20  N   UNL     1      49.480   5.266  16.471  0.00  0.00    +0.000 NA
ATOM     21  C   UNL     1      48.212   4.983  16.801  0.00  0.00    +0.000 A 
ATOM     22  N   UNL     1      47.198   5.159  15.877  0.00  0.00    +0.000 N 
ATOM     23  N   UNL     1      47.834   4.548  18.009  0.00  0.00    +0.000 NA
ATOM     24  C   UNL     1      48.799   4.442  18.946  0.00  0.00    +0.000 A 
ATOM     25  H   UNL     1      46.390   4.627  16.184  0.00  0.00    +0.000 HD
ENDBRANCH  16  22
ENDBRANCH   1  16
TORSDOF 5
ENDMDL
MODEL 9
REMARK VINA RESULT:    -6.055      3.427      6.986
REMARK INTER + INTRA:          -8.539
REMARK INTER:                  -7.665
REMARK INTRA:                  -0.873
REMARK UNBOUND:                -0.714
REMARK  Name = 
REMARK  7 active torsions:
REMARK  status: ('A' for Active; 'I' for Inactive)
REMARK    1  A    between atoms: C_1  and  C_2
REMARK    2  A    between atoms: N_6  and  C_7
REMARK    3  A    between atoms: C_7  and  C_8
REMARK    4  A    between atoms: C_8  and  C_11
REMARK    5  A    between atoms: C_15  and  O_16
REMARK    6  A    between atoms: O_16  and  C_17
REMARK    7  A    between atoms: N_19  and  C_20
REMARK                            x       y       z     vdW  Elec       q    Type
REMARK                         _______ _______ _______ _____ _____    ______ ____
ROOT
ATOM      1  C   UNL     1      47.582   8.843  12.675  0.00  0.00    +0.000 C 
ATOM      2  F   UNL     1      47.641   9.225  13.993  0.00  0.00    +0.000 F 
ATOM      3  F   UNL     1      48.499   9.638  12.041  0.00  0.00    +0.000 F 
ENDROOT
BRANCH   1   4
ATOM      4  C   UNL     1      46.193   9.084  12.105  0.00  0.00    +0.000 A 
ATOM      5  C   UNL     1      45.806  10.398  11.801  0.00  0.00    +0.000 A 
ATOM      6  C   UNL     1      44.563  10.663  11.221  0.00  0.00    +0.000 A 
ATOM      7  C   UNL     1      43.678   9.620  10.933  0.00  0.00    +0.000 A 
ATOM      8  C   UNL     1      44.038   8.315  11.247  0.00  0.00    +0.000 A 
ATOM      9  C   UNL     1      45.284   8.054  11.824  0.00  0.00    +0.000 A 
BRANCH   8  10
ATOM     10  O   UNL     1      43.300   7.190  10.989  0.00  0.00    +0.000 OA
BRANCH  10  11
ATOM     11  C   UNL     1      43.765   5.902  11.440  0.00  0.00    +0.000 C 
ATOM     12  C   UNL     1      43.794   4.735  10.426  0.00  0.00    +0.000 C 
ATOM     13  N   UNL     1      43.065   3.872  11.382  0.00  0.00    +0.000 NA
ATOM     14  C   UNL     1      43.993   3.037  12.146  0.00  0.00    +0.000 C 
ATOM     15  C   UNL     1      42.683   5.063  12.166  0.00  0.00    +0.000 C 
ENDBRANCH  10  11
ENDBRANCH   8  10
ENDBRANCH   1   4
BRANCH   1  16
ATOM     16  C   UNL     1      48.080   7.377  12.598  0.00  0.00    +0.000 C 
BRANCH  16  22
ATOM     17  C   UNL     1      47.209   3.250  17.420  0.00  0.00    +0.000 C 
ATOM     18  C   UNL     1      47.625   4.279  16.429  0.00  0.00    +0.000 A 
ATOM     19  C   UNL     1      47.168   4.300  15.130  0.00  0.00    +0.000 A 
ATOM     20  N   UNL     1      47.570   5.202  14.213  0.00  0.00    +0.000 NA
ATOM     21  C   UNL     1      48.472   6.112  14.603  0.00  0.00    +0.000 A 
ATOM     22  N   UNL     1      48.984   7.019  13.693  0.00  0.00    +0.000 N 
ATOM     23  N   UNL     1      48.952   6.201  15.850  0.00  0.00    +0.000 NA
ATOM     24  C   UNL     1      48.520   5.277  16.734  0.00  0.00    +0.000 A 
ATOM     25  H   UNL     1      49.397   7.789  14.208  0.00  0.00    +0.000 HD
ENDBRANCH  16  22
ENDBRANCH   1  16
TORSDOF 5
ENDMDL
