MODEL 1
REMARK VINA RESULT:    -7.882      0.000      0.000
REMARK INTER + INTRA:         -10.164
REMARK INTER:                  -9.725
REMARK INTRA:                  -0.439
REMARK UNBOUND:                -0.439
REMARK  Name = 
REMARK  4 active torsions:
REMARK  status: ('A' for Active; 'I' for Inactive)
REMARK    1  A    between atoms: C_2  and  C_4
REMARK    2  A    between atoms: C_7  and  N_8
REMARK    3  A    between atoms: N_8  and  C_9
REMARK    4  A    between atoms: C_9  and  C_10
REMARK                            x       y       z     vdW  Elec       q    Type
REMARK                         _______ _______ _______ _____ _____    ______ ____
ROOT
ATOM      1  C   UNL     1      46.422   2.353   7.785  0.00  0.00    +0.000 A 
ATOM      2  C   UNL     1      46.408   3.740   7.622  0.00  0.00    +0.000 A 
ATOM      3  C   UNL     1      45.504   4.516   8.357  0.00  0.00    +0.000 A 
ATOM      4  C   UNL     1      44.582   3.925   9.231  0.00  0.00    +0.000 A 
ATOM      5  C   UNL     1      44.626   2.538   9.404  0.00  0.00    +0.000 A 
ATOM      6  C   UNL     1      45.527   1.755   8.675  0.00  0.00    +0.000 A 
ENDROOT
BRANCH   1   8
ATOM      7  N   UNL     1      48.493   2.065   6.541  0.00  0.00    +0.000 N 
ATOM      8  C   UNL     1      47.360   1.481   7.033  0.00  0.00    +0.000 C 
ATOM      9  O   UNL     1      47.155   0.282   6.895  0.00  0.00    +0.000 OA
ATOM     10  H   UNL     1      49.179   1.437   6.137  0.00  0.00    +0.000 HD
ATOM     11  H   UNL     1      48.813   2.968   6.854  0.00  0.00    +0.000 HD
ENDBRANCH   1   8
BRANCH   4  12
ATOM     12  N   UNL     1      43.728   4.775   9.941  0.00  0.00    +0.000 N 
ATOM     13  H   UNL     1      43.996   5.748   9.788  0.00  0.00    +0.000 HD
BRANCH  12  14
ATOM     14  C   UNL     1      43.551   4.531  11.377  0.00  0.00    +0.000 C 
BRANCH  14  15
ATOM     15  C   UNL     1      44.811   4.903  12.133  0.00  0.00    +0.000 A 
ATOM     16  C   UNL     1      45.476   6.094  11.828  0.00  0.00    +0.000 A 
ATOM     17  C   UNL     1      46.609   6.440  12.556  0.00  0.00    +0.000 A 
ATOM     18  C   UNL     1      47.048   5.598  13.569  0.00  0.00    +0.000 A 
ATOM     19  C   UNL     1      46.335   4.434  13.810  0.00  0.00    +0.000 A 
ATOM     20  N   UNL     1      45.231   4.068  13.119  0.00  0.00    +0.000 NA
ENDBRANCH  14  15
ENDBRANCH  12  14
ENDBRANCH   4  12
TORSDOF 4
ENDMDL
MODEL 2
REMARK VINA RESULT:    -7.263      2.746      6.048
REMARK INTER + INTRA:          -9.401
REMARK INTER:                  -9.000
REMARK INTRA:                  -0.401
REMARK UNBOUND:                -0.439
REMARK  Name = 
REMARK  4 active torsions:
REMARK  status: ('A' for Active; 'I' for Inactive)
REMARK    1  A    between atoms: C_2  and  C_4
REMARK    2  A    between atoms: C_7  and  N_8
REMARK    3  A    between atoms: N_8  and  C_9
REMARK    4  A    between atoms: C_9  and  C_10
REMARK                            x       y       z     vdW  Elec       q    Type
REMARK                         _______ _______ _______ _____ _____    ______ ____
ROOT
ATOM      1  C   UNL     1      46.586   5.516  12.901  0.00  0.00    +0.000 A 
ATOM      2  C   UNL     1      45.997   4.256  13.032  0.00  0.00    +0.000 A 
ATOM      3  C   UNL     1      45.223   3.741  11.987  0.00  0.00    +0.000 A 
ATOM      4  C   UNL     1      44.991   4.480  10.820  0.00  0.00    +0.000 A 
ATOM      5  C   UNL     1      45.609   5.729  10.692  0.00  0.00    +0.000 A 
ATOM      6  C   UNL     1      46.387   6.251  11.730  0.00  0.00    +0.000 A 
ENDROOT
BRANCH   1   8
ATOM      7  N   UNL     1      47.461   7.476  14.047  0.00  0.00    +0.000 N 
ATOM      8  C   UNL     1      47.420   6.112  13.976  0.00  0.00    +0.000 C 
ATOM      9  O   UNL     1      48.010   5.418  14.794  0.00  0.00    +0.000 OA
ATOM     10  H   UNL     1      47.933   7.866  14.856  0.00  0.00    +0.000 HD
ATOM     11  H   UNL     1      46.796   8.061  13.568  0.00  0.00    +0.000 HD
ENDBRANCH   1   8
BRANCH   4  12
ATOM     12  N   UNL     1      44.222   3.883   9.817  0.00  0.00    +0.000 N 
ATOM     13  H   UNL     1      43.229   4.021  10.009  0.00  0.00    +0.000 HD
BRANCH  12  14
ATOM     14  C   UNL     1      44.474   2.472   9.503  0.00  0.00    +0.000 C 
BRANCH  14  15
ATOM     15  C   UNL     1      45.507   2.355   8.399  0.00  0.00    +0.000 A 
ATOM     16  C   UNL     1      45.753   3.447   7.564  0.00  0.00    +0.000 A 
ATOM     17  C   UNL     1      46.730   3.337   6.579  0.00  0.00    +0.000 A 
ATOM     18  C   UNL     1      47.436   2.147   6.455  0.00  0.00    +0.000 A 
ATOM     19  C   UNL     1      47.131   1.110   7.321  0.00  0.00    +0.000 A 
ATOM     20  N   UNL     1      46.187   1.185   8.286  0.00  0.00    +0.000 NA
ENDBRANCH  14  15
ENDBRANCH  12  14
ENDBRANCH   4  12
TORSDOF 4
ENDMDL
MODEL 3
REMARK VINA RESULT:    -6.821      3.154      6.181
REMARK INTER + INTRA:          -8.856
REMARK INTER:                  -8.430
REMARK INTRA:                  -0.425
REMARK UNBOUND:                -0.439
REMARK  Name = 
REMARK  4 active torsions:
REMARK  status: ('A' for Active; 'I' for Inactive)
REMARK    1  A    between atoms: C_2  and  C_4
REMARK    2  A    between atoms: C_7  and  N_8
REMARK    3  A    between atoms: N_8  and  C_9
REMARK    4  A    between atoms: C_9  and  C_10
REMARK                            x       y       z     vdW  Elec       q    Type
REMARK                         _______ _______ _______ _____ _____    ______ ____
ROOT
ATOM      1  C   UNL     1      44.665   7.200  11.435  0.00  0.00    +0.000 A 
ATOM      2  C   UNL     1      45.900   6.551  11.382  0.00  0.00    +0.000 A 
ATOM      3  C   UNL     1      45.948   5.168  11.177  0.00  0.00    +0.000 A 
ATOM      4  C   UNL     1      44.776   4.408  11.062  0.00  0.00    +0.000 A 
ATOM      5  C   UNL     1      43.548   5.076  11.091  0.00  0.00    +0.000 A 
ATOM      6  C   UNL     1      43.490   6.459  11.293  0.00  0.00    +0.000 A 
ENDROOT
BRANCH   1   8
ATOM      7  N   UNL     1      44.999   9.156  12.843  0.00  0.00    +0.000 N 
ATOM      8  C   UNL     1      44.554   8.666  11.648  0.00  0.00    +0.000 C 
ATOM      9  O   UNL     1      44.125   9.413  10.778  0.00  0.00    +0.000 OA
ATOM     10  H   UNL     1      45.030  10.167  12.926  0.00  0.00    +0.000 HD
ATOM     11  H   UNL     1      45.586   8.619  13.461  0.00  0.00    +0.000 HD
ENDBRANCH   1   8
BRANCH   4  12
ATOM     12  N   UNL     1      44.915   3.035  10.839  0.00  0.00    +0.000 N 
ATOM     13  H   UNL     1      45.895   2.763  10.928  0.00  0.00    +0.000 HD
BRANCH  12  14
ATOM     14  C   UNL     1      44.357   2.478   9.602  0.00  0.00    +0.000 C 
BRANCH  14  15
ATOM     15  C   UNL     1      45.436   2.365   8.543  0.00  0.00    +0.000 A 
ATOM     16  C   UNL     1      45.774   3.485   7.778  0.00  0.00    +0.000 A 
ATOM     17  C   UNL     1      46.791   3.376   6.836  0.00  0.00    +0.000 A 
ATOM     18  C   UNL     1      47.446   2.161   6.682  0.00  0.00    +0.000 A 
ATOM     19  C   UNL     1      47.051   1.097   7.478  0.00  0.00    +0.000 A 
ATOM     20  N   UNL     1      46.065   1.170   8.400  0.00  0.00    +0.000 NA
ENDBRANCH  14  15
ENDBRANCH  12  14
ENDBRANCH   4  12
TORSDOF 4
ENDMDL
MODEL 4
REMARK VINA RESULT:    -6.354      2.959      6.142
REMARK INTER + INTRA:          -8.279
REMARK INTER:                  -7.939
REMARK INTRA:                  -0.341
REMARK UNBOUND:                -0.439
REMARK  Name = 
REMARK  4 active torsions:
REMARK  status: ('A' for Active; 'I' for Inactive)
REMARK    1  A    between atoms: C_2  and  C_4
REMARK    2  A    between atoms: C_7  and  N_8
REMARK    3  A    between atoms: N_8  and  C_9
REMARK    4  A    between atoms: C_9  and  C_10
REMARK                            x       y       z     vdW  Elec       q    Type
REMARK                         _______ _______ _______ _____ _____    ______ ____
ROOT
ATOM      1  C   UNL     1      47.243   6.415  13.404  0.00  0.00    +0.000 A 
ATOM      2  C   UNL     1      46.895   7.386  12.462  0.00  0.00    +0.000 A 
ATOM      3  C   UNL     1      45.946   7.088  11.478  0.00  0.00    +0.000 A 
ATOM      4  C   UNL     1      45.361   5.818  11.392  0.00  0.00    +0.000 A 
ATOM      5  C   UNL     1      45.700   4.865  12.358  0.00  0.00    +0.000 A 
ATOM      6  C   UNL     1      46.646   5.154  13.347  0.00  0.00    +0.000 A 
ENDROOT
BRANCH   1   8
ATOM      7  N   UNL     1      48.603   7.977  14.682  0.00  0.00    +0.000 N 
ATOM      8  C   UNL     1      48.243   6.676  14.471  0.00  0.00    +0.000 C 
ATOM      9  O   UNL     1      48.694   5.775  15.166  0.00  0.00    +0.000 OA
ATOM     10  H   UNL     1      49.190   8.152  15.489  0.00  0.00    +0.000 HD
ATOM     11  H   UNL     1      48.069   8.750  14.317  0.00  0.00    +0.000 HD
ENDBRANCH   1   8
BRANCH   4  12
ATOM     12  N   UNL     1      44.408   5.611  10.391  0.00  0.00    +0.000 N 
ATOM     13  H   UNL     1      43.580   6.180  10.573  0.00  0.00    +0.000 HD
BRANCH  12  14
ATOM     14  C   UNL     1      44.005   4.232  10.096  0.00  0.00    +0.000 C 
BRANCH  14  15
ATOM     15  C   UNL     1      44.974   3.599   9.116  0.00  0.00    +0.000 A 
ATOM     16  C   UNL     1      45.217   2.224   9.173  0.00  0.00    +0.000 A 
ATOM     17  C   UNL     1      46.079   1.653   8.244  0.00  0.00    +0.000 A 
ATOM     18  C   UNL     1      46.672   2.460   7.282  0.00  0.00    +0.000 A 
ATOM     19  C   UNL     1      46.381   3.815   7.293  0.00  0.00    +0.000 A 
ATOM     20  N   UNL     1      45.549   4.401   8.183  0.00  0.00    +0.000 NA
ENDBRANCH  14  15
ENDBRANCH  12  14
ENDBRANCH   4  12
TORSDOF 4
ENDMDL
MODEL 5
REMARK VINA RESULT:    -5.620      3.269      6.696
REMARK INTER + INTRA:          -7.374
REMARK INTER:                  -7.045
REMARK INTRA:                  -0.328
REMARK UNBOUND:                -0.439
REMARK  Name = 
REMARK  4 active torsions:
REMARK  status: ('A' for Active; 'I' for Inactive)
REMARK    1  A    between atoms: C_2  and  C_4
REMARK    2  A    between atoms: C_7  and  N_8
REMARK    3  A    between atoms: N_8  and  C_9
REMARK    4  A    between atoms: C_9  and  C_10
REMARK                            x       y       z     vdW  Elec       q    Type
REMARK                         _______ _______ _______ _____ _____    ______ ____
ROOT
ATOM      1  C   UNL     1      47.701   5.315  15.237  0.00  0.00    +0.000 A 
ATOM      2  C   UNL     1      46.748   4.434  14.721  0.00  0.00    +0.000 A 
ATOM      3  C   UNL     1      46.176   4.687  13.470  0.00  0.00    +0.000 A 
ATOM      4  C   UNL     1      46.511   5.832  12.734  0.00  0.00    +0.000 A 
ATOM      5  C   UNL     1      47.487   6.690  13.252  0.00  0.00    +0.000 A 
ATOM      6  C   UNL     1      48.066   6.444  14.501  0.00  0.00    +0.000 A 
ENDROOT
BRANCH   1   8
ATOM      7  N   UNL     1      47.637   5.478  17.664  0.00  0.00    +0.000 N 
ATOM      8  C   UNL     1      48.343   5.095  16.558  0.00  0.00    +0.000 C 
ATOM      9  O   UNL     1      49.436   4.554  16.662  0.00  0.00    +0.000 OA
ATOM     10  H   UNL     1      48.032   5.212  18.559  0.00  0.00    +0.000 HD
ATOM     11  H   UNL     1      46.650   5.678  17.630  0.00  0.00    +0.000 HD
ENDBRANCH   1   8
BRANCH   4  12
ATOM     12  N   UNL     1      45.908   5.998  11.484  0.00  0.00    +0.000 N 
ATOM     13  H   UNL     1      45.722   6.987  11.315  0.00  0.00    +0.000 HD
BRANCH  12  14
ATOM     14  C   UNL     1      44.706   5.211  11.189  0.00  0.00    +0.000 C 
BRANCH  14  15
ATOM     15  C   UNL     1      44.977   4.240  10.056  0.00  0.00    +0.000 A 
ATOM     16  C   UNL     1      45.652   4.680   8.915  0.00  0.00    +0.000 A 
ATOM     17  C   UNL     1      45.926   3.770   7.900  0.00  0.00    +0.000 A 
ATOM     18  C   UNL     1      45.528   2.448   8.049  0.00  0.00    +0.000 A 
ATOM     19  C   UNL     1      44.862   2.090   9.211  0.00  0.00    +0.000 A 
ATOM     20  N   UNL     1      44.578   2.952  10.214  0.00  0.00    +0.000 NA
ENDBRANCH  14  15
ENDBRANCH  12  14
ENDBRANCH   4  12
TORSDOF 4
ENDMDL
MODEL 6
REMARK VINA RESULT:    -5.424      2.761      4.221
REMARK INTER + INTRA:          -7.131
REMARK INTER:                  -6.777
REMARK INTRA:                  -0.354
REMARK UNBOUND:                -0.439
REMARK  Name = 
REMARK  4 active torsions:
REMARK  status: ('A' for Active; 'I' for Inactive)
REMARK    1  A    between atoms: C_2  and  C_4
REMARK    2  A    between atoms: C_7  and  N_8
REMARK    3  A    between atoms: N_8  and  C_9
REMARK    4  A    between atoms: C_9  and  C_10
REMARK                            x       y       z     vdW  Elec       q    Type
REMARK                         _______ _______ _______ _____ _____    ______ ____
ROOT
ATOM      1  C   UNL     1      45.077   3.923  10.149  0.00  0.00    +0.000 A 
ATOM      2  C   UNL     1      45.594   5.221  10.127  0.00  0.00    +0.000 A 
ATOM      3  C   UNL     1      45.929   5.854  11.329  0.00  0.00    +0.000 A 
ATOM      4  C   UNL     1      45.723   5.226  12.564  0.00  0.00    +0.000 A 
ATOM      5  C   UNL     1      45.230   3.917  12.569  0.00  0.00    +0.000 A 
ATOM      6  C   UNL     1      44.893   3.275  11.372  0.00  0.00    +0.000 A 
ENDROOT
BRANCH   1   8
ATOM      7  N   UNL     1      44.567   1.846   8.990  0.00  0.00    +0.000 N 
ATOM      8  C   UNL     1      44.706   3.202   8.905  0.00  0.00    +0.000 C 
ATOM      9  O   UNL     1      44.488   3.796   7.856  0.00  0.00    +0.000 OA
ATOM     10  H   UNL     1      44.196   1.383   8.167  0.00  0.00    +0.000 HD
ATOM     11  H   UNL     1      44.482   1.367   9.872  0.00  0.00    +0.000 HD
ENDBRANCH   1   8
BRANCH   4  12
ATOM     12  N   UNL     1      46.104   5.921  13.715  0.00  0.00    +0.000 N 
ATOM     13  H   UNL     1      45.655   6.838  13.735  0.00  0.00    +0.000 HD
BRANCH  12  14
ATOM     14  C   UNL     1      47.538   6.066  13.990  0.00  0.00    +0.000 C 
BRANCH  14  15
ATOM     15  C   UNL     1      47.898   5.369  15.288  0.00  0.00    +0.000 A 
ATOM     16  C   UNL     1      47.153   4.265  15.711  0.00  0.00    +0.000 A 
ATOM     17  C   UNL     1      47.518   3.614  16.884  0.00  0.00    +0.000 A 
ATOM     18  C   UNL     1      48.615   4.074  17.602  0.00  0.00    +0.000 A 
ATOM     19  C   UNL     1      49.300   5.176  17.117  0.00  0.00    +0.000 A 
ATOM     20  N   UNL     1      48.969   5.832  15.982  0.00  0.00    +0.000 NA
ENDBRANCH  14  15
ENDBRANCH  12  14
ENDBRANCH   4  12
TORSDOF 4
ENDMDL
MODEL 7
REMARK VINA RESULT:    -5.340      3.114      5.146
REMARK INTER + INTRA:          -7.028
REMARK INTER:                  -6.715
REMARK INTRA:                  -0.313
REMARK UNBOUND:                -0.439
REMARK  Name = 
REMARK  4 active torsions:
REMARK  status: ('A' for Active; 'I' for Inactive)
REMARK    1  A    between atoms: C_2  and  C_4
REMARK    2  A    between atoms: C_7  and  N_8
REMARK    3  A    between atoms: N_8  and  C_9
REMARK    4  A    between atoms: C_9  and  C_10
REMARK                            x       y       z     vdW  Elec       q    Type
REMARK                         _______ _______ _______ _____ _____    ______ ____
ROOT
ATOM      1  C   UNL     1      44.940   4.695  11.028  0.00  0.00    +0.000 A 
ATOM      2  C   UNL     1      44.935   4.357  12.383  0.00  0.00    +0.000 A 
ATOM      3  C   UNL     1      45.616   5.164  13.301  0.00  0.00    +0.000 A 
ATOM      4  C   UNL     1      46.341   6.288  12.884  0.00  0.00    +0.000 A 
ATOM      5  C   UNL     1      46.316   6.628  11.527  0.00  0.00    +0.000 A 
ATOM      6  C   UNL     1      45.635   5.829  10.603  0.00  0.00    +0.000 A 
ENDROOT
BRANCH   1   8
ATOM      7  N   UNL     1      44.150   4.391   8.747  0.00  0.00    +0.000 N 
ATOM      8  C   UNL     1      44.233   3.877  10.010  0.00  0.00    +0.000 C 
ATOM      9  O   UNL     1      43.780   2.770  10.273  0.00  0.00    +0.000 OA
ATOM     10  H   UNL     1      43.773   3.772   8.037  0.00  0.00    +0.000 HD
ATOM     11  H   UNL     1      44.726   5.159   8.439  0.00  0.00    +0.000 HD
ENDBRANCH   1   8
BRANCH   4  12
ATOM     12  N   UNL     1      46.977   7.050  13.869  0.00  0.00    +0.000 N 
ATOM     13  H   UNL     1      46.696   8.028  13.790  0.00  0.00    +0.000 HD
BRANCH  12  14
ATOM     14  C   UNL     1      48.438   6.962  13.972  0.00  0.00    +0.000 C 
BRANCH  14  15
ATOM     15  C   UNL     1      48.844   6.590  15.385  0.00  0.00    +0.000 A 
ATOM     16  C   UNL     1      49.590   7.489  16.150  0.00  0.00    +0.000 A 
ATOM     17  C   UNL     1      49.923   7.150  17.457  0.00  0.00    +0.000 A 
ATOM     18  C   UNL     1      49.503   5.929  17.968  0.00  0.00    +0.000 A 
ATOM     19  C   UNL     1      48.767   5.091  17.145  0.00  0.00    +0.000 A 
ATOM     20  N   UNL     1      48.429   5.392  15.871  0.00  0.00    +0.000 NA
ENDBRANCH  14  15
ENDBRANCH  12  14
ENDBRANCH   4  12
TORSDOF 4
ENDMDL
MODEL 8
REMARK VINA RESULT:    -5.265      5.016      8.385
REMARK INTER + INTRA:          -6.935
REMARK INTER:                  -6.654
REMARK INTRA:                  -0.281
REMARK UNBOUND:                -0.439
REMARK  Name = 
REMARK  4 active torsions:
REMARK  status: ('A' for Active; 'I' for Inactive)
REMARK    1  A    between atoms: C_2  and  C_4
REMARK    2  A    between atoms: C_7  and  N_8
REMARK    3  A    between atoms: N_8  and  C_9
REMARK    4  A    between atoms: C_9  and  C_10
REMARK                            x       y       z     vdW  Elec       q    Type
REMARK                         _______ _______ _______ _____ _____    ______ ____
ROOT
ATOM      1  C   UNL     1      48.827   4.659  18.360  0.00  0.00    +0.000 A 
ATOM      2  C   UNL     1      48.709   5.597  17.332  0.00  0.00    +0.000 A 
ATOM      3  C   UNL     1      48.009   5.264  16.167  0.00  0.00    +0.000 A 
ATOM      4  C   UNL     1      47.453   3.990  15.991  0.00  0.00    +0.000 A 
ATOM      5  C   UNL     1      47.557   3.071  17.040  0.00  0.00    +0.000 A 
ATOM      6  C   UNL     1      48.252   3.395  18.209  0.00  0.00    +0.000 A 
ENDROOT
BRANCH   1   8
ATOM      7  N   UNL     1      49.166   4.280  20.739  0.00  0.00    +0.000 N 
ATOM      8  C   UNL     1      49.556   4.958  19.619  0.00  0.00    +0.000 C 
ATOM      9  O   UNL     1      50.495   5.742  19.649  0.00  0.00    +0.000 OA
ATOM     10  H   UNL     1      49.748   4.403  21.560  0.00  0.00    +0.000 HD
ATOM     11  H   UNL     1      48.588   3.456  20.697  0.00  0.00    +0.000 HD
ENDBRANCH   1   8
BRANCH   4  12
ATOM     12  N   UNL     1      46.753   3.748  14.805  0.00  0.00    +0.000 N 
ATOM     13  H   UNL     1      47.087   2.885  14.372  0.00  0.00    +0.000 HD
BRANCH  12  14
ATOM     14  C   UNL     1      46.705   4.817  13.803  0.00  0.00    +0.000 C 
BRANCH  14  15
ATOM     15  C   UNL     1      45.541   4.598  12.856  0.00  0.00    +0.000 A 
ATOM     16  C   UNL     1      45.444   5.361  11.689  0.00  0.00    +0.000 A 
ATOM     17  C   UNL     1      44.392   5.123  10.812  0.00  0.00    +0.000 A 
ATOM     18  C   UNL     1      43.467   4.132  11.115  0.00  0.00    +0.000 A 
ATOM     19  C   UNL     1      43.631   3.420  12.293  0.00  0.00    +0.000 A 
ATOM     20  N   UNL     1      44.642   3.629  13.167  0.00  0.00    +0.000 NA
ENDBRANCH  14  15
ENDBRANCH  12  14
ENDBRANCH   4  12
TORSDOF 4
ENDMDL
MODEL 9
REMARK VINA RESULT:    -5.239      3.419      5.169
REMARK INTER + INTRA:          -6.903
REMARK INTER:                  -6.604
REMARK INTRA:                  -0.299
REMARK UNBOUND:                -0.439
REMARK  Name = 
REMARK  4 active torsions:
REMARK  status: ('A' for Active; 'I' for Inactive)
REMARK    1  A    between atoms: C_2  and  C_4
REMARK    2  A    between atoms: C_7  and  N_8
REMARK    3  A    between atoms: N_8  and  C_9
REMARK    4  A    between atoms: C_9  and  C_10
REMARK                            x       y       z     vdW  Elec       q    Type
REMARK                         _______ _______ _______ _____ _____    ______ ____
ROOT
ATOM      1  C   UNL     1      44.455   4.105  11.616  0.00  0.00    +0.000 A 
ATOM      2  C   UNL     1      45.310   4.114  12.721  0.00  0.00    +0.000 A 
ATOM      3  C   UNL     1      45.794   5.331  13.212  0.00  0.00    +0.000 A 
ATOM      4  C   UNL     1      45.469   6.546  12.595  0.00  0.00    +0.000 A 
ATOM      5  C   UNL     1      44.591   6.523  11.506  0.00  0.00    +0.000 A 
ATOM      6  C   UNL     1      44.100   5.311  11.009  0.00  0.00    +0.000 A 
ENDROOT
BRANCH   1   8
ATOM      7  N   UNL     1      44.542   2.327   9.957  0.00  0.00    +0.000 N 
ATOM      8  C   UNL     1      43.910   2.843  11.053  0.00  0.00    +0.000 C 
ATOM      9  O   UNL     1      42.964   2.262  11.569  0.00  0.00    +0.000 OA
ATOM     10  H   UNL     1      44.237   1.407   9.658  0.00  0.00    +0.000 HD
ATOM     11  H   UNL     1      45.460   2.629   9.673  0.00  0.00    +0.000 HD
ENDBRANCH   1   8
BRANCH   4  12
ATOM     12  N   UNL     1      45.979   7.717  13.162  0.00  0.00    +0.000 N 
ATOM     13  H   UNL     1      45.335   8.072  13.870  0.00  0.00    +0.000 HD
BRANCH  12  14
ATOM     14  C   UNL     1      46.372   8.806  12.261  0.00  0.00    +0.000 C 
BRANCH  14  15
ATOM     15  C   UNL     1      47.875   8.807  12.062  0.00  0.00    +0.000 A 
ATOM     16  C   UNL     1      48.526   7.628  11.693  0.00  0.00    +0.000 A 
ATOM     17  C   UNL     1      49.900   7.653  11.478  0.00  0.00    +0.000 A 
ATOM     18  C   UNL     1      50.588   8.850  11.632  0.00  0.00    +0.000 A 
ATOM     19  C   UNL     1      49.871   9.976  12.002  0.00  0.00    +0.000 A 
ATOM     20  N   UNL     1      48.536   9.984  12.220  0.00  0.00    +0.000 NA
ENDBRANCH  14  15
ENDBRANCH  12  14
ENDBRANCH   4  12
TORSDOF 4
ENDMDL
