MODEL 1
REMARK VINA RESULT:    -7.727      0.000      0.000
REMARK INTER + INTRA:         -11.479
REMARK INTER:                 -10.663
REMARK INTRA:                  -0.816
REMARK UNBOUND:                -0.816
REMARK  Name = 
REMARK  9 active torsions:
REMARK  status: ('A' for Active; 'I' for Inactive)
REMARK    1  A    between atoms: C_1  and  C_2
REMARK    2  A    between atoms: C_2  and  N_3
REMARK    3  A    between atoms: C_2  and  C_19
REMARK    4  A    between atoms: N_3  and  C_4
REMARK    5  A    between atoms: C_7  and  C_8
REMARK    6  A    between atoms: C_8  and  O_9
REMARK    7  A    between atoms: C_8  and  C_10
REMARK    8  A    between atoms: C_10  and  N_11
REMARK    9  A    between atoms: N_14  and  C_15
REMARK                            x       y       z     vdW  Elec       q    Type
REMARK                         _______ _______ _______ _____ _____    ______ ____
ROOT
ATOM      1  C   UNL     1      46.732   5.057  14.051  0.00  0.00    +0.000 A 
ATOM      2  C   UNL     1      46.475   6.145  13.211  0.00  0.00    +0.000 A 
ATOM      3  C   UNL     1      45.780   5.988  12.011  0.00  0.00    +0.000 A 
ATOM      4  C   UNL     1      45.370   4.720  11.575  0.00  0.00    +0.000 A 
ATOM      5  C   UNL     1      45.617   3.627  12.415  0.00  0.00    +0.000 A 
ATOM      6  C   UNL     1      46.307   3.794  13.630  0.00  0.00    +0.000 A 
ENDROOT
BRANCH   1   7
ATOM      7  N   UNL     1      47.517   5.296  15.179  0.00  0.00    +0.000 N 
ATOM      8  H   UNL     1      48.368   5.774  14.880  0.00  0.00    +0.000 HD
BRANCH   7  10
ATOM      9  C   UNL     1      46.778   4.106  17.210  0.00  0.00    +0.000 C 
ATOM     10  C   UNL     1      47.864   4.220  16.126  0.00  0.00    +0.000 C 
BRANCH  10  11
ATOM     11  C   UNL     1      49.205   4.465  16.806  0.00  0.00    +0.000 A 
ATOM     12  C   UNL     1      49.601   5.687  17.325  0.00  0.00    +0.000 A 
ATOM     13  S   UNL     1      51.130   5.635  18.081  0.00  0.00    +0.000 S 
ATOM     14  C   UNL     1      51.304   3.975  17.750  0.00  0.00    +0.000 A 
ATOM     15  N   UNL     1      52.402   3.282  18.156  0.00  0.00    +0.000 NA
ATOM     16  C   UNL     1      52.385   2.028  17.845  0.00  0.00    +0.000 A 
ATOM     17  N   UNL     1      51.376   1.404  17.160  0.00  0.00    +0.000 N 
ATOM     18  C   UNL     1      50.241   2.060  16.729  0.00  0.00    +0.000 A 
ATOM     19  O   UNL     1      49.344   1.476  16.134  0.00  0.00    +0.000 OA
ATOM     20  C   UNL     1      50.217   3.472  17.060  0.00  0.00    +0.000 A 
ATOM     21  H   UNL     1      51.425   0.418  16.949  0.00  0.00    +0.000 HD
ENDBRANCH  10  11
ENDBRANCH   7  10
ENDBRANCH   1   7
BRANCH   4  22
ATOM     22  C   UNL     1      44.699   4.624  10.213  0.00  0.00    +0.000 C 
BRANCH  22  23
ATOM     23  O   UNL     1      43.491   5.386  10.219  0.00  0.00    +0.000 OA
ATOM     24  H   UNL     1      43.080   5.300   9.342  0.00  0.00    +0.000 HD
ENDBRANCH  22  23
BRANCH  22  25
ATOM     25  C   UNL     1      44.422   3.180   9.704  0.00  0.00    +0.000 C 
BRANCH  25  26
ATOM     26  N   UNL     1      45.048   2.830   8.412  0.00  0.00    +0.000 NA
ATOM     27  C   UNL     1      45.629   1.487   8.417  0.00  0.00    +0.000 C 
ATOM     28  C   UNL     1      46.971   1.616   7.703  0.00  0.00    +0.000 C 
ATOM     29  N   UNL     1      47.025   2.975   7.152  0.00  0.00    +0.000 NA
ATOM     30  C   UNL     1      46.612   3.000   5.751  0.00  0.00    +0.000 C 
ATOM     31  C   UNL     1      46.103   3.741   7.994  0.00  0.00    +0.000 C 
ENDBRANCH  25  26
ENDBRANCH  22  25
ENDBRANCH   4  22
TORSDOF 7
ENDMDL
MODEL 2
REMARK VINA RESULT:    -7.395      1.032      1.738
REMARK INTER + INTRA:         -11.021
REMARK INTER:                 -10.260
REMARK INTRA:                  -0.761
REMARK UNBOUND:                -0.816
REMARK  Name = 
REMARK  9 active torsions:
REMARK  status: ('A' for Active; 'I' for Inactive)
REMARK    1  A    between atoms: C_1  and  C_2
REMARK    2  A    between atoms: C_2  and  N_3
REMARK    3  A    between atoms: C_2  and  C_19
REMARK    4  A    between atoms: N_3  and  C_4
REMARK    5  A    between atoms: C_7  and  C_8
REMARK    6  A    between atoms: C_8  and  O_9
REMARK    7  A    between atoms: C_8  and  C_10
REMARK    8  A    between atoms: C_10  and  N_11
REMARK    9  A    between atoms: N_14  and  C_15
REMARK                            x       y       z     vdW  Elec       q    Type
REMARK                         _______ _______ _______ _____ _____    ______ ____
ROOT
ATOM      1  C   UNL     1      47.538   5.838  14.619  0.00  0.00    +0.000 A 
ATOM      2  C   UNL     1      46.753   4.712  14.355  0.00  0.00    +0.000 A 
ATOM      3  C   UNL     1      45.896   4.666  13.254  0.00  0.00    +0.000 A 
ATOM      4  C   UNL     1      45.746   5.775  12.409  0.00  0.00    +0.000 A 
ATOM      5  C   UNL     1      46.536   6.903  12.665  0.00  0.00    +0.000 A 
ATOM      6  C   UNL     1      47.407   6.938  13.769  0.00  0.00    +0.000 A 
ENDROOT
BRANCH   1   7
ATOM      7  N   UNL     1      48.288   5.827  15.796  0.00  0.00    +0.000 N 
ATOM      8  H   UNL     1      49.237   6.130  15.572  0.00  0.00    +0.000 HD
BRANCH   7  10
ATOM      9  C   UNL     1      47.273   4.750  17.769  0.00  0.00    +0.000 C 
ATOM     10  C   UNL     1      48.344   4.642  16.671  0.00  0.00    +0.000 C 
BRANCH  10  11
ATOM     11  C   UNL     1      49.705   4.482  17.335  0.00  0.00    +0.000 A 
ATOM     12  C   UNL     1      50.337   5.479  18.062  0.00  0.00    +0.000 A 
ATOM     13  S   UNL     1      51.823   4.982  18.737  0.00  0.00    +0.000 S 
ATOM     14  C   UNL     1      51.663   3.416  18.090  0.00  0.00    +0.000 A 
ATOM     15  N   UNL     1      52.600   2.457  18.317  0.00  0.00    +0.000 NA
ATOM     16  C   UNL     1      52.334   1.314  17.774  0.00  0.00    +0.000 A 
ATOM     17  N   UNL     1      51.222   1.046  17.020  0.00  0.00    +0.000 N 
ATOM     18  C   UNL     1      50.241   1.982  16.764  0.00  0.00    +0.000 A 
ATOM     19  O   UNL     1      49.247   1.711  16.102  0.00  0.00    +0.000 OA
ATOM     20  C   UNL     1      50.499   3.280  17.358  0.00  0.00    +0.000 A 
ATOM     21  H   UNL     1      51.073   0.129  16.625  0.00  0.00    +0.000 HD
ENDBRANCH  10  11
ENDBRANCH   7  10
ENDBRANCH   1   7
BRANCH   4  22
ATOM     22  C   UNL     1      44.725   5.676  11.286  0.00  0.00    +0.000 C 
BRANCH  22  23
ATOM     23  O   UNL     1      43.571   6.450  11.617  0.00  0.00    +0.000 OA
ATOM     24  H   UNL     1      43.249   6.147  12.482  0.00  0.00    +0.000 HD
ENDBRANCH  22  23
BRANCH  22  25
ATOM     25  C   UNL     1      44.308   4.230  10.888  0.00  0.00    +0.000 C 
BRANCH  25  26
ATOM     26  N   UNL     1      45.199   3.556   9.922  0.00  0.00    +0.000 NA
ATOM     27  C   UNL     1      45.670   4.458   8.870  0.00  0.00    +0.000 C 
ATOM     28  C   UNL     1      45.585   3.659   7.573  0.00  0.00    +0.000 C 
ATOM     29  N   UNL     1      45.253   2.280   7.950  0.00  0.00    +0.000 NA
ATOM     30  C   UNL     1      46.450   1.448   8.037  0.00  0.00    +0.000 C 
ATOM     31  C   UNL     1      44.598   2.411   9.252  0.00  0.00    +0.000 C 
ENDBRANCH  25  26
ENDBRANCH  22  25
ENDBRANCH   4  22
TORSDOF 7
ENDMDL
MODEL 3
REMARK VINA RESULT:    -6.800      2.520      3.400
REMARK INTER + INTRA:         -10.200
REMARK INTER:                  -9.616
REMARK INTRA:                  -0.584
REMARK UNBOUND:                -0.816
REMARK  Name = 
REMARK  9 active torsions:
REMARK  status: ('A' for Active; 'I' for Inactive)
REMARK    1  A    between atoms: C_1  and  C_2
REMARK    2  A    between atoms: C_2  and  N_3
REMARK    3  A    between atoms: C_2  and  C_19
REMARK    4  A    between atoms: N_3  and  C_4
REMARK    5  A    between atoms: C_7  and  C_8
REMARK    6  A    between atoms: C_8  and  O_9
REMARK    7  A    between atoms: C_8  and  C_10
REMARK    8  A    between atoms: C_10  and  N_11
REMARK    9  A    between atoms: N_14  and  C_15
REMARK                            x       y       z     vdW  Elec       q    Type
REMARK                         _______ _______ _______ _____ _____    ______ ____
ROOT
ATOM      1  C   UNL     1      46.566   5.766  13.279  0.00  0.00    +0.000 A 
ATOM      2  C   UNL     1      46.270   4.409  13.441  0.00  0.00    +0.000 A 
ATOM      3  C   UNL     1      45.496   3.718  12.507  0.00  0.00    +0.000 A 
ATOM      4  C   UNL     1      44.937   4.378  11.403  0.00  0.00    +0.000 A 
ATOM      5  C   UNL     1      45.237   5.735  11.231  0.00  0.00    +0.000 A 
ATOM      6  C   UNL     1      46.027   6.423  12.170  0.00  0.00    +0.000 A 
ENDROOT
BRANCH   1   7
ATOM      7  N   UNL     1      47.262   6.393  14.313  0.00  0.00    +0.000 N 
ATOM      8  H   UNL     1      46.599   6.614  15.056  0.00  0.00    +0.000 HD
BRANCH   7  10
ATOM      9  C   UNL     1      49.388   7.119  13.294  0.00  0.00    +0.000 C 
ATOM     10  C   UNL     1      48.134   7.557  14.069  0.00  0.00    +0.000 C 
BRANCH  10  11
ATOM     11  C   UNL     1      48.573   8.227  15.364  0.00  0.00    +0.000 A 
ATOM     12  C   UNL     1      48.534   9.595  15.583  0.00  0.00    +0.000 A 
ATOM     13  S   UNL     1      49.031  10.041  17.154  0.00  0.00    +0.000 S 
ATOM     14  C   UNL     1      49.302   8.419  17.594  0.00  0.00    +0.000 A 
ATOM     15  N   UNL     1      49.724   8.085  18.843  0.00  0.00    +0.000 NA
ATOM     16  C   UNL     1      49.871   6.815  19.033  0.00  0.00    +0.000 A 
ATOM     17  N   UNL     1      49.642   5.850  18.087  0.00  0.00    +0.000 N 
ATOM     18  C   UNL     1      49.212   6.136  16.807  0.00  0.00    +0.000 A 
ATOM     19  O   UNL     1      48.997   5.254  15.986  0.00  0.00    +0.000 OA
ATOM     20  C   UNL     1      49.030   7.552  16.552  0.00  0.00    +0.000 A 
ATOM     21  H   UNL     1      49.776   4.873  18.302  0.00  0.00    +0.000 HD
ENDBRANCH  10  11
ENDBRANCH   7  10
ENDBRANCH   1   7
BRANCH   4  22
ATOM     22  C   UNL     1      44.032   3.572  10.482  0.00  0.00    +0.000 C 
BRANCH  22  23
ATOM     23  O   UNL     1      42.846   3.197  11.185  0.00  0.00    +0.000 OA
ATOM     24  H   UNL     1      43.086   3.052  12.115  0.00  0.00    +0.000 HD
ENDBRANCH  22  23
BRANCH  22  25
ATOM     25  C   UNL     1      44.688   2.324   9.825  0.00  0.00    +0.000 C 
BRANCH  25  26
ATOM     26  N   UNL     1      45.782   2.608   8.873  0.00  0.00    +0.000 NA
ATOM     27  C   UNL     1      45.451   3.693   7.949  0.00  0.00    +0.000 C 
ATOM     28  C   UNL     1      45.949   3.235   6.581  0.00  0.00    +0.000 C 
ATOM     29  N   UNL     1      46.710   2.001   6.803  0.00  0.00    +0.000 NA
ATOM     30  C   UNL     1      48.142   2.268   6.906  0.00  0.00    +0.000 C 
ATOM     31  C   UNL     1      46.174   1.469   8.057  0.00  0.00    +0.000 C 
ENDBRANCH  25  26
ENDBRANCH  22  25
ENDBRANCH   4  22
TORSDOF 7
ENDMDL
MODEL 4
REMARK VINA RESULT:    -6.571      1.524      2.005
REMARK INTER + INTRA:          -9.884
REMARK INTER:                  -9.247
REMARK INTRA:                  -0.636
REMARK UNBOUND:                -0.816
REMARK  Name = 
REMARK  9 active torsions:
REMARK  status: ('A' for Active; 'I' for Inactive)
REMARK    1  A    between atoms: C_1  and  C_2
REMARK    2  A    between atoms: C_2  and  N_3
REMARK    3  A    between atoms: C_2  and  C_19
REMARK    4  A    between atoms: N_3  and  C_4
REMARK    5  A    between atoms: C_7  and  C_8
REMARK    6  A    between atoms: C_8  and  O_9
REMARK    7  A    between atoms: C_8  and  C_10
REMARK    8  A    between atoms: C_10  and  N_11
REMARK    9  A    between atoms: N_14  and  C_15
REMARK                            x       y       z     vdW  Elec       q    Type
REMARK                         _______ _______ _______ _____ _____    ______ ____
ROOT
ATOM      1  C   UNL     1      46.993   5.039  14.394  0.00  0.00    +0.000 A 
ATOM      2  C   UNL     1      47.119   6.127  13.526  0.00  0.00    +0.000 A 
ATOM      3  C   UNL     1      46.432   6.170  12.311  0.00  0.00    +0.000 A 
ATOM      4  C   UNL     1      45.639   5.093  11.891  0.00  0.00    +0.000 A 
ATOM      5  C   UNL     1      45.503   4.003  12.760  0.00  0.00    +0.000 A 
ATOM      6  C   UNL     1      46.189   3.971  13.989  0.00  0.00    +0.000 A 
ENDROOT
BRANCH   1   7
ATOM      7  N   UNL     1      47.793   5.042  15.537  0.00  0.00    +0.000 N 
ATOM      8  H   UNL     1      48.765   5.158  15.246  0.00  0.00    +0.000 HD
BRANCH   7  10
ATOM      9  C   UNL     1      46.972   4.488  17.796  0.00  0.00    +0.000 C 
ATOM     10  C   UNL     1      47.707   3.972  16.548  0.00  0.00    +0.000 C 
BRANCH  10  11
ATOM     11  C   UNL     1      49.081   3.467  16.968  0.00  0.00    +0.000 A 
ATOM     12  C   UNL     1      49.472   2.139  16.912  0.00  0.00    +0.000 A 
ATOM     13  S   UNL     1      51.091   1.890  17.390  0.00  0.00    +0.000 S 
ATOM     14  C   UNL     1      51.325   3.552  17.675  0.00  0.00    +0.000 A 
ATOM     15  N   UNL     1      52.526   4.038  18.089  0.00  0.00    +0.000 NA
ATOM     16  C   UNL     1      52.554   5.320  18.249  0.00  0.00    +0.000 A 
ATOM     17  N   UNL     1      51.492   6.159  18.040  0.00  0.00    +0.000 N 
ATOM     18  C   UNL     1      50.254   5.718  17.617  0.00  0.00    +0.000 A 
ATOM     19  O   UNL     1      49.326   6.491  17.420  0.00  0.00    +0.000 OA
ATOM     20  C   UNL     1      50.179   4.283  17.422  0.00  0.00    +0.000 A 
ATOM     21  H   UNL     1      51.582   7.155  18.182  0.00  0.00    +0.000 HD
ENDBRANCH  10  11
ENDBRANCH   7  10
ENDBRANCH   1   7
BRANCH   4  22
ATOM     22  C   UNL     1      44.998   5.181  10.514  0.00  0.00    +0.000 C 
BRANCH  22  23
ATOM     23  O   UNL     1      44.070   6.266  10.487  0.00  0.00    +0.000 OA
ATOM     24  H   UNL     1      43.507   6.196  11.276  0.00  0.00    +0.000 HD
ENDBRANCH  22  23
BRANCH  22  25
ATOM     25  C   UNL     1      44.317   3.876  10.009  0.00  0.00    +0.000 C 
BRANCH  25  26
ATOM     26  N   UNL     1      44.832   3.346   8.729  0.00  0.00    +0.000 NA
ATOM     27  C   UNL     1      45.081   1.905   8.780  0.00  0.00    +0.000 C 
ATOM     28  C   UNL     1      46.410   1.691   8.061  0.00  0.00    +0.000 C 
ATOM     29  N   UNL     1      46.776   2.980   7.463  0.00  0.00    +0.000 NA
ATOM     30  C   UNL     1      46.369   3.053   6.063  0.00  0.00    +0.000 C 
ATOM     31  C   UNL     1      46.068   3.969   8.278  0.00  0.00    +0.000 C 
ENDBRANCH  25  26
ENDBRANCH  22  25
ENDBRANCH   4  22
TORSDOF 7
ENDMDL
MODEL 5
REMARK VINA RESULT:    -6.529      1.848      2.891
REMARK INTER + INTRA:          -9.826
REMARK INTER:                  -8.802
REMARK INTRA:                  -1.024
REMARK UNBOUND:                -0.816
REMARK  Name = 
REMARK  9 active torsions:
REMARK  status: ('A' for Active; 'I' for Inactive)
REMARK    1  A    between atoms: C_1  and  C_2
REMARK    2  A    between atoms: C_2  and  N_3
REMARK    3  A    between atoms: C_2  and  C_19
REMARK    4  A    between atoms: N_3  and  C_4
REMARK    5  A    between atoms: C_7  and  C_8
REMARK    6  A    between atoms: C_8  and  O_9
REMARK    7  A    between atoms: C_8  and  C_10
REMARK    8  A    between atoms: C_10  and  N_11
REMARK    9  A    between atoms: N_14  and  C_15
REMARK                            x       y       z     vdW  Elec       q    Type
REMARK                         _______ _______ _______ _____ _____    ______ ____
ROOT
ATOM      1  C   UNL     1      47.954   7.774  14.068  0.00  0.00    +0.000 A 
ATOM      2  C   UNL     1      47.685   6.426  13.815  0.00  0.00    +0.000 A 
ATOM      3  C   UNL     1      46.722   6.040  12.882  0.00  0.00    +0.000 A 
ATOM      4  C   UNL     1      45.945   6.994  12.210  0.00  0.00    +0.000 A 
ATOM      5  C   UNL     1      46.215   8.346  12.453  0.00  0.00    +0.000 A 
ATOM      6  C   UNL     1      47.196   8.729  13.386  0.00  0.00    +0.000 A 
ENDROOT
BRANCH   1   7
ATOM      7  N   UNL     1      48.863   8.062  15.087  0.00  0.00    +0.000 N 
ATOM      8  H   UNL     1      49.805   7.897  14.730  0.00  0.00    +0.000 HD
BRANCH   7  10
ATOM      9  C   UNL     1      48.689   8.580  17.492  0.00  0.00    +0.000 C 
ATOM     10  C   UNL     1      48.735   7.469  16.431  0.00  0.00    +0.000 C 
BRANCH  10  11
ATOM     11  C   UNL     1      49.892   6.533  16.758  0.00  0.00    +0.000 A 
ATOM     12  C   UNL     1      51.205   6.948  16.918  0.00  0.00    +0.000 A 
ATOM     13  S   UNL     1      52.266   5.680  17.341  0.00  0.00    +0.000 S 
ATOM     14  C   UNL     1      51.002   4.540  17.335  0.00  0.00    +0.000 A 
ATOM     15  N   UNL     1      51.225   3.234  17.645  0.00  0.00    +0.000 NA
ATOM     16  C   UNL     1      50.167   2.492  17.613  0.00  0.00    +0.000 A 
ATOM     17  N   UNL     1      48.910   2.934  17.293  0.00  0.00    +0.000 N 
ATOM     18  C   UNL     1      48.631   4.248  16.974  0.00  0.00    +0.000 A 
ATOM     19  O   UNL     1      47.495   4.621  16.710  0.00  0.00    +0.000 OA
ATOM     20  C   UNL     1      49.791   5.117  17.002  0.00  0.00    +0.000 A 
ATOM     21  H   UNL     1      48.124   2.300  17.287  0.00  0.00    +0.000 HD
ENDBRANCH  10  11
ENDBRANCH   7  10
ENDBRANCH   1   7
BRANCH   4  22
ATOM     22  C   UNL     1      44.855   6.487  11.276  0.00  0.00    +0.000 C 
BRANCH  22  23
ATOM     23  O   UNL     1      43.698   7.315  11.397  0.00  0.00    +0.000 OA
ATOM     24  H   UNL     1      43.788   7.834  12.214  0.00  0.00    +0.000 HD
ENDBRANCH  22  23
BRANCH  22  25
ATOM     25  C   UNL     1      44.467   4.990  11.452  0.00  0.00    +0.000 C 
BRANCH  25  26
ATOM     26  N   UNL     1      45.024   4.067  10.442  0.00  0.00    +0.000 NA
ATOM     27  C   UNL     1      45.327   4.738   9.177  0.00  0.00    +0.000 C 
ATOM     28  C   UNL     1      44.850   3.789   8.082  0.00  0.00    +0.000 C 
ATOM     29  N   UNL     1      44.469   2.538   8.748  0.00  0.00    +0.000 NA
ATOM     30  C   UNL     1      45.554   1.562   8.710  0.00  0.00    +0.000 C 
ATOM     31  C   UNL     1      44.160   2.941  10.121  0.00  0.00    +0.000 C 
ENDBRANCH  25  26
ENDBRANCH  22  25
ENDBRANCH   4  22
TORSDOF 7
ENDMDL
MODEL 6
REMARK VINA RESULT:    -6.464      3.554      9.465
REMARK INTER + INTRA:          -9.736
REMARK INTER:                  -8.780
REMARK INTRA:                  -0.956
REMARK UNBOUND:                -0.816
REMARK  Name = 
REMARK  9 active torsions:
REMARK  status: ('A' for Active; 'I' for Inactive)
REMARK    1  A    between atoms: C_1  and  C_2
REMARK    2  A    between atoms: C_2  and  N_3
REMARK    3  A    between atoms: C_2  and  C_19
REMARK    4  A    between atoms: N_3  and  C_4
REMARK    5  A    between atoms: C_7  and  C_8
REMARK    6  A    between atoms: C_8  and  O_9
REMARK    7  A    between atoms: C_8  and  C_10
REMARK    8  A    between atoms: C_10  and  N_11
REMARK    9  A    between atoms: N_14  and  C_15
REMARK                            x       y       z     vdW  Elec       q    Type
REMARK                         _______ _______ _______ _____ _____    ______ ____
ROOT
ATOM      1  C   UNL     1      48.281   5.740  15.592  0.00  0.00    +0.000 A 
ATOM      2  C   UNL     1      49.392   6.460  16.042  0.00  0.00    +0.000 A 
ATOM      3  C   UNL     1      50.218   5.964  17.052  0.00  0.00    +0.000 A 
ATOM      4  C   UNL     1      49.925   4.752  17.694  0.00  0.00    +0.000 A 
ATOM      5  C   UNL     1      48.818   4.023  17.242  0.00  0.00    +0.000 A 
ATOM      6  C   UNL     1      47.996   4.524  16.215  0.00  0.00    +0.000 A 
ENDROOT
BRANCH   1   7
ATOM      7  N   UNL     1      47.461   6.362  14.649  0.00  0.00    +0.000 N 
ATOM      8  H   UNL     1      46.498   6.315  14.984  0.00  0.00    +0.000 HD
BRANCH   7  10
ATOM      9  C   UNL     1      48.380   6.997  12.450  0.00  0.00    +0.000 C 
ATOM     10  C   UNL     1      47.504   5.996  13.222  0.00  0.00    +0.000 C 
BRANCH  10  11
ATOM     11  C   UNL     1      46.117   5.978  12.592  0.00  0.00    +0.000 A 
ATOM     12  C   UNL     1      45.495   7.093  12.053  0.00  0.00    +0.000 A 
ATOM     13  S   UNL     1      43.972   6.749  11.364  0.00  0.00    +0.000 S 
ATOM     14  C   UNL     1      44.102   5.097  11.754  0.00  0.00    +0.000 A 
ATOM     15  N   UNL     1      43.127   4.210  11.416  0.00  0.00    +0.000 NA
ATOM     16  C   UNL     1      43.374   2.990  11.765  0.00  0.00    +0.000 A 
ATOM     17  N   UNL     1      44.501   2.577  12.425  0.00  0.00    +0.000 N 
ATOM     18  C   UNL     1      45.519   3.435  12.787  0.00  0.00    +0.000 A 
ATOM     19  O   UNL     1      46.525   3.038  13.361  0.00  0.00    +0.000 OA
ATOM     20  C   UNL     1      45.284   4.816  12.412  0.00  0.00    +0.000 A 
ATOM     21  H   UNL     1      44.632   1.606  12.668  0.00  0.00    +0.000 HD
ENDBRANCH  10  11
ENDBRANCH   7  10
ENDBRANCH   1   7
BRANCH   4  22
ATOM     22  C   UNL     1      50.825   4.327  18.846  0.00  0.00    +0.000 C 
BRANCH  22  23
ATOM     23  O   UNL     1      50.133   4.503  20.083  0.00  0.00    +0.000 OA
ATOM     24  H   UNL     1      50.273   3.704  20.617  0.00  0.00    +0.000 HD
ENDBRANCH  22  23
BRANCH  22  25
ATOM     25  C   UNL     1      52.215   5.024  18.900  0.00  0.00    +0.000 C 
BRANCH  25  26
ATOM     26  N   UNL     1      53.379   4.117  18.954  0.00  0.00    +0.000 NA
ATOM     27  C   UNL     1      53.383   3.146  17.858  0.00  0.00    +0.000 C 
ATOM     28  C   UNL     1      53.792   1.817  18.486  0.00  0.00    +0.000 C 
ATOM     29  N   UNL     1      54.190   2.110  19.868  0.00  0.00    +0.000 NA
ATOM     30  C   UNL     1      55.636   2.272  19.984  0.00  0.00    +0.000 C 
ATOM     31  C   UNL     1      53.485   3.353  20.188  0.00  0.00    +0.000 C 
ENDBRANCH  25  26
ENDBRANCH  22  25
ENDBRANCH   4  22
TORSDOF 7
ENDMDL
MODEL 7
REMARK VINA RESULT:    -6.346      2.657      3.659
REMARK INTER + INTRA:          -9.573
REMARK INTER:                  -8.817
REMARK INTRA:                  -0.756
REMARK UNBOUND:                -0.816
REMARK  Name = 
REMARK  9 active torsions:
REMARK  status: ('A' for Active; 'I' for Inactive)
REMARK    1  A    between atoms: C_1  and  C_2
REMARK    2  A    between atoms: C_2  and  N_3
REMARK    3  A    between atoms: C_2  and  C_19
REMARK    4  A    between atoms: N_3  and  C_4
REMARK    5  A    between atoms: C_7  and  C_8
REMARK    6  A    between atoms: C_8  and  O_9
REMARK    7  A    between atoms: C_8  and  C_10
REMARK    8  A    between atoms: C_10  and  N_11
REMARK    9  A    between atoms: N_14  and  C_15
REMARK                            x       y       z     vdW  Elec       q    Type
REMARK                         _______ _______ _______ _____ _____    ______ ____
ROOT
ATOM      1  C   UNL     1      48.706   6.639  15.834  0.00  0.00    +0.000 A 
ATOM      2  C   UNL     1      48.131   5.684  14.991  0.00  0.00    +0.000 A 
ATOM      3  C   UNL     1      47.484   6.052  13.810  0.00  0.00    +0.000 A 
ATOM      4  C   UNL     1      47.335   7.401  13.460  0.00  0.00    +0.000 A 
ATOM      5  C   UNL     1      47.915   8.363  14.296  0.00  0.00    +0.000 A 
ATOM      6  C   UNL     1      48.577   7.984  15.479  0.00  0.00    +0.000 A 
ENDROOT
BRANCH   1   7
ATOM      7  N   UNL     1      49.243   6.184  17.038  0.00  0.00    +0.000 N 
ATOM      8  H   UNL     1      50.171   6.594  17.149  0.00  0.00    +0.000 HD
BRANCH   7  10
ATOM      9  C   UNL     1      48.199   4.403  18.390  0.00  0.00    +0.000 C 
ATOM     10  C   UNL     1      49.298   4.748  17.370  0.00  0.00    +0.000 C 
BRANCH  10  11
ATOM     11  C   UNL     1      50.646   4.345  17.954  0.00  0.00    +0.000 A 
ATOM     12  C   UNL     1      51.429   5.172  18.743  0.00  0.00    +0.000 A 
ATOM     13  S   UNL     1      52.855   4.419  19.301  0.00  0.00    +0.000 S 
ATOM     14  C   UNL     1      52.464   2.960  18.517  0.00  0.00    +0.000 A 
ATOM     15  N   UNL     1      53.269   1.868  18.609  0.00  0.00    +0.000 NA
ATOM     16  C   UNL     1      52.833   0.830  17.974  0.00  0.00    +0.000 A 
ATOM     17  N   UNL     1      51.671   0.787  17.249  0.00  0.00    +0.000 N 
ATOM     18  C   UNL     1      50.819   1.865  17.126  0.00  0.00    +0.000 A 
ATOM     19  O   UNL     1      49.776   1.795  16.488  0.00  0.00    +0.000 OA
ATOM     20  C   UNL     1      51.269   3.052  17.828  0.00  0.00    +0.000 A 
ATOM     21  H   UNL     1      51.387  -0.058  16.776  0.00  0.00    +0.000 HD
ENDBRANCH  10  11
ENDBRANCH   7  10
ENDBRANCH   1   7
BRANCH   4  22
ATOM     22  C   UNL     1      46.538   7.721  12.203  0.00  0.00    +0.000 C 
BRANCH  22  23
ATOM     23  O   UNL     1      46.682   9.106  11.885  0.00  0.00    +0.000 OA
ATOM     24  H   UNL     1      46.970   9.170  10.959  0.00  0.00    +0.000 HD
ENDBRANCH  22  23
BRANCH  22  25
ATOM     25  C   UNL     1      45.032   7.332  12.249  0.00  0.00    +0.000 C 
BRANCH  25  26
ATOM     26  N   UNL     1      44.734   5.914  11.958  0.00  0.00    +0.000 NA
ATOM     27  C   UNL     1      45.250   5.489  10.657  0.00  0.00    +0.000 C 
ATOM     28  C   UNL     1      44.147   4.638  10.034  0.00  0.00    +0.000 C 
ATOM     29  N   UNL     1      43.126   4.449  11.071  0.00  0.00    +0.000 NA
ATOM     30  C   UNL     1      43.304   3.180  11.770  0.00  0.00    +0.000 C 
ATOM     31  C   UNL     1      43.316   5.587  11.973  0.00  0.00    +0.000 C 
ENDBRANCH  25  26
ENDBRANCH  22  25
ENDBRANCH   4  22
TORSDOF 7
ENDMDL
MODEL 8
REMARK VINA RESULT:    -6.122      3.178      4.202
REMARK INTER + INTRA:          -9.264
REMARK INTER:                  -8.055
REMARK INTRA:                  -1.209
REMARK UNBOUND:                -0.816
REMARK  Name = 
REMARK  9 active torsions:
REMARK  status: ('A' for Active; 'I' for Inactive)
REMARK    1  A    between atoms: C_1  and  C_2
REMARK    2  A    between atoms: C_2  and  N_3
REMARK    3  A    between atoms: C_2  and  C_19
REMARK    4  A    between atoms: N_3  and  C_4
REMARK    5  A    between atoms: C_7  and  C_8
REMARK    6  A    between atoms: C_8  and  O_9
REMARK    7  A    between atoms: C_8  and  C_10
REMARK    8  A    between atoms: C_10  and  N_11
REMARK    9  A    between atoms: N_14  and  C_15
REMARK                            x       y       z     vdW  Elec       q    Type
REMARK                         _______ _______ _______ _____ _____    ______ ____
ROOT
ATOM      1  C   UNL     1      48.270   7.988  12.750  0.00  0.00    +0.000 A 
ATOM      2  C   UNL     1      48.541   6.620  12.852  0.00  0.00    +0.000 A 
ATOM      3  C   UNL     1      47.512   5.680  12.917  0.00  0.00    +0.000 A 
ATOM      4  C   UNL     1      46.169   6.080  12.946  0.00  0.00    +0.000 A 
ATOM      5  C   UNL     1      45.891   7.448  12.837  0.00  0.00    +0.000 A 
ATOM      6  C   UNL     1      46.933   8.391  12.759  0.00  0.00    +0.000 A 
ENDROOT
BRANCH   1   7
ATOM      7  N   UNL     1      49.362   8.857  12.790  0.00  0.00    +0.000 N 
ATOM      8  H   UNL     1      50.120   8.441  12.248  0.00  0.00    +0.000 HD
BRANCH   7  10
ATOM      9  C   UNL     1      50.339  10.838  13.887  0.00  0.00    +0.000 C 
ATOM     10  C   UNL     1      49.894   9.377  14.063  0.00  0.00    +0.000 C 
BRANCH  10  11
ATOM     11  C   UNL     1      51.083   8.565  14.562  0.00  0.00    +0.000 A 
ATOM     12  C   UNL     1      52.391   8.772  14.155  0.00  0.00    +0.000 A 
ATOM     13  S   UNL     1      53.511   7.748  14.936  0.00  0.00    +0.000 S 
ATOM     14  C   UNL     1      52.284   7.005  15.852  0.00  0.00    +0.000 A 
ATOM     15  N   UNL     1      52.568   6.033  16.760  0.00  0.00    +0.000 NA
ATOM     16  C   UNL     1      51.536   5.575  17.389  0.00  0.00    +0.000 A 
ATOM     17  N   UNL     1      50.247   5.994  17.188  0.00  0.00    +0.000 N 
ATOM     18  C   UNL     1      49.906   6.977  16.282  0.00  0.00    +0.000 A 
ATOM     19  O   UNL     1      48.748   7.346  16.134  0.00  0.00    +0.000 OA
ATOM     20  C   UNL     1      51.037   7.522  15.555  0.00  0.00    +0.000 A 
ATOM     21  H   UNL     1      49.484   5.594  17.715  0.00  0.00    +0.000 HD
ENDBRANCH  10  11
ENDBRANCH   7  10
ENDBRANCH   1   7
BRANCH   4  22
ATOM     22  C   UNL     1      45.112   4.997  13.110  0.00  0.00    +0.000 C 
BRANCH  22  23
ATOM     23  O   UNL     1      45.731   3.786  13.546  0.00  0.00    +0.000 OA
ATOM     24  H   UNL     1      45.220   3.446  14.299  0.00  0.00    +0.000 HD
ENDBRANCH  22  23
BRANCH  22  25
ATOM     25  C   UNL     1      44.228   4.731  11.857  0.00  0.00    +0.000 C 
BRANCH  25  26
ATOM     26  N   UNL     1      44.885   3.987  10.763  0.00  0.00    +0.000 NA
ATOM     27  C   UNL     1      45.222   4.845   9.626  0.00  0.00    +0.000 C 
ATOM     28  C   UNL     1      44.854   4.043   8.381  0.00  0.00    +0.000 C 
ATOM     29  N   UNL     1      44.501   2.694   8.839  0.00  0.00    +0.000 NA
ATOM     30  C   UNL     1      45.635   1.781   8.730  0.00  0.00    +0.000 C 
ATOM     31  C   UNL     1      44.098   2.883  10.234  0.00  0.00    +0.000 C 
ENDBRANCH  25  26
ENDBRANCH  22  25
ENDBRANCH   4  22
TORSDOF 7
ENDMDL
MODEL 9
REMARK VINA RESULT:    -5.978      2.997      4.025
REMARK INTER + INTRA:          -9.065
REMARK INTER:                  -8.133
REMARK INTRA:                  -0.932
REMARK UNBOUND:                -0.816
REMARK  Name = 
REMARK  9 active torsions:
REMARK  status: ('A' for Active; 'I' for Inactive)
REMARK    1  A    between atoms: C_1  and  C_2
REMARK    2  A    between atoms: C_2  and  N_3
REMARK    3  A    between atoms: C_2  and  C_19
REMARK    4  A    between atoms: N_3  and  C_4
REMARK    5  A    between atoms: C_7  and  C_8
REMARK    6  A    between atoms: C_8  and  O_9
REMARK    7  A    between atoms: C_8  and  C_10
REMARK    8  A    between atoms: C_10  and  N_11
REMARK    9  A    between atoms: N_14  and  C_15
REMARK                            x       y       z     vdW  Elec       q    Type
REMARK                         _______ _______ _______ _____ _____    ______ ____
ROOT
ATOM      1  C   UNL     1      47.916   6.780  14.033  0.00  0.00    +0.000 A 
ATOM      2  C   UNL     1      47.472   7.930  13.374  0.00  0.00    +0.000 A 
ATOM      3  C   UNL     1      46.371   7.896  12.517  0.00  0.00    +0.000 A 
ATOM      4  C   UNL     1      45.710   6.692  12.238  0.00  0.00    +0.000 A 
ATOM      5  C   UNL     1      46.145   5.538  12.902  0.00  0.00    +0.000 A 
ATOM      6  C   UNL     1      47.248   5.581  13.774  0.00  0.00    +0.000 A 
ENDROOT
BRANCH   1   7
ATOM      7  N   UNL     1      49.082   6.893  14.791  0.00  0.00    +0.000 N 
ATOM      8  H   UNL     1      49.515   5.970  14.850  0.00  0.00    +0.000 HD
BRANCH   7  10
ATOM      9  C   UNL     1      50.432   8.219  16.374  0.00  0.00    +0.000 C 
ATOM     10  C   UNL     1      49.084   7.522  16.125  0.00  0.00    +0.000 C 
BRANCH  10  11
ATOM     11  C   UNL     1      48.847   6.509  17.238  0.00  0.00    +0.000 A 
ATOM     12  C   UNL     1      49.179   5.166  17.149  0.00  0.00    +0.000 A 
ATOM     13  S   UNL     1      48.851   4.295  18.579  0.00  0.00    +0.000 S 
ATOM     14  C   UNL     1      48.268   5.687  19.365  0.00  0.00    +0.000 A 
ATOM     15  N   UNL     1      47.839   5.645  20.656  0.00  0.00    +0.000 NA
ATOM     16  C   UNL     1      47.439   6.783  21.121  0.00  0.00    +0.000 A 
ATOM     17  N   UNL     1      47.423   7.956  20.413  0.00  0.00    +0.000 N 
ATOM     18  C   UNL     1      47.850   8.053  19.104  0.00  0.00    +0.000 A 
ATOM     19  O   UNL     1      47.842   9.117  18.499  0.00  0.00    +0.000 OA
ATOM     20  C   UNL     1      48.310   6.797  18.543  0.00  0.00    +0.000 A 
ATOM     21  H   UNL     1      47.098   8.812  20.838  0.00  0.00    +0.000 HD
ENDBRANCH  10  11
ENDBRANCH   7  10
ENDBRANCH   1   7
BRANCH   4  22
ATOM     22  C   UNL     1      44.576   6.726  11.224  0.00  0.00    +0.000 C 
BRANCH  22  23
ATOM     23  O   UNL     1      43.800   7.909  11.412  0.00  0.00    +0.000 OA
ATOM     24  H   UNL     1      43.904   8.463  10.621  0.00  0.00    +0.000 HD
ENDBRANCH  22  23
BRANCH  22  25
ATOM     25  C   UNL     1      43.655   5.472  11.209  0.00  0.00    +0.000 C 
BRANCH  25  26
ATOM     26  N   UNL     1      43.884   4.528  10.097  0.00  0.00    +0.000 NA
ATOM     27  C   UNL     1      43.877   3.132  10.537  0.00  0.00    +0.000 C 
ATOM     28  C   UNL     1      45.034   2.462   9.802  0.00  0.00    +0.000 C 
ATOM     29  N   UNL     1      45.538   3.440   8.832  0.00  0.00    +0.000 NA
ATOM     30  C   UNL     1      44.961   3.225   7.508  0.00  0.00    +0.000 C 
ATOM     31  C   UNL     1      45.138   4.735   9.386  0.00  0.00    +0.000 C 
ENDBRANCH  25  26
ENDBRANCH  22  25
ENDBRANCH   4  22
TORSDOF 7
ENDMDL
