MODEL 1
REMARK VINA RESULT:    -7.578      0.000      0.000
REMARK INTER + INTRA:         -13.064
REMARK INTER:                 -11.344
REMARK INTRA:                  -1.720
REMARK UNBOUND:                -1.720
REMARK  Name = 
REMARK  10 active torsions:
REMARK  status: ('A' for Active; 'I' for Inactive)
REMARK    1  A    between atoms: C_1  and  O_2
REMARK    2  A    between atoms: O_2  and  C_3
REMARK    3  A    between atoms: C_3  and  C_4
REMARK    4  A    between atoms: C_4  and  N_5
REMARK    5  A    between atoms: N_5  and  C_6
REMARK    6  A    between atoms: C_6  and  C_7
REMARK    7  A    between atoms: C_10  and  C_11
REMARK    8  A    between atoms: C_11  and  O_12
REMARK    9  A    between atoms: C_11  and  C_13
REMARK   10  A    between atoms: C_21  and  C_23
REMARK                            x       y       z     vdW  Elec       q    Type
REMARK                         _______ _______ _______ _____ _____    ______ ____
ROOT
ATOM      1  N   UNL     1      46.495   7.179  12.106  0.00  0.00    +0.000 N 
ATOM      2  C   UNL     1      45.225   6.832  11.587  0.00  0.00    +0.000 C 
ATOM      3  O   UNL     1      44.462   7.701  11.170  0.00  0.00    +0.000 OA
ENDROOT
BRANCH   2   4
ATOM      4  C   UNL     1      44.765   5.427  11.577  0.00  0.00    +0.000 A 
ATOM      5  C   UNL     1      44.012   4.805  12.562  0.00  0.00    +0.000 A 
ATOM      6  S   UNL     1      43.587   3.191  12.197  0.00  0.00    +0.000 S 
ATOM      7  C   UNL     1      44.233   3.328  10.635  0.00  0.00    +0.000 A 
ATOM      8  N   UNL     1      44.080   2.329   9.728  0.00  0.00    +0.000 NA
ATOM      9  C   UNL     1      44.549   2.602   8.555  0.00  0.00    +0.000 A 
ATOM     10  N   UNL     1      45.198   3.767   8.227  0.00  0.00    +0.000 N 
ATOM     11  C   UNL     1      45.514   4.733   9.150  0.00  0.00    +0.000 A 
ATOM     12  O   UNL     1      46.321   5.618   8.893  0.00  0.00    +0.000 OA
ATOM     13  C   UNL     1      44.878   4.535  10.442  0.00  0.00    +0.000 A 
ATOM     14  H   UNL     1      45.610   3.885   7.311  0.00  0.00    +0.000 HD
ENDBRANCH   2   4
BRANCH   1  15
ATOM     15  C   UNL     1      46.819   8.615  12.152  0.00  0.00    +0.000 C 
BRANCH  15  16
ATOM     16  C   UNL     1      48.301   8.932  11.883  0.00  0.00    +0.000 C 
BRANCH  16  18
ATOM     17  C   UNL     1      47.232  11.013  11.630  0.00  0.00    +0.000 C 
ATOM     18  O   UNL     1      48.449  10.292  11.462  0.00  0.00    +0.000 OA
ENDBRANCH  16  18
ENDBRANCH  15  16
ENDBRANCH   1  15
BRANCH   1  19
ATOM     19  C   UNL     1      47.409   6.177  12.638  0.00  0.00    +0.000 C 
BRANCH  19  20
ATOM     20  C   UNL     1      47.533   5.867  14.108  0.00  0.00    +0.000 A 
ATOM     21  C   UNL     1      46.984   4.674  14.608  0.00  0.00    +0.000 A 
ATOM     22  C   UNL     1      47.375   4.177  15.853  0.00  0.00    +0.000 A 
ATOM     23  C   UNL     1      48.303   4.873  16.638  0.00  0.00    +0.000 A 
ATOM     24  C   UNL     1      48.768   6.120  16.180  0.00  0.00    +0.000 A 
ATOM     25  C   UNL     1      48.386   6.613  14.928  0.00  0.00    +0.000 A 
BRANCH  23  26
ATOM     26  C   UNL     1      48.805   4.263  17.941  0.00  0.00    +0.000 C 
BRANCH  26  27
ATOM     27  C   UNL     1      50.111   3.497  17.828  0.00  0.00    +0.000 A 
ATOM     28  C   UNL     1      50.135   2.176  17.350  0.00  0.00    +0.000 A 
ATOM     29  C   UNL     1      51.323   1.447  17.319  0.00  0.00    +0.000 A 
ATOM     30  C   UNL     1      52.515   2.040  17.724  0.00  0.00    +0.000 A 
ATOM     31  C   UNL     1      52.525   3.373  18.130  0.00  0.00    +0.000 A 
ATOM     32  C   UNL     1      51.334   4.098  18.174  0.00  0.00    +0.000 A 
ENDBRANCH  26  27
BRANCH  26  33
ATOM     33  O   UNL     1      47.786   3.404  18.473  0.00  0.00    +0.000 OA
ATOM     34  H   UNL     1      47.771   3.526  19.436  0.00  0.00    +0.000 HD
ENDBRANCH  26  33
ENDBRANCH  23  26
ENDBRANCH  19  20
ENDBRANCH   1  19
TORSDOF 9
ENDMDL
MODEL 2
REMARK VINA RESULT:    -7.328      3.055      7.856
REMARK INTER + INTRA:         -12.689
REMARK INTER:                 -11.116
REMARK INTRA:                  -1.573
REMARK UNBOUND:                -1.720
REMARK  Name = 
REMARK  10 active torsions:
REMARK  status: ('A' for Active; 'I' for Inactive)
REMARK    1  A    between atoms: C_1  and  O_2
REMARK    2  A    between atoms: O_2  and  C_3
REMARK    3  A    between atoms: C_3  and  C_4
REMARK    4  A    between atoms: C_4  and  N_5
REMARK    5  A    between atoms: N_5  and  C_6
REMARK    6  A    between atoms: C_6  and  C_7
REMARK    7  A    between atoms: C_10  and  C_11
REMARK    8  A    between atoms: C_11  and  O_12
REMARK    9  A    between atoms: C_11  and  C_13
REMARK   10  A    between atoms: C_21  and  C_23
REMARK                            x       y       z     vdW  Elec       q    Type
REMARK                         _______ _______ _______ _____ _____    ______ ____
ROOT
ATOM      1  N   UNL     1      48.299   7.225  15.155  0.00  0.00    +0.000 N 
ATOM      2  C   UNL     1      48.341   6.889  16.528  0.00  0.00    +0.000 C 
ATOM      3  O   UNL     1      48.354   7.770  17.387  0.00  0.00    +0.000 OA
ENDROOT
BRANCH   2   4
ATOM      4  C   UNL     1      48.419   5.479  16.966  0.00  0.00    +0.000 A 
ATOM      5  C   UNL     1      47.372   4.569  16.987  0.00  0.00    +0.000 A 
ATOM      6  S   UNL     1      47.826   2.998  17.479  0.00  0.00    +0.000 S 
ATOM      7  C   UNL     1      49.465   3.431  17.501  0.00  0.00    +0.000 A 
ATOM      8  N   UNL     1      50.429   2.499  17.716  0.00  0.00    +0.000 NA
ATOM      9  C   UNL     1      51.635   2.953  17.623  0.00  0.00    +0.000 A 
ATOM     10  N   UNL     1      51.957   4.266  17.382  0.00  0.00    +0.000 N 
ATOM     11  C   UNL     1      51.020   5.267  17.318  0.00  0.00    +0.000 A 
ATOM     12  O   UNL     1      51.344   6.446  17.377  0.00  0.00    +0.000 OA
ATOM     13  C   UNL     1      49.651   4.780  17.268  0.00  0.00    +0.000 A 
ATOM     14  H   UNL     1      52.921   4.570  17.399  0.00  0.00    +0.000 HD
ENDBRANCH   2   4
BRANCH   1  15
ATOM     15  C   UNL     1      48.314   8.661  14.825  0.00  0.00    +0.000 C 
BRANCH  15  16
ATOM     16  C   UNL     1      49.584   9.121  14.087  0.00  0.00    +0.000 C 
BRANCH  16  18
ATOM     17  C   UNL     1      49.645   8.830  11.752  0.00  0.00    +0.000 C 
ATOM     18  O   UNL     1      49.241   9.686  12.817  0.00  0.00    +0.000 OA
ENDBRANCH  16  18
ENDBRANCH  15  16
ENDBRANCH   1  15
BRANCH   1  19
ATOM     19  C   UNL     1      48.316   6.207  14.113  0.00  0.00    +0.000 C 
BRANCH  19  20
ATOM     20  C   UNL     1      47.094   5.806  13.327  0.00  0.00    +0.000 A 
ATOM     21  C   UNL     1      46.738   6.545  12.186  0.00  0.00    +0.000 A 
ATOM     22  C   UNL     1      45.855   6.016  11.242  0.00  0.00    +0.000 A 
ATOM     23  C   UNL     1      45.290   4.749  11.428  0.00  0.00    +0.000 A 
ATOM     24  C   UNL     1      45.567   4.059  12.623  0.00  0.00    +0.000 A 
ATOM     25  C   UNL     1      46.460   4.582  13.564  0.00  0.00    +0.000 A 
BRANCH  23  26
ATOM     26  C   UNL     1      44.419   4.138  10.337  0.00  0.00    +0.000 C 
BRANCH  26  27
ATOM     27  C   UNL     1      45.183   3.472   9.205  0.00  0.00    +0.000 A 
ATOM     28  C   UNL     1      45.321   2.074   9.151  0.00  0.00    +0.000 A 
ATOM     29  C   UNL     1      46.086   1.470   8.155  0.00  0.00    +0.000 A 
ATOM     30  C   UNL     1      46.691   2.247   7.172  0.00  0.00    +0.000 A 
ATOM     31  C   UNL     1      46.504   3.628   7.165  0.00  0.00    +0.000 A 
ATOM     32  C   UNL     1      45.749   4.235   8.169  0.00  0.00    +0.000 A 
ENDBRANCH  26  27
BRANCH  26  33
ATOM     33  O   UNL     1      43.560   5.157   9.805  0.00  0.00    +0.000 OA
ATOM     34  H   UNL     1      44.010   6.009   9.917  0.00  0.00    +0.000 HD
ENDBRANCH  26  33
ENDBRANCH  23  26
ENDBRANCH  19  20
ENDBRANCH   1  19
TORSDOF 9
ENDMDL
MODEL 3
REMARK VINA RESULT:    -6.674      3.350      8.178
REMARK INTER + INTRA:         -11.710
REMARK INTER:                 -11.412
REMARK INTRA:                  -0.299
REMARK UNBOUND:                -1.720
REMARK  Name = 
REMARK  10 active torsions:
REMARK  status: ('A' for Active; 'I' for Inactive)
REMARK    1  A    between atoms: C_1  and  O_2
REMARK    2  A    between atoms: O_2  and  C_3
REMARK    3  A    between atoms: C_3  and  C_4
REMARK    4  A    between atoms: C_4  and  N_5
REMARK    5  A    between atoms: N_5  and  C_6
REMARK    6  A    between atoms: C_6  and  C_7
REMARK    7  A    between atoms: C_10  and  C_11
REMARK    8  A    between atoms: C_11  and  O_12
REMARK    9  A    between atoms: C_11  and  C_13
REMARK   10  A    between atoms: C_21  and  C_23
REMARK                            x       y       z     vdW  Elec       q    Type
REMARK                         _______ _______ _______ _____ _____    ______ ____
ROOT
ATOM      1  N   UNL     1      48.385   6.485  13.776  0.00  0.00    +0.000 N 
ATOM      2  C   UNL     1      49.267   6.873  14.812  0.00  0.00    +0.000 C 
ATOM      3  O   UNL     1      50.324   7.445  14.551  0.00  0.00    +0.000 OA
ENDROOT
BRANCH   2   4
ATOM      4  C   UNL     1      48.968   6.561  16.225  0.00  0.00    +0.000 A 
ATOM      5  C   UNL     1      49.229   5.362  16.872  0.00  0.00    +0.000 A 
ATOM      6  S   UNL     1      48.823   5.364  18.531  0.00  0.00    +0.000 S 
ATOM      7  C   UNL     1      48.461   7.020  18.486  0.00  0.00    +0.000 A 
ATOM      8  N   UNL     1      48.170   7.701  19.624  0.00  0.00    +0.000 NA
ATOM      9  C   UNL     1      47.997   8.969  19.452  0.00  0.00    +0.000 A 
ATOM     10  N   UNL     1      48.042   9.605  18.236  0.00  0.00    +0.000 N 
ATOM     11  C   UNL     1      48.173   8.934  17.045  0.00  0.00    +0.000 A 
ATOM     12  O   UNL     1      47.937   9.482  15.976  0.00  0.00    +0.000 OA
ATOM     13  C   UNL     1      48.519   7.530  17.203  0.00  0.00    +0.000 A 
ATOM     14  H   UNL     1      47.819  10.589  18.161  0.00  0.00    +0.000 HD
ENDBRANCH   2   4
BRANCH   1  15
ATOM     15  C   UNL     1      48.821   6.765  12.398  0.00  0.00    +0.000 C 
BRANCH  15  16
ATOM     16  C   UNL     1      48.687   8.242  11.986  0.00  0.00    +0.000 C 
BRANCH  16  18
ATOM     17  C   UNL     1      47.817  10.285  12.769  0.00  0.00    +0.000 C 
ATOM     18  O   UNL     1      47.639   8.871  12.731  0.00  0.00    +0.000 OA
ENDBRANCH  16  18
ENDBRANCH  15  16
ENDBRANCH   1  15
BRANCH   1  19
ATOM     19  C   UNL     1      47.142   5.777  14.051  0.00  0.00    +0.000 C 
BRANCH  19  20
ATOM     20  C   UNL     1      46.182   5.340  12.973  0.00  0.00    +0.000 A 
ATOM     21  C   UNL     1      46.142   6.049  11.761  0.00  0.00    +0.000 A 
ATOM     22  C   UNL     1      45.552   5.487  10.627  0.00  0.00    +0.000 A 
ATOM     23  C   UNL     1      44.968   4.216  10.684  0.00  0.00    +0.000 A 
ATOM     24  C   UNL     1      44.918   3.556  11.926  0.00  0.00    +0.000 A 
ATOM     25  C   UNL     1      45.518   4.113  13.060  0.00  0.00    +0.000 A 
BRANCH  23  26
ATOM     26  C   UNL     1      44.431   3.568   9.414  0.00  0.00    +0.000 C 
BRANCH  26  27
ATOM     27  C   UNL     1      45.488   2.969   8.503  0.00  0.00    +0.000 A 
ATOM     28  C   UNL     1      45.737   1.585   8.498  0.00  0.00    +0.000 A 
ATOM     29  C   UNL     1      46.760   1.046   7.719  0.00  0.00    +0.000 A 
ATOM     30  C   UNL     1      47.522   1.872   6.900  0.00  0.00    +0.000 A 
ATOM     31  C   UNL     1      47.242   3.235   6.834  0.00  0.00    +0.000 A 
ATOM     32  C   UNL     1      46.227   3.778   7.623  0.00  0.00    +0.000 A 
ENDBRANCH  26  27
BRANCH  26  33
ATOM     33  O   UNL     1      43.664   4.539   8.687  0.00  0.00    +0.000 OA
ATOM     34  H   UNL     1      44.127   5.390   8.753  0.00  0.00    +0.000 HD
ENDBRANCH  26  33
ENDBRANCH  23  26
ENDBRANCH  19  20
ENDBRANCH   1  19
TORSDOF 9
ENDMDL
MODEL 4
REMARK VINA RESULT:    -6.374      3.303      7.775
REMARK INTER + INTRA:         -11.261
REMARK INTER:                  -9.387
REMARK INTRA:                  -1.874
REMARK UNBOUND:                -1.720
REMARK  Name = 
REMARK  10 active torsions:
REMARK  status: ('A' for Active; 'I' for Inactive)
REMARK    1  A    between atoms: C_1  and  O_2
REMARK    2  A    between atoms: O_2  and  C_3
REMARK    3  A    between atoms: C_3  and  C_4
REMARK    4  A    between atoms: C_4  and  N_5
REMARK    5  A    between atoms: N_5  and  C_6
REMARK    6  A    between atoms: C_6  and  C_7
REMARK    7  A    between atoms: C_10  and  C_11
REMARK    8  A    between atoms: C_11  and  O_12
REMARK    9  A    between atoms: C_11  and  C_13
REMARK   10  A    between atoms: C_21  and  C_23
REMARK                            x       y       z     vdW  Elec       q    Type
REMARK                         _______ _______ _______ _____ _____    ______ ____
ROOT
ATOM      1  N   UNL     1      48.781   7.639  16.684  0.00  0.00    +0.000 N 
ATOM      2  C   UNL     1      48.384   6.863  17.798  0.00  0.00    +0.000 C 
ATOM      3  O   UNL     1      48.095   7.403  18.865  0.00  0.00    +0.000 OA
ENDROOT
BRANCH   2   4
ATOM      4  C   UNL     1      48.354   5.387  17.727  0.00  0.00    +0.000 A 
ATOM      5  C   UNL     1      47.242   4.603  17.456  0.00  0.00    +0.000 A 
ATOM      6  S   UNL     1      47.575   2.929  17.374  0.00  0.00    +0.000 S 
ATOM      7  C   UNL     1      49.242   3.209  17.512  0.00  0.00    +0.000 A 
ATOM      8  N   UNL     1      50.132   2.193  17.378  0.00  0.00    +0.000 NA
ATOM      9  C   UNL     1      51.369   2.563  17.424  0.00  0.00    +0.000 A 
ATOM     10  N   UNL     1      51.790   3.852  17.639  0.00  0.00    +0.000 N 
ATOM     11  C   UNL     1      50.930   4.880  17.938  0.00  0.00    +0.000 A 
ATOM     12  O   UNL     1      51.340   5.941  18.390  0.00  0.00    +0.000 OA
ATOM     13  C   UNL     1      49.529   4.540  17.750  0.00  0.00    +0.000 A 
ATOM     14  H   UNL     1      52.774   4.062  17.741  0.00  0.00    +0.000 HD
ENDBRANCH   2   4
BRANCH   1  15
ATOM     15  C   UNL     1      48.863   9.095  16.889  0.00  0.00    +0.000 C 
BRANCH  15  16
ATOM     16  C   UNL     1      50.020   9.770  16.130  0.00  0.00    +0.000 C 
BRANCH  16  18
ATOM     17  C   UNL     1      50.472  10.659  13.998  0.00  0.00    +0.000 C 
ATOM     18  O   UNL     1      49.512  10.555  15.046  0.00  0.00    +0.000 OA
ENDBRANCH  16  18
ENDBRANCH  15  16
ENDBRANCH   1  15
BRANCH   1  19
ATOM     19  C   UNL     1      49.162   7.027  15.418  0.00  0.00    +0.000 C 
BRANCH  19  20
ATOM     20  C   UNL     1      48.213   6.862  14.258  0.00  0.00    +0.000 A 
ATOM     21  C   UNL     1      47.750   5.578  13.926  0.00  0.00    +0.000 A 
ATOM     22  C   UNL     1      46.622   5.414  13.120  0.00  0.00    +0.000 A 
ATOM     23  C   UNL     1      45.946   6.528  12.607  0.00  0.00    +0.000 A 
ATOM     24  C   UNL     1      46.476   7.807  12.855  0.00  0.00    +0.000 A 
ATOM     25  C   UNL     1      47.599   7.974  13.672  0.00  0.00    +0.000 A 
BRANCH  23  26
ATOM     26  C   UNL     1      44.653   6.337  11.823  0.00  0.00    +0.000 C 
BRANCH  26  27
ATOM     27  C   UNL     1      44.632   5.125  10.907  0.00  0.00    +0.000 A 
ATOM     28  C   UNL     1      43.929   3.962  11.265  0.00  0.00    +0.000 A 
ATOM     29  C   UNL     1      43.973   2.824  10.461  0.00  0.00    +0.000 A 
ATOM     30  C   UNL     1      44.683   2.843   9.265  0.00  0.00    +0.000 A 
ATOM     31  C   UNL     1      45.325   4.010   8.856  0.00  0.00    +0.000 A 
ATOM     32  C   UNL     1      45.292   5.145   9.667  0.00  0.00    +0.000 A 
ENDBRANCH  26  27
BRANCH  26  33
ATOM     33  O   UNL     1      44.396   7.524  11.058  0.00  0.00    +0.000 OA
ATOM     34  H   UNL     1      44.240   7.254  10.139  0.00  0.00    +0.000 HD
ENDBRANCH  26  33
ENDBRANCH  23  26
ENDBRANCH  19  20
ENDBRANCH   1  19
TORSDOF 9
ENDMDL
MODEL 5
REMARK VINA RESULT:    -6.105      2.240      4.646
REMARK INTER + INTRA:         -10.859
REMARK INTER:                  -9.552
REMARK INTRA:                  -1.307
REMARK UNBOUND:                -1.720
REMARK  Name = 
REMARK  10 active torsions:
REMARK  status: ('A' for Active; 'I' for Inactive)
REMARK    1  A    between atoms: C_1  and  O_2
REMARK    2  A    between atoms: O_2  and  C_3
REMARK    3  A    between atoms: C_3  and  C_4
REMARK    4  A    between atoms: C_4  and  N_5
REMARK    5  A    between atoms: N_5  and  C_6
REMARK    6  A    between atoms: C_6  and  C_7
REMARK    7  A    between atoms: C_10  and  C_11
REMARK    8  A    between atoms: C_11  and  O_12
REMARK    9  A    between atoms: C_11  and  C_13
REMARK   10  A    between atoms: C_21  and  C_23
REMARK                            x       y       z     vdW  Elec       q    Type
REMARK                         _______ _______ _______ _____ _____    ______ ____
ROOT
ATOM      1  N   UNL     1      45.648   4.884  12.217  0.00  0.00    +0.000 N 
ATOM      2  C   UNL     1      45.818   5.921  11.270  0.00  0.00    +0.000 C 
ATOM      3  O   UNL     1      45.856   5.669  10.067  0.00  0.00    +0.000 OA
ENDROOT
BRANCH   2   4
ATOM      4  C   UNL     1      46.004   7.323  11.700  0.00  0.00    +0.000 A 
ATOM      5  C   UNL     1      47.205   7.918  12.057  0.00  0.00    +0.000 A 
ATOM      6  S   UNL     1      47.074   9.579  12.431  0.00  0.00    +0.000 S 
ATOM      7  C   UNL     1      45.448   9.605  11.951  0.00  0.00    +0.000 A 
ATOM      8  N   UNL     1      44.757  10.772  11.892  0.00  0.00    +0.000 NA
ATOM      9  C   UNL     1      43.556  10.653  11.431  0.00  0.00    +0.000 A 
ATOM     10  N   UNL     1      42.973   9.464  11.071  0.00  0.00    +0.000 N 
ATOM     11  C   UNL     1      43.576   8.245  11.264  0.00  0.00    +0.000 A 
ATOM     12  O   UNL     1      42.940   7.202  11.194  0.00  0.00    +0.000 OA
ATOM     13  C   UNL     1      44.978   8.343  11.639  0.00  0.00    +0.000 A 
ATOM     14  H   UNL     1      42.001   9.431  10.791  0.00  0.00    +0.000 HD
ENDBRANCH   2   4
BRANCH   1  15
ATOM     15  C   UNL     1      45.562   3.513  11.687  0.00  0.00    +0.000 C 
BRANCH  15  16
ATOM     16  C   UNL     1      44.123   2.980  11.558  0.00  0.00    +0.000 C 
BRANCH  16  18
ATOM     17  C   UNL     1      44.695   2.348   9.363  0.00  0.00    +0.000 C 
ATOM     18  O   UNL     1      43.716   2.979  10.185  0.00  0.00    +0.000 OA
ENDBRANCH  16  18
ENDBRANCH  15  16
ENDBRANCH   1  15
BRANCH   1  19
ATOM     19  C   UNL     1      45.633   5.146  13.650  0.00  0.00    +0.000 C 
BRANCH  19  20
ATOM     20  C   UNL     1      46.796   4.843  14.560  0.00  0.00    +0.000 A 
ATOM     21  C   UNL     1      47.727   5.855  14.847  0.00  0.00    +0.000 A 
ATOM     22  C   UNL     1      48.592   5.739  15.937  0.00  0.00    +0.000 A 
ATOM     23  C   UNL     1      48.564   4.599  16.749  0.00  0.00    +0.000 A 
ATOM     24  C   UNL     1      47.705   3.543  16.394  0.00  0.00    +0.000 A 
ATOM     25  C   UNL     1      46.830   3.662  15.309  0.00  0.00    +0.000 A 
BRANCH  23  26
ATOM     26  C   UNL     1      49.433   4.535  17.999  0.00  0.00    +0.000 C 
BRANCH  26  27
ATOM     27  C   UNL     1      50.599   3.564  17.920  0.00  0.00    +0.000 A 
ATOM     28  C   UNL     1      51.887   3.947  18.336  0.00  0.00    +0.000 A 
ATOM     29  C   UNL     1      52.970   3.082  18.191  0.00  0.00    +0.000 A 
ATOM     30  C   UNL     1      52.780   1.807  17.670  0.00  0.00    +0.000 A 
ATOM     31  C   UNL     1      51.500   1.383  17.321  0.00  0.00    +0.000 A 
ATOM     32  C   UNL     1      50.416   2.252  17.453  0.00  0.00    +0.000 A 
ENDBRANCH  26  27
BRANCH  26  33
ATOM     33  O   UNL     1      48.605   4.202  19.123  0.00  0.00    +0.000 OA
ATOM     34  H   UNL     1      48.659   4.935  19.756  0.00  0.00    +0.000 HD
ENDBRANCH  26  33
ENDBRANCH  23  26
ENDBRANCH  19  20
ENDBRANCH   1  19
TORSDOF 9
ENDMDL
MODEL 6
REMARK VINA RESULT:    -5.979      3.451      5.380
REMARK INTER + INTRA:         -10.670
REMARK INTER:                  -8.823
REMARK INTRA:                  -1.847
REMARK UNBOUND:                -1.720
REMARK  Name = 
REMARK  10 active torsions:
REMARK  status: ('A' for Active; 'I' for Inactive)
REMARK    1  A    between atoms: C_1  and  O_2
REMARK    2  A    between atoms: O_2  and  C_3
REMARK    3  A    between atoms: C_3  and  C_4
REMARK    4  A    between atoms: C_4  and  N_5
REMARK    5  A    between atoms: N_5  and  C_6
REMARK    6  A    between atoms: C_6  and  C_7
REMARK    7  A    between atoms: C_10  and  C_11
REMARK    8  A    between atoms: C_11  and  O_12
REMARK    9  A    between atoms: C_11  and  C_13
REMARK   10  A    between atoms: C_21  and  C_23
REMARK                            x       y       z     vdW  Elec       q    Type
REMARK                         _______ _______ _______ _____ _____    ______ ____
ROOT
ATOM      1  N   UNL     1      45.269   7.029  12.531  0.00  0.00    +0.000 N 
ATOM      2  C   UNL     1      44.208   6.475  11.777  0.00  0.00    +0.000 C 
ATOM      3  O   UNL     1      43.314   7.194  11.334  0.00  0.00    +0.000 OA
ENDROOT
BRANCH   2   4
ATOM      4  C   UNL     1      44.120   5.018  11.543  0.00  0.00    +0.000 A 
ATOM      5  C   UNL     1      43.363   4.115  12.275  0.00  0.00    +0.000 A 
ATOM      6  S   UNL     1      43.431   2.513  11.687  0.00  0.00    +0.000 S 
ATOM      7  C   UNL     1      44.319   3.003  10.328  0.00  0.00    +0.000 A 
ATOM      8  N   UNL     1      44.601   2.129   9.328  0.00  0.00    +0.000 NA
ATOM      9  C   UNL     1      45.211   2.657   8.319  0.00  0.00    +0.000 A 
ATOM     10  N   UNL     1      45.604   3.970   8.246  0.00  0.00    +0.000 N 
ATOM     11  C   UNL     1      45.483   4.847   9.296  0.00  0.00    +0.000 A 
ATOM     12  O   UNL     1      46.081   5.916   9.305  0.00  0.00    +0.000 OA
ATOM     13  C   UNL     1      44.672   4.337  10.390  0.00  0.00    +0.000 A 
ATOM     14  H   UNL     1      46.148   4.302   7.460  0.00  0.00    +0.000 HD
ENDBRANCH   2   4
BRANCH   1  15
ATOM     15  C   UNL     1      45.214   8.480  12.782  0.00  0.00    +0.000 C 
BRANCH  15  16
ATOM     16  C   UNL     1      45.898   9.329  11.695  0.00  0.00    +0.000 C 
BRANCH  16  18
ATOM     17  C   UNL     1      47.279  11.231  11.571  0.00  0.00    +0.000 C 
ATOM     18  O   UNL     1      47.047   9.991  12.234  0.00  0.00    +0.000 OA
ENDBRANCH  16  18
ENDBRANCH  15  16
ENDBRANCH   1  15
BRANCH   1  19
ATOM     19  C   UNL     1      46.325   6.200  13.098  0.00  0.00    +0.000 C 
BRANCH  19  20
ATOM     20  C   UNL     1      47.785   6.574  13.053  0.00  0.00    +0.000 A 
ATOM     21  C   UNL     1      48.397   6.804  11.810  0.00  0.00    +0.000 A 
ATOM     22  C   UNL     1      49.613   7.487  11.731  0.00  0.00    +0.000 A 
ATOM     23  C   UNL     1      50.256   7.932  12.893  0.00  0.00    +0.000 A 
ATOM     24  C   UNL     1      49.691   7.605  14.140  0.00  0.00    +0.000 A 
ATOM     25  C   UNL     1      48.468   6.931  14.220  0.00  0.00    +0.000 A 
BRANCH  23  26
ATOM     26  C   UNL     1      51.522   8.773  12.786  0.00  0.00    +0.000 C 
BRANCH  26  27
ATOM     27  C   UNL     1      51.694   9.508  11.468  0.00  0.00    +0.000 A 
ATOM     28  C   UNL     1      52.569   9.024  10.479  0.00  0.00    +0.000 A 
ATOM     29  C   UNL     1      52.783   9.739   9.302  0.00  0.00    +0.000 A 
ATOM     30  C   UNL     1      52.095  10.926   9.073  0.00  0.00    +0.000 A 
ATOM     31  C   UNL     1      51.168  11.383  10.007  0.00  0.00    +0.000 A 
ATOM     32  C   UNL     1      50.962  10.675  11.191  0.00  0.00    +0.000 A 
ENDBRANCH  26  27
BRANCH  26  33
ATOM     33  O   UNL     1      52.660   7.929  13.019  0.00  0.00    +0.000 OA
ATOM     34  H   UNL     1      53.456   8.444  12.810  0.00  0.00    +0.000 HD
ENDBRANCH  26  33
ENDBRANCH  23  26
ENDBRANCH  19  20
ENDBRANCH   1  19
TORSDOF 9
ENDMDL
MODEL 7
REMARK VINA RESULT:    -5.886      3.921      7.864
REMARK INTER + INTRA:         -10.532
REMARK INTER:                  -8.061
REMARK INTRA:                  -2.471
REMARK UNBOUND:                -1.720
REMARK  Name = 
REMARK  10 active torsions:
REMARK  status: ('A' for Active; 'I' for Inactive)
REMARK    1  A    between atoms: C_1  and  O_2
REMARK    2  A    between atoms: O_2  and  C_3
REMARK    3  A    between atoms: C_3  and  C_4
REMARK    4  A    between atoms: C_4  and  N_5
REMARK    5  A    between atoms: N_5  and  C_6
REMARK    6  A    between atoms: C_6  and  C_7
REMARK    7  A    between atoms: C_10  and  C_11
REMARK    8  A    between atoms: C_11  and  O_12
REMARK    9  A    between atoms: C_11  and  C_13
REMARK   10  A    between atoms: C_21  and  C_23
REMARK                            x       y       z     vdW  Elec       q    Type
REMARK                         _______ _______ _______ _____ _____    ______ ____
ROOT
ATOM      1  N   UNL     1      49.786   7.187  19.855  0.00  0.00    +0.000 N 
ATOM      2  C   UNL     1      49.465   5.813  19.957  0.00  0.00    +0.000 C 
ATOM      3  O   UNL     1      48.746   5.405  20.867  0.00  0.00    +0.000 OA
ENDROOT
BRANCH   2   4
ATOM      4  C   UNL     1      50.021   4.828  19.005  0.00  0.00    +0.000 A 
ATOM      5  C   UNL     1      51.312   4.320  19.013  0.00  0.00    +0.000 A 
ATOM      6  S   UNL     1      51.601   3.139  17.814  0.00  0.00    +0.000 S 
ATOM      7  C   UNL     1      49.966   3.130  17.364  0.00  0.00    +0.000 A 
ATOM      8  N   UNL     1      49.496   2.229  16.464  0.00  0.00    +0.000 NA
ATOM      9  C   UNL     1      48.218   2.282  16.279  0.00  0.00    +0.000 A 
ATOM     10  N   UNL     1      47.381   3.189  16.881  0.00  0.00    +0.000 N 
ATOM     11  C   UNL     1      47.834   4.216  17.672  0.00  0.00    +0.000 A 
ATOM     12  O   UNL     1      47.110   5.158  17.967  0.00  0.00    +0.000 OA
ATOM     13  C   UNL     1      49.240   4.103  18.024  0.00  0.00    +0.000 A 
ATOM     14  H   UNL     1      46.401   3.227  16.633  0.00  0.00    +0.000 HD
ENDBRANCH   2   4
BRANCH   1  15
ATOM     15  C   UNL     1      49.252   8.069  20.906  0.00  0.00    +0.000 C 
BRANCH  15  16
ATOM     16  C   UNL     1      47.952   8.795  20.514  0.00  0.00    +0.000 C 
BRANCH  16  18
ATOM     17  C   UNL     1      47.237  10.674  19.290  0.00  0.00    +0.000 C 
ATOM     18  O   UNL     1      48.227  10.158  20.175  0.00  0.00    +0.000 OA
ENDBRANCH  16  18
ENDBRANCH  15  16
ENDBRANCH   1  15
BRANCH   1  19
ATOM     19  C   UNL     1      50.661   7.696  18.807  0.00  0.00    +0.000 C 
BRANCH  19  20
ATOM     20  C   UNL     1      50.216   7.898  17.381  0.00  0.00    +0.000 A 
ATOM     21  C   UNL     1      51.075   7.525  16.334  0.00  0.00    +0.000 A 
ATOM     22  C   UNL     1      50.585   7.356  15.037  0.00  0.00    +0.000 A 
ATOM     23  C   UNL     1      49.232   7.579  14.752  0.00  0.00    +0.000 A 
ATOM     24  C   UNL     1      48.400   8.055  15.782  0.00  0.00    +0.000 A 
ATOM     25  C   UNL     1      48.886   8.214  17.084  0.00  0.00    +0.000 A 
BRANCH  23  26
ATOM     26  C   UNL     1      48.689   7.282  13.360  0.00  0.00    +0.000 C 
BRANCH  26  27
ATOM     27  C   UNL     1      47.346   6.574  13.334  0.00  0.00    +0.000 A 
ATOM     28  C   UNL     1      47.208   5.268  13.835  0.00  0.00    +0.000 A 
ATOM     29  C   UNL     1      45.993   4.591  13.742  0.00  0.00    +0.000 A 
ATOM     30  C   UNL     1      44.884   5.222  13.186  0.00  0.00    +0.000 A 
ATOM     31  C   UNL     1      44.981   6.542  12.753  0.00  0.00    +0.000 A 
ATOM     32  C   UNL     1      46.200   7.216  12.834  0.00  0.00    +0.000 A 
ENDBRANCH  26  27
BRANCH  26  33
ATOM     33  O   UNL     1      49.658   6.504  12.642  0.00  0.00    +0.000 OA
ATOM     34  H   UNL     1      49.179   5.969  11.987  0.00  0.00    +0.000 HD
ENDBRANCH  26  33
ENDBRANCH  23  26
ENDBRANCH  19  20
ENDBRANCH   1  19
TORSDOF 9
ENDMDL
MODEL 8
REMARK VINA RESULT:    -5.856      3.679      8.233
REMARK INTER + INTRA:         -10.486
REMARK INTER:                  -9.097
REMARK INTRA:                  -1.390
REMARK UNBOUND:                -1.720
REMARK  Name = 
REMARK  10 active torsions:
REMARK  status: ('A' for Active; 'I' for Inactive)
REMARK    1  A    between atoms: C_1  and  O_2
REMARK    2  A    between atoms: O_2  and  C_3
REMARK    3  A    between atoms: C_3  and  C_4
REMARK    4  A    between atoms: C_4  and  N_5
REMARK    5  A    between atoms: N_5  and  C_6
REMARK    6  A    between atoms: C_6  and  C_7
REMARK    7  A    between atoms: C_10  and  C_11
REMARK    8  A    between atoms: C_11  and  O_12
REMARK    9  A    between atoms: C_11  and  C_13
REMARK   10  A    between atoms: C_21  and  C_23
REMARK                            x       y       z     vdW  Elec       q    Type
REMARK                         _______ _______ _______ _____ _____    ______ ____
ROOT
ATOM      1  N   UNL     1      49.461   8.288  14.835  0.00  0.00    +0.000 N 
ATOM      2  C   UNL     1      49.940   8.234  16.165  0.00  0.00    +0.000 C 
ATOM      3  O   UNL     1      50.195   9.267  16.781  0.00  0.00    +0.000 OA
ENDROOT
BRANCH   2   4
ATOM      4  C   UNL     1      50.191   6.938  16.832  0.00  0.00    +0.000 A 
ATOM      5  C   UNL     1      51.266   6.093  16.599  0.00  0.00    +0.000 A 
ATOM      6  S   UNL     1      51.291   4.708  17.599  0.00  0.00    +0.000 S 
ATOM      7  C   UNL     1      49.974   5.281  18.501  0.00  0.00    +0.000 A 
ATOM      8  N   UNL     1      49.557   4.630  19.616  0.00  0.00    +0.000 NA
ATOM      9  C   UNL     1      48.600   5.223  20.250  0.00  0.00    +0.000 A 
ATOM     10  N   UNL     1      47.994   6.384  19.837  0.00  0.00    +0.000 N 
ATOM     11  C   UNL     1      48.274   6.988  18.636  0.00  0.00    +0.000 A 
ATOM     12  O   UNL     1      47.540   7.851  18.172  0.00  0.00    +0.000 OA
ATOM     13  C   UNL     1      49.443   6.440  17.967  0.00  0.00    +0.000 A 
ATOM     14  H   UNL     1      47.197   6.754  20.337  0.00  0.00    +0.000 HD
ENDBRANCH   2   4
BRANCH   1  15
ATOM     15  C   UNL     1      49.330   9.627  14.235  0.00  0.00    +0.000 C 
BRANCH  15  16
ATOM     16  C   UNL     1      50.214   9.846  12.994  0.00  0.00    +0.000 C 
BRANCH  16  18
ATOM     17  C   UNL     1      52.301  10.368  13.948  0.00  0.00    +0.000 C 
ATOM     18  O   UNL     1      51.173  10.879  13.244  0.00  0.00    +0.000 OA
ENDBRANCH  16  18
ENDBRANCH  15  16
ENDBRANCH   1  15
BRANCH   1  19
ATOM     19  C   UNL     1      49.181   7.082  14.068  0.00  0.00    +0.000 C 
BRANCH  19  20
ATOM     20  C   UNL     1      47.805   6.715  13.574  0.00  0.00    +0.000 A 
ATOM     21  C   UNL     1      47.210   7.486  12.562  0.00  0.00    +0.000 A 
ATOM     22  C   UNL     1      46.126   6.992  11.833  0.00  0.00    +0.000 A 
ATOM     23  C   UNL     1      45.596   5.727  12.116  0.00  0.00    +0.000 A 
ATOM     24  C   UNL     1      46.128   5.004  13.200  0.00  0.00    +0.000 A 
ATOM     25  C   UNL     1      47.220   5.493  13.923  0.00  0.00    +0.000 A 
BRANCH  23  26
ATOM     26  C   UNL     1      44.489   5.154  11.241  0.00  0.00    +0.000 C 
BRANCH  26  27
ATOM     27  C   UNL     1      44.966   4.280  10.094  0.00  0.00    +0.000 A 
ATOM     28  C   UNL     1      45.656   4.835   9.001  0.00  0.00    +0.000 A 
ATOM     29  C   UNL     1      46.026   4.046   7.914  0.00  0.00    +0.000 A 
ATOM     30  C   UNL     1      45.754   2.682   7.918  0.00  0.00    +0.000 A 
ATOM     31  C   UNL     1      45.138   2.099   9.024  0.00  0.00    +0.000 A 
ATOM     32  C   UNL     1      44.755   2.891  10.107  0.00  0.00    +0.000 A 
ENDBRANCH  26  27
BRANCH  26  33
ATOM     33  O   UNL     1      43.699   6.235  10.726  0.00  0.00    +0.000 OA
ATOM     34  H   UNL     1      42.983   5.851  10.194  0.00  0.00    +0.000 HD
ENDBRANCH  26  33
ENDBRANCH  23  26
ENDBRANCH  19  20
ENDBRANCH   1  19
TORSDOF 9
ENDMDL
MODEL 9
REMARK VINA RESULT:    -5.719      2.132      4.694
REMARK INTER + INTRA:         -10.280
REMARK INTER:                  -8.649
REMARK INTRA:                  -1.631
REMARK UNBOUND:                -1.720
REMARK  Name = 
REMARK  10 active torsions:
REMARK  status: ('A' for Active; 'I' for Inactive)
REMARK    1  A    between atoms: C_1  and  O_2
REMARK    2  A    between atoms: O_2  and  C_3
REMARK    3  A    between atoms: C_3  and  C_4
REMARK    4  A    between atoms: C_4  and  N_5
REMARK    5  A    between atoms: N_5  and  C_6
REMARK    6  A    between atoms: C_6  and  C_7
REMARK    7  A    between atoms: C_10  and  C_11
REMARK    8  A    between atoms: C_11  and  O_12
REMARK    9  A    between atoms: C_11  and  C_13
REMARK   10  A    between atoms: C_21  and  C_23
REMARK                            x       y       z     vdW  Elec       q    Type
REMARK                         _______ _______ _______ _____ _____    ______ ____
ROOT
ATOM      1  N   UNL     1      45.732   5.135  12.262  0.00  0.00    +0.000 N 
ATOM      2  C   UNL     1      45.766   6.106  11.234  0.00  0.00    +0.000 C 
ATOM      3  O   UNL     1      45.727   5.768  10.052  0.00  0.00    +0.000 OA
ENDROOT
BRANCH   2   4
ATOM      4  C   UNL     1      45.898   7.545  11.549  0.00  0.00    +0.000 A 
ATOM      5  C   UNL     1      44.863   8.467  11.613  0.00  0.00    +0.000 A 
ATOM      6  S   UNL     1      45.357  10.034  12.078  0.00  0.00    +0.000 S 
ATOM      7  C   UNL     1      46.933   9.493  12.391  0.00  0.00    +0.000 A 
ATOM      8  N   UNL     1      47.854  10.316  12.956  0.00  0.00    +0.000 NA
ATOM      9  C   UNL     1      48.985   9.748  13.214  0.00  0.00    +0.000 A 
ATOM     10  N   UNL     1      49.289   8.443  12.912  0.00  0.00    +0.000 N 
ATOM     11  C   UNL     1      48.448   7.625  12.198  0.00  0.00    +0.000 A 
ATOM     12  O   UNL     1      48.846   6.575  11.710  0.00  0.00    +0.000 OA
ATOM     13  C   UNL     1      47.114   8.174  12.021  0.00  0.00    +0.000 A 
ATOM     14  H   UNL     1      50.221   8.082  13.069  0.00  0.00    +0.000 HD
ENDBRANCH   2   4
BRANCH   1  15
ATOM     15  C   UNL     1      45.690   3.725  11.837  0.00  0.00    +0.000 C 
BRANCH  15  16
ATOM     16  C   UNL     1      44.313   3.060  12.013  0.00  0.00    +0.000 C 
BRANCH  16  18
ATOM     17  C   UNL     1      44.547   2.544   9.728  0.00  0.00    +0.000 C 
ATOM     18  O   UNL     1      43.646   2.960  10.750  0.00  0.00    +0.000 OA
ENDBRANCH  16  18
ENDBRANCH  15  16
ENDBRANCH   1  15
BRANCH   1  19
ATOM     19  C   UNL     1      45.811   5.502  13.670  0.00  0.00    +0.000 C 
BRANCH  19  20
ATOM     20  C   UNL     1      46.887   4.999  14.598  0.00  0.00    +0.000 A 
ATOM     21  C   UNL     1      47.807   5.911  15.141  0.00  0.00    +0.000 A 
ATOM     22  C   UNL     1      48.574   5.569  16.257  0.00  0.00    +0.000 A 
ATOM     23  C   UNL     1      48.458   4.301  16.839  0.00  0.00    +0.000 A 
ATOM     24  C   UNL     1      47.614   3.356  16.226  0.00  0.00    +0.000 A 
ATOM     25  C   UNL     1      46.836   3.701  15.116  0.00  0.00    +0.000 A 
BRANCH  23  26
ATOM     26  C   UNL     1      49.216   3.981  18.122  0.00  0.00    +0.000 C 
BRANCH  26  27
ATOM     27  C   UNL     1      50.553   3.288  17.919  0.00  0.00    +0.000 A 
ATOM     28  C   UNL     1      50.616   1.951  17.489  0.00  0.00    +0.000 A 
ATOM     29  C   UNL     1      51.839   1.293  17.378  0.00  0.00    +0.000 A 
ATOM     30  C   UNL     1      53.023   1.971  17.652  0.00  0.00    +0.000 A 
ATOM     31  C   UNL     1      52.986   3.317  18.007  0.00  0.00    +0.000 A 
ATOM     32  C   UNL     1      51.761   3.973  18.131  0.00  0.00    +0.000 A 
ENDBRANCH  26  27
BRANCH  26  33
ATOM     33  O   UNL     1      48.380   3.176  18.966  0.00  0.00    +0.000 OA
ATOM     34  H   UNL     1      48.943   2.509  19.389  0.00  0.00    +0.000 HD
ENDBRANCH  26  33
ENDBRANCH  23  26
ENDBRANCH  19  20
ENDBRANCH   1  19
TORSDOF 9
ENDMDL
