MODEL 1
REMARK VINA RESULT:    -9.278      0.000      0.000
REMARK INTER + INTRA:         -13.811
REMARK INTER:                 -12.533
REMARK INTRA:                  -1.279
REMARK UNBOUND:                -1.279
REMARK  Name = 
REMARK  6 active torsions:
REMARK  status: ('A' for Active; 'I' for Inactive)
REMARK    1  A    between atoms: C_2  and  C_4
REMARK    2  A    between atoms: C_7  and  O_8
REMARK    3  A    between atoms: O_8  and  C_9
REMARK    4  A    between atoms: C_9  and  C_10
REMARK    5  A    between atoms: C_10  and  C_13
REMARK    6  A    between atoms: C_17  and  C_18
REMARK                            x       y       z     vdW  Elec       q    Type
REMARK                         _______ _______ _______ _____ _____    ______ ____
ROOT
ATOM      1  C   UNL     1      43.736   5.055  12.071  0.00  0.00    +0.000 C 
ATOM      2  F   UNL     1      43.185   5.892  11.143  0.00  0.00    +0.000 F 
ATOM      3  F   UNL     1      42.925   5.135  13.167  0.00  0.00    +0.000 F 
ENDROOT
BRANCH   1   4
ATOM      4  C   UNL     1      45.167   5.447  12.397  0.00  0.00    +0.000 A 
ATOM      5  C   UNL     1      45.906   6.242  11.514  0.00  0.00    +0.000 A 
ATOM      6  C   UNL     1      47.202   6.626  11.839  0.00  0.00    +0.000 A 
ATOM      7  C   UNL     1      47.765   6.231  13.056  0.00  0.00    +0.000 A 
ATOM      8  C   UNL     1      47.046   5.455  13.984  0.00  0.00    +0.000 A 
ATOM      9  C   UNL     1      45.746   5.058  13.619  0.00  0.00    +0.000 A 
BRANCH   8  10
ATOM     10  C   UNL     1      47.613   5.113  15.309  0.00  0.00    +0.000 A 
ATOM     11  C   UNL     1      48.604   5.895  15.921  0.00  0.00    +0.000 A 
ATOM     12  C   UNL     1      49.131   5.496  17.143  0.00  0.00    +0.000 A 
ATOM     13  N   UNL     1      48.742   4.391  17.806  0.00  0.00    +0.000 NA
ATOM     14  C   UNL     1      47.783   3.653  17.216  0.00  0.00    +0.000 A 
ATOM     15  F   UNL     1      47.375   2.545  17.848  0.00  0.00    +0.000 F 
ATOM     16  C   UNL     1      47.204   3.964  15.996  0.00  0.00    +0.000 A 
ENDBRANCH   8  10
ENDBRANCH   1   4
BRANCH   1  17
ATOM     17  C   UNL     1      43.703   3.617  11.528  0.00  0.00    +0.000 C 
BRANCH  17  18
ATOM     18  O   UNL     1      43.401   3.612  10.127  0.00  0.00    +0.000 OA
BRANCH  18  22
ATOM     19  C   UNL     1      46.554   2.605   7.590  0.00  0.00    +0.000 A 
ATOM     20  C   UNL     1      46.145   3.941   7.643  0.00  0.00    +0.000 A 
ATOM     21  C   UNL     1      45.091   4.323   8.484  0.00  0.00    +0.000 A 
ATOM     22  C   UNL     1      44.441   3.372   9.272  0.00  0.00    +0.000 A 
ATOM     23  C   UNL     1      44.849   2.037   9.209  0.00  0.00    +0.000 A 
ATOM     24  C   UNL     1      45.896   1.650   8.370  0.00  0.00    +0.000 A 
BRANCH  19  26
ATOM     25  N   UNL     1      47.940   2.939   5.614  0.00  0.00    +0.000 N 
ATOM     26  C   UNL     1      47.659   2.160   6.703  0.00  0.00    +0.000 C 
ATOM     27  O   UNL     1      48.318   1.158   6.947  0.00  0.00    +0.000 OA
ATOM     28  H   UNL     1      48.764   2.682   5.085  0.00  0.00    +0.000 HD
ATOM     29  H   UNL     1      47.605   3.888   5.528  0.00  0.00    +0.000 HD
ENDBRANCH  19  26
ENDBRANCH  18  22
ENDBRANCH  17  18
ENDBRANCH   1  17
TORSDOF 6
ENDMDL
MODEL 2
REMARK VINA RESULT:    -9.014      2.719      4.028
REMARK INTER + INTRA:         -13.455
REMARK INTER:                 -12.264
REMARK INTRA:                  -1.191
REMARK UNBOUND:                -1.279
REMARK  Name = 
REMARK  6 active torsions:
REMARK  status: ('A' for Active; 'I' for Inactive)
REMARK    1  A    between atoms: C_2  and  C_4
REMARK    2  A    between atoms: C_7  and  O_8
REMARK    3  A    between atoms: O_8  and  C_9
REMARK    4  A    between atoms: C_9  and  C_10
REMARK    5  A    between atoms: C_10  and  C_13
REMARK    6  A    between atoms: C_17  and  C_18
REMARK                            x       y       z     vdW  Elec       q    Type
REMARK                         _______ _______ _______ _____ _____    ______ ____
ROOT
ATOM      1  C   UNL     1      43.420   5.341  12.280  0.00  0.00    +0.000 C 
ATOM      2  F   UNL     1      42.945   6.439  11.622  0.00  0.00    +0.000 F 
ATOM      3  F   UNL     1      42.606   5.180  13.364  0.00  0.00    +0.000 F 
ENDROOT
BRANCH   1   4
ATOM      4  C   UNL     1      44.873   5.519  12.685  0.00  0.00    +0.000 A 
ATOM      5  C   UNL     1      45.563   4.487  13.332  0.00  0.00    +0.000 A 
ATOM      6  C   UNL     1      46.904   4.646  13.664  0.00  0.00    +0.000 A 
ATOM      7  C   UNL     1      47.571   5.831  13.339  0.00  0.00    +0.000 A 
ATOM      8  C   UNL     1      46.921   6.881  12.664  0.00  0.00    +0.000 A 
ATOM      9  C   UNL     1      45.558   6.705  12.363  0.00  0.00    +0.000 A 
BRANCH   8  10
ATOM     10  C   UNL     1      47.653   8.098  12.244  0.00  0.00    +0.000 A 
ATOM     11  C   UNL     1      47.049   9.364  12.228  0.00  0.00    +0.000 A 
ATOM     12  C   UNL     1      47.772  10.461  11.778  0.00  0.00    +0.000 A 
ATOM     13  N   UNL     1      49.049  10.399  11.354  0.00  0.00    +0.000 NA
ATOM     14  C   UNL     1      49.624   9.182  11.383  0.00  0.00    +0.000 A 
ATOM     15  F   UNL     1      50.893   9.085  10.967  0.00  0.00    +0.000 F 
ATOM     16  C   UNL     1      48.981   8.029  11.807  0.00  0.00    +0.000 A 
ENDBRANCH   8  10
ENDBRANCH   1   4
BRANCH   1  17
ATOM     17  C   UNL     1      43.284   4.113  11.364  0.00  0.00    +0.000 C 
BRANCH  17  18
ATOM     18  O   UNL     1      43.510   4.475   9.997  0.00  0.00    +0.000 OA
BRANCH  18  22
ATOM     19  C   UNL     1      46.388   2.440   7.767  0.00  0.00    +0.000 A 
ATOM     20  C   UNL     1      45.555   1.699   8.612  0.00  0.00    +0.000 A 
ATOM     21  C   UNL     1      44.574   2.343   9.376  0.00  0.00    +0.000 A 
ATOM     22  C   UNL     1      44.422   3.728   9.302  0.00  0.00    +0.000 A 
ATOM     23  C   UNL     1      45.262   4.465   8.463  0.00  0.00    +0.000 A 
ATOM     24  C   UNL     1      46.245   3.829   7.702  0.00  0.00    +0.000 A 
BRANCH  19  26
ATOM     25  N   UNL     1      48.501   2.576   6.561  0.00  0.00    +0.000 N 
ATOM     26  C   UNL     1      47.447   1.795   6.950  0.00  0.00    +0.000 C 
ATOM     27  O   UNL     1      47.404   0.607   6.661  0.00  0.00    +0.000 OA
ATOM     28  H   UNL     1      49.264   2.094   6.102  0.00  0.00    +0.000 HD
ATOM     29  H   UNL     1      48.700   3.467   6.992  0.00  0.00    +0.000 HD
ENDBRANCH  19  26
ENDBRANCH  18  22
ENDBRANCH  17  18
ENDBRANCH   1  17
TORSDOF 6
ENDMDL
MODEL 3
REMARK VINA RESULT:    -8.298      2.316      2.871
REMARK INTER + INTRA:         -12.487
REMARK INTER:                 -11.365
REMARK INTRA:                  -1.123
REMARK UNBOUND:                -1.279
REMARK  Name = 
REMARK  6 active torsions:
REMARK  status: ('A' for Active; 'I' for Inactive)
REMARK    1  A    between atoms: C_2  and  C_4
REMARK    2  A    between atoms: C_7  and  O_8
REMARK    3  A    between atoms: O_8  and  C_9
REMARK    4  A    between atoms: C_9  and  C_10
REMARK    5  A    between atoms: C_10  and  C_13
REMARK    6  A    between atoms: C_17  and  C_18
REMARK                            x       y       z     vdW  Elec       q    Type
REMARK                         _______ _______ _______ _____ _____    ______ ____
ROOT
ATOM      1  C   UNL     1      43.859   4.867  12.349  0.00  0.00    +0.000 C 
ATOM      2  F   UNL     1      42.870   5.000  13.282  0.00  0.00    +0.000 F 
ATOM      3  F   UNL     1      44.590   3.782  12.739  0.00  0.00    +0.000 F 
ENDROOT
BRANCH   1   4
ATOM      4  C   UNL     1      44.712   6.120  12.256  0.00  0.00    +0.000 A 
ATOM      5  C   UNL     1      44.217   7.273  11.636  0.00  0.00    +0.000 A 
ATOM      6  C   UNL     1      44.991   8.427  11.589  0.00  0.00    +0.000 A 
ATOM      7  C   UNL     1      46.261   8.443  12.176  0.00  0.00    +0.000 A 
ATOM      8  C   UNL     1      46.783   7.314  12.832  0.00  0.00    +0.000 A 
ATOM      9  C   UNL     1      45.990   6.152  12.842  0.00  0.00    +0.000 A 
BRANCH   8  10
ATOM     10  C   UNL     1      48.090   7.361  13.528  0.00  0.00    +0.000 A 
ATOM     11  C   UNL     1      48.255   6.893  14.841  0.00  0.00    +0.000 A 
ATOM     12  C   UNL     1      49.494   7.008  15.457  0.00  0.00    +0.000 A 
ATOM     13  N   UNL     1      50.581   7.540  14.867  0.00  0.00    +0.000 NA
ATOM     14  C   UNL     1      50.417   7.976  13.605  0.00  0.00    +0.000 A 
ATOM     15  F   UNL     1      51.479   8.512  12.990  0.00  0.00    +0.000 F 
ATOM     16  C   UNL     1      49.219   7.912  12.911  0.00  0.00    +0.000 A 
ENDBRANCH   8  10
ENDBRANCH   1   4
BRANCH   1  17
ATOM     17  C   UNL     1      43.218   4.573  10.982  0.00  0.00    +0.000 C 
BRANCH  17  18
ATOM     18  O   UNL     1      43.557   3.254  10.538  0.00  0.00    +0.000 OA
BRANCH  18  22
ATOM     19  C   UNL     1      46.446   2.677   7.586  0.00  0.00    +0.000 A 
ATOM     20  C   UNL     1      45.977   3.975   7.812  0.00  0.00    +0.000 A 
ATOM     21  C   UNL     1      45.009   4.213   8.796  0.00  0.00    +0.000 A 
ATOM     22  C   UNL     1      44.503   3.157   9.555  0.00  0.00    +0.000 A 
ATOM     23  C   UNL     1      44.968   1.860   9.319  0.00  0.00    +0.000 A 
ATOM     24  C   UNL     1      45.931   1.616   8.336  0.00  0.00    +0.000 A 
BRANCH  19  26
ATOM     25  N   UNL     1      47.389   3.095   5.379  0.00  0.00    +0.000 N 
ATOM     26  C   UNL     1      47.463   2.383   6.544  0.00  0.00    +0.000 C 
ATOM     27  O   UNL     1      48.353   1.564   6.726  0.00  0.00    +0.000 OA
ATOM     28  H   UNL     1      48.153   2.962   4.728  0.00  0.00    +0.000 HD
ATOM     29  H   UNL     1      46.847   3.944   5.298  0.00  0.00    +0.000 HD
ENDBRANCH  19  26
ENDBRANCH  18  22
ENDBRANCH  17  18
ENDBRANCH   1  17
TORSDOF 6
ENDMDL
MODEL 4
REMARK VINA RESULT:    -7.881      3.156      4.254
REMARK INTER + INTRA:         -11.925
REMARK INTER:                 -10.769
REMARK INTRA:                  -1.156
REMARK UNBOUND:                -1.279
REMARK  Name = 
REMARK  6 active torsions:
REMARK  status: ('A' for Active; 'I' for Inactive)
REMARK    1  A    between atoms: C_2  and  C_4
REMARK    2  A    between atoms: C_7  and  O_8
REMARK    3  A    between atoms: O_8  and  C_9
REMARK    4  A    between atoms: C_9  and  C_10
REMARK    5  A    between atoms: C_10  and  C_13
REMARK    6  A    between atoms: C_17  and  C_18
REMARK                            x       y       z     vdW  Elec       q    Type
REMARK                         _______ _______ _______ _____ _____    ______ ____
ROOT
ATOM      1  C   UNL     1      45.401   4.756  12.591  0.00  0.00    +0.000 C 
ATOM      2  F   UNL     1      45.223   4.438  13.907  0.00  0.00    +0.000 F 
ATOM      3  F   UNL     1      46.396   3.935  12.144  0.00  0.00    +0.000 F 
ENDROOT
BRANCH   1   4
ATOM      4  C   UNL     1      45.755   6.222  12.413  0.00  0.00    +0.000 A 
ATOM      5  C   UNL     1      44.798   7.218  12.639  0.00  0.00    +0.000 A 
ATOM      6  C   UNL     1      45.143   8.559  12.510  0.00  0.00    +0.000 A 
ATOM      7  C   UNL     1      46.451   8.916  12.171  0.00  0.00    +0.000 A 
ATOM      8  C   UNL     1      47.449   7.947  11.963  0.00  0.00    +0.000 A 
ATOM      9  C   UNL     1      47.068   6.597  12.073  0.00  0.00    +0.000 A 
BRANCH   8  10
ATOM     10  C   UNL     1      48.854   8.331  11.690  0.00  0.00    +0.000 A 
ATOM     11  C   UNL     1      49.307   9.652  11.828  0.00  0.00    +0.000 A 
ATOM     12  C   UNL     1      50.624   9.959  11.511  0.00  0.00    +0.000 A 
ATOM     13  N   UNL     1      51.525   9.056  11.081  0.00  0.00    +0.000 NA
ATOM     14  C   UNL     1      51.084   7.789  10.962  0.00  0.00    +0.000 A 
ATOM     15  F   UNL     1      51.955   6.867  10.534  0.00  0.00    +0.000 F 
ATOM     16  C   UNL     1      49.788   7.388  11.245  0.00  0.00    +0.000 A 
ENDBRANCH   8  10
ENDBRANCH   1   4
BRANCH   1  17
ATOM     17  C   UNL     1      44.107   4.439  11.822  0.00  0.00    +0.000 C 
BRANCH  17  18
ATOM     18  O   UNL     1      44.220   4.846  10.453  0.00  0.00    +0.000 OA
BRANCH  18  22
ATOM     19  C   UNL     1      46.447   2.540   7.784  0.00  0.00    +0.000 A 
ATOM     20  C   UNL     1      45.649   1.882   8.725  0.00  0.00    +0.000 A 
ATOM     21  C   UNL     1      44.883   2.618   9.638  0.00  0.00    +0.000 A 
ATOM     22  C   UNL     1      44.914   4.014   9.617  0.00  0.00    +0.000 A 
ATOM     23  C   UNL     1      45.720   4.667   8.680  0.00  0.00    +0.000 A 
ATOM     24  C   UNL     1      46.489   3.937   7.770  0.00  0.00    +0.000 A 
BRANCH  19  26
ATOM     25  N   UNL     1      48.391   2.428   6.320  0.00  0.00    +0.000 N 
ATOM     26  C   UNL     1      47.281   1.795   6.807  0.00  0.00    +0.000 C 
ATOM     27  O   UNL     1      47.013   0.649   6.473  0.00  0.00    +0.000 OA
ATOM     28  H   UNL     1      49.006   1.866   5.744  0.00  0.00    +0.000 HD
ATOM     29  H   UNL     1      48.783   3.248   6.761  0.00  0.00    +0.000 HD
ENDBRANCH  19  26
ENDBRANCH  18  22
ENDBRANCH  17  18
ENDBRANCH   1  17
TORSDOF 6
ENDMDL
MODEL 5
REMARK VINA RESULT:    -7.809      2.797      8.013
REMARK INTER + INTRA:         -11.827
REMARK INTER:                 -10.782
REMARK INTRA:                  -1.045
REMARK UNBOUND:                -1.279
REMARK  Name = 
REMARK  6 active torsions:
REMARK  status: ('A' for Active; 'I' for Inactive)
REMARK    1  A    between atoms: C_2  and  C_4
REMARK    2  A    between atoms: C_7  and  O_8
REMARK    3  A    between atoms: O_8  and  C_9
REMARK    4  A    between atoms: C_9  and  C_10
REMARK    5  A    between atoms: C_10  and  C_13
REMARK    6  A    between atoms: C_17  and  C_18
REMARK                            x       y       z     vdW  Elec       q    Type
REMARK                         _______ _______ _______ _____ _____    ______ ____
ROOT
ATOM      1  C   UNL     1      44.860   6.561  11.409  0.00  0.00    +0.000 C 
ATOM      2  F   UNL     1      43.726   7.311  11.283  0.00  0.00    +0.000 F 
ATOM      3  F   UNL     1      45.789   7.157  10.605  0.00  0.00    +0.000 F 
ENDROOT
BRANCH   1   4
ATOM      4  C   UNL     1      44.618   5.113  11.017  0.00  0.00    +0.000 A 
ATOM      5  C   UNL     1      43.647   4.351  11.676  0.00  0.00    +0.000 A 
ATOM      6  C   UNL     1      43.407   3.038  11.284  0.00  0.00    +0.000 A 
ATOM      7  C   UNL     1      44.125   2.482  10.221  0.00  0.00    +0.000 A 
ATOM      8  C   UNL     1      45.089   3.224   9.515  0.00  0.00    +0.000 A 
ATOM      9  C   UNL     1      45.331   4.540   9.948  0.00  0.00    +0.000 A 
BRANCH   8  10
ATOM     10  C   UNL     1      45.784   2.661   8.334  0.00  0.00    +0.000 A 
ATOM     11  C   UNL     1      46.229   1.331   8.293  0.00  0.00    +0.000 A 
ATOM     12  C   UNL     1      46.917   0.874   7.177  0.00  0.00    +0.000 A 
ATOM     13  N   UNL     1      47.185   1.632   6.096  0.00  0.00    +0.000 NA
ATOM     14  C   UNL     1      46.744   2.903   6.139  0.00  0.00    +0.000 A 
ATOM     15  F   UNL     1      46.996   3.683   5.081  0.00  0.00    +0.000 F 
ATOM     16  C   UNL     1      46.058   3.451   7.211  0.00  0.00    +0.000 A 
ENDBRANCH   8  10
ENDBRANCH   1   4
BRANCH   1  17
ATOM     17  C   UNL     1      45.344   6.629  12.867  0.00  0.00    +0.000 C 
BRANCH  17  18
ATOM     18  O   UNL     1      46.761   6.436  12.939  0.00  0.00    +0.000 OA
BRANCH  18  22
ATOM     19  C   UNL     1      48.094   4.537  16.405  0.00  0.00    +0.000 A 
ATOM     20  C   UNL     1      48.628   5.790  16.087  0.00  0.00    +0.000 A 
ATOM     21  C   UNL     1      48.206   6.463  14.934  0.00  0.00    +0.000 A 
ATOM     22  C   UNL     1      47.252   5.887  14.092  0.00  0.00    +0.000 A 
ATOM     23  C   UNL     1      46.729   4.631  14.409  0.00  0.00    +0.000 A 
ATOM     24  C   UNL     1      47.150   3.953  15.556  0.00  0.00    +0.000 A 
BRANCH  19  26
ATOM     25  N   UNL     1      47.884   4.070  18.787  0.00  0.00    +0.000 N 
ATOM     26  C   UNL     1      48.525   3.787  17.612  0.00  0.00    +0.000 C 
ATOM     27  O   UNL     1      49.393   2.926  17.561  0.00  0.00    +0.000 OA
ATOM     28  H   UNL     1      48.113   3.473  19.572  0.00  0.00    +0.000 HD
ATOM     29  H   UNL     1      47.006   4.567  18.817  0.00  0.00    +0.000 HD
ENDBRANCH  19  26
ENDBRANCH  18  22
ENDBRANCH  17  18
ENDBRANCH   1  17
TORSDOF 6
ENDMDL
MODEL 6
REMARK VINA RESULT:    -7.752      1.912      2.304
REMARK INTER + INTRA:         -11.750
REMARK INTER:                 -10.588
REMARK INTRA:                  -1.162
REMARK UNBOUND:                -1.279
REMARK  Name = 
REMARK  6 active torsions:
REMARK  status: ('A' for Active; 'I' for Inactive)
REMARK    1  A    between atoms: C_2  and  C_4
REMARK    2  A    between atoms: C_7  and  O_8
REMARK    3  A    between atoms: O_8  and  C_9
REMARK    4  A    between atoms: C_9  and  C_10
REMARK    5  A    between atoms: C_10  and  C_13
REMARK    6  A    between atoms: C_17  and  C_18
REMARK                            x       y       z     vdW  Elec       q    Type
REMARK                         _______ _______ _______ _____ _____    ______ ____
ROOT
ATOM      1  C   UNL     1      44.947   4.625  12.633  0.00  0.00    +0.000 C 
ATOM      2  F   UNL     1      44.065   4.890  13.642  0.00  0.00    +0.000 F 
ATOM      3  F   UNL     1      45.278   3.308  12.769  0.00  0.00    +0.000 F 
ENDROOT
BRANCH   1   4
ATOM      4  C   UNL     1      46.168   5.526  12.709  0.00  0.00    +0.000 A 
ATOM      5  C   UNL     1      46.458   6.419  11.671  0.00  0.00    +0.000 A 
ATOM      6  C   UNL     1      47.557   7.266  11.767  0.00  0.00    +0.000 A 
ATOM      7  C   UNL     1      48.366   7.238  12.908  0.00  0.00    +0.000 A 
ATOM      8  C   UNL     1      48.092   6.374  13.984  0.00  0.00    +0.000 A 
ATOM      9  C   UNL     1      46.990   5.510  13.850  0.00  0.00    +0.000 A 
BRANCH   8  10
ATOM     10  C   UNL     1      48.899   6.409  15.226  0.00  0.00    +0.000 A 
ATOM     11  C   UNL     1      48.516   5.715  16.384  0.00  0.00    +0.000 A 
ATOM     12  C   UNL     1      49.289   5.824  17.533  0.00  0.00    +0.000 A 
ATOM     13  N   UNL     1      50.414   6.558  17.616  0.00  0.00    +0.000 NA
ATOM     14  C   UNL     1      50.780   7.211  16.497  0.00  0.00    +0.000 A 
ATOM     15  F   UNL     1      51.894   7.952  16.546  0.00  0.00    +0.000 F 
ATOM     16  C   UNL     1      50.070   7.171  15.307  0.00  0.00    +0.000 A 
ENDBRANCH   8  10
ENDBRANCH   1   4
BRANCH   1  17
ATOM     17  C   UNL     1      44.237   4.827  11.284  0.00  0.00    +0.000 C 
BRANCH  17  18
ATOM     18  O   UNL     1      44.150   3.589  10.569  0.00  0.00    +0.000 OA
BRANCH  18  22
ATOM     19  C   UNL     1      46.587   2.885   7.258  0.00  0.00    +0.000 A 
ATOM     20  C   UNL     1      46.317   4.210   7.614  0.00  0.00    +0.000 A 
ATOM     21  C   UNL     1      45.506   4.491   8.721  0.00  0.00    +0.000 A 
ATOM     22  C   UNL     1      44.958   3.450   9.474  0.00  0.00    +0.000 A 
ATOM     23  C   UNL     1      45.224   2.128   9.108  0.00  0.00    +0.000 A 
ATOM     24  C   UNL     1      46.029   1.843   8.002  0.00  0.00    +0.000 A 
BRANCH  19  26
ATOM     25  N   UNL     1      48.765   2.337   6.313  0.00  0.00    +0.000 N 
ATOM     26  C   UNL     1      47.433   2.548   6.085  0.00  0.00    +0.000 C 
ATOM     27  O   UNL     1      46.960   2.429   4.962  0.00  0.00    +0.000 OA
ATOM     28  H   UNL     1      49.302   2.000   5.524  0.00  0.00    +0.000 HD
ATOM     29  H   UNL     1      49.134   2.168   7.238  0.00  0.00    +0.000 HD
ENDBRANCH  19  26
ENDBRANCH  18  22
ENDBRANCH  17  18
ENDBRANCH   1  17
TORSDOF 6
ENDMDL
MODEL 7
REMARK VINA RESULT:    -7.630      3.765      7.453
REMARK INTER + INTRA:         -11.586
REMARK INTER:                 -10.690
REMARK INTRA:                  -0.895
REMARK UNBOUND:                -1.279
REMARK  Name = 
REMARK  6 active torsions:
REMARK  status: ('A' for Active; 'I' for Inactive)
REMARK    1  A    between atoms: C_2  and  C_4
REMARK    2  A    between atoms: C_7  and  O_8
REMARK    3  A    between atoms: O_8  and  C_9
REMARK    4  A    between atoms: C_9  and  C_10
REMARK    5  A    between atoms: C_10  and  C_13
REMARK    6  A    between atoms: C_17  and  C_18
REMARK                            x       y       z     vdW  Elec       q    Type
REMARK                         _______ _______ _______ _____ _____    ______ ____
ROOT
ATOM      1  C   UNL     1      44.370   6.434  11.390  0.00  0.00    +0.000 C 
ATOM      2  F   UNL     1      43.148   7.032  11.271  0.00  0.00    +0.000 F 
ATOM      3  F   UNL     1      45.201   7.122  10.552  0.00  0.00    +0.000 F 
ENDROOT
BRANCH   1   4
ATOM      4  C   UNL     1      44.307   4.958  11.038  0.00  0.00    +0.000 A 
ATOM      5  C   UNL     1      43.455   4.096  11.737  0.00  0.00    +0.000 A 
ATOM      6  C   UNL     1      43.377   2.753  11.382  0.00  0.00    +0.000 A 
ATOM      7  C   UNL     1      44.137   2.266  10.314  0.00  0.00    +0.000 A 
ATOM      8  C   UNL     1      44.985   3.105   9.569  0.00  0.00    +0.000 A 
ATOM      9  C   UNL     1      45.065   4.453   9.966  0.00  0.00    +0.000 A 
BRANCH   8  10
ATOM     10  C   UNL     1      45.721   2.605   8.385  0.00  0.00    +0.000 A 
ATOM     11  C   UNL     1      46.244   1.304   8.326  0.00  0.00    +0.000 A 
ATOM     12  C   UNL     1      46.967   0.908   7.208  0.00  0.00    +0.000 A 
ATOM     13  N   UNL     1      47.199   1.699   6.143  0.00  0.00    +0.000 NA
ATOM     14  C   UNL     1      46.684   2.941   6.204  0.00  0.00    +0.000 A 
ATOM     15  F   UNL     1      46.899   3.754   5.162  0.00  0.00    +0.000 F 
ATOM     16  C   UNL     1      45.958   3.429   7.279  0.00  0.00    +0.000 A 
ENDBRANCH   8  10
ENDBRANCH   1   4
BRANCH   1  17
ATOM     17  C   UNL     1      44.868   6.601  12.836  0.00  0.00    +0.000 C 
BRANCH  17  18
ATOM     18  O   UNL     1      45.592   7.828  12.983  0.00  0.00    +0.000 OA
BRANCH  18  22
ATOM     19  C   UNL     1      49.638   8.002  11.989  0.00  0.00    +0.000 A 
ATOM     20  C   UNL     1      49.143   6.821  12.550  0.00  0.00    +0.000 A 
ATOM     21  C   UNL     1      47.789   6.720  12.896  0.00  0.00    +0.000 A 
ATOM     22  C   UNL     1      46.927   7.797  12.687  0.00  0.00    +0.000 A 
ATOM     23  C   UNL     1      47.429   8.978  12.133  0.00  0.00    +0.000 A 
ATOM     24  C   UNL     1      48.779   9.086  11.790  0.00  0.00    +0.000 A 
BRANCH  19  26
ATOM     25  N   UNL     1      51.589   7.238  10.745  0.00  0.00    +0.000 N 
ATOM     26  C   UNL     1      51.069   8.152  11.620  0.00  0.00    +0.000 C 
ATOM     27  O   UNL     1      51.753   9.071  12.050  0.00  0.00    +0.000 OA
ATOM     28  H   UNL     1      52.530   7.420  10.420  0.00  0.00    +0.000 HD
ATOM     29  H   UNL     1      51.005   6.640  10.177  0.00  0.00    +0.000 HD
ENDBRANCH  19  26
ENDBRANCH  18  22
ENDBRANCH  17  18
ENDBRANCH   1  17
TORSDOF 6
ENDMDL
MODEL 8
REMARK VINA RESULT:    -7.630      2.927      7.851
REMARK INTER + INTRA:         -11.585
REMARK INTER:                 -10.492
REMARK INTRA:                  -1.093
REMARK UNBOUND:                -1.279
REMARK  Name = 
REMARK  6 active torsions:
REMARK  status: ('A' for Active; 'I' for Inactive)
REMARK    1  A    between atoms: C_2  and  C_4
REMARK    2  A    between atoms: C_7  and  O_8
REMARK    3  A    between atoms: O_8  and  C_9
REMARK    4  A    between atoms: C_9  and  C_10
REMARK    5  A    between atoms: C_10  and  C_13
REMARK    6  A    between atoms: C_17  and  C_18
REMARK                            x       y       z     vdW  Elec       q    Type
REMARK                         _______ _______ _______ _____ _____    ______ ____
ROOT
ATOM      1  C   UNL     1      45.884   7.447  11.995  0.00  0.00    +0.000 C 
ATOM      2  F   UNL     1      45.399   7.864  13.202  0.00  0.00    +0.000 F 
ATOM      3  F   UNL     1      45.843   8.544  11.182  0.00  0.00    +0.000 F 
ENDROOT
BRANCH   1   4
ATOM      4  C   UNL     1      45.067   6.296  11.433  0.00  0.00    +0.000 A 
ATOM      5  C   UNL     1      43.725   6.134  11.793  0.00  0.00    +0.000 A 
ATOM      6  C   UNL     1      42.976   5.099  11.243  0.00  0.00    +0.000 A 
ATOM      7  C   UNL     1      43.558   4.227  10.318  0.00  0.00    +0.000 A 
ATOM      8  C   UNL     1      44.897   4.373   9.909  0.00  0.00    +0.000 A 
ATOM      9  C   UNL     1      45.639   5.412  10.500  0.00  0.00    +0.000 A 
BRANCH   8  10
ATOM     10  C   UNL     1      45.485   3.503   8.865  0.00  0.00    +0.000 A 
ATOM     11  C   UNL     1      45.617   2.116   9.035  0.00  0.00    +0.000 A 
ATOM     12  C   UNL     1      46.220   1.360   8.039  0.00  0.00    +0.000 A 
ATOM     13  N   UNL     1      46.689   1.871   6.885  0.00  0.00    +0.000 NA
ATOM     14  C   UNL     1      46.548   3.200   6.725  0.00  0.00    +0.000 A 
ATOM     15  F   UNL     1      47.006   3.741   5.590  0.00  0.00    +0.000 F 
ATOM     16  C   UNL     1      45.969   4.038   7.665  0.00  0.00    +0.000 A 
ENDBRANCH   8  10
ENDBRANCH   1   4
BRANCH   1  17
ATOM     17  C   UNL     1      47.347   7.007  12.170  0.00  0.00    +0.000 C 
BRANCH  17  18
ATOM     18  O   UNL     1      47.787   7.238  13.514  0.00  0.00    +0.000 OA
BRANCH  18  22
ATOM     19  C   UNL     1      47.751   4.158  16.325  0.00  0.00    +0.000 A 
ATOM     20  C   UNL     1      47.078   3.960  15.114  0.00  0.00    +0.000 A 
ATOM     21  C   UNL     1      47.068   4.968  14.142  0.00  0.00    +0.000 A 
ATOM     22  C   UNL     1      47.725   6.178  14.375  0.00  0.00    +0.000 A 
ATOM     23  C   UNL     1      48.388   6.373  15.590  0.00  0.00    +0.000 A 
ATOM     24  C   UNL     1      48.398   5.373  16.565  0.00  0.00    +0.000 A 
BRANCH  19  26
ATOM     25  N   UNL     1      48.982   2.841  17.964  0.00  0.00    +0.000 N 
ATOM     26  C   UNL     1      47.774   3.117  17.385  0.00  0.00    +0.000 C 
ATOM     27  O   UNL     1      46.755   2.550  17.753  0.00  0.00    +0.000 OA
ATOM     28  H   UNL     1      48.960   2.213  18.758  0.00  0.00    +0.000 HD
ATOM     29  H   UNL     1      49.776   3.459  17.878  0.00  0.00    +0.000 HD
ENDBRANCH  19  26
ENDBRANCH  18  22
ENDBRANCH  17  18
ENDBRANCH   1  17
TORSDOF 6
ENDMDL
MODEL 9
REMARK VINA RESULT:    -7.261      3.824      7.969
REMARK INTER + INTRA:         -11.086
REMARK INTER:                  -9.770
REMARK INTRA:                  -1.316
REMARK UNBOUND:                -1.279
REMARK  Name = 
REMARK  6 active torsions:
REMARK  status: ('A' for Active; 'I' for Inactive)
REMARK    1  A    between atoms: C_2  and  C_4
REMARK    2  A    between atoms: C_7  and  O_8
REMARK    3  A    between atoms: O_8  and  C_9
REMARK    4  A    between atoms: C_9  and  C_10
REMARK    5  A    between atoms: C_10  and  C_13
REMARK    6  A    between atoms: C_17  and  C_18
REMARK                            x       y       z     vdW  Elec       q    Type
REMARK                         _______ _______ _______ _____ _____    ______ ____
ROOT
ATOM      1  C   UNL     1      49.062   8.210  12.075  0.00  0.00    +0.000 C 
ATOM      2  F   UNL     1      49.315   9.526  12.337  0.00  0.00    +0.000 F 
ATOM      3  F   UNL     1      49.685   7.943  10.890  0.00  0.00    +0.000 F 
ENDROOT
BRANCH   1   4
ATOM      4  C   UNL     1      47.570   7.931  12.006  0.00  0.00    +0.000 A 
ATOM      5  C   UNL     1      46.648   8.870  12.480  0.00  0.00    +0.000 A 
ATOM      6  C   UNL     1      45.283   8.622  12.377  0.00  0.00    +0.000 A 
ATOM      7  C   UNL     1      44.829   7.439  11.785  0.00  0.00    +0.000 A 
ATOM      8  C   UNL     1      45.723   6.482  11.271  0.00  0.00    +0.000 A 
ATOM      9  C   UNL     1      47.098   6.746  11.411  0.00  0.00    +0.000 A 
BRANCH   8  10
ATOM     10  C   UNL     1      45.239   5.272  10.566  0.00  0.00    +0.000 A 
ATOM     11  C   UNL     1      44.492   4.278  11.217  0.00  0.00    +0.000 A 
ATOM     12  C   UNL     1      44.107   3.144  10.514  0.00  0.00    +0.000 A 
ATOM     13  N   UNL     1      44.395   2.928   9.217  0.00  0.00    +0.000 NA
ATOM     14  C   UNL     1      45.101   3.892   8.598  0.00  0.00    +0.000 A 
ATOM     15  F   UNL     1      45.407   3.707   7.307  0.00  0.00    +0.000 F 
ATOM     16  C   UNL     1      45.538   5.053   9.216  0.00  0.00    +0.000 A 
ENDBRANCH   8  10
ENDBRANCH   1   4
BRANCH   1  17
ATOM     17  C   UNL     1      49.698   7.350  13.180  0.00  0.00    +0.000 C 
BRANCH  17  18
ATOM     18  O   UNL     1      49.221   7.751  14.470  0.00  0.00    +0.000 OA
BRANCH  18  22
ATOM     19  C   UNL     1      48.040   4.607  16.942  0.00  0.00    +0.000 A 
ATOM     20  C   UNL     1      49.011   5.495  17.416  0.00  0.00    +0.000 A 
ATOM     21  C   UNL     1      49.434   6.566  16.619  0.00  0.00    +0.000 A 
ATOM     22  C   UNL     1      48.893   6.753  15.346  0.00  0.00    +0.000 A 
ATOM     23  C   UNL     1      47.929   5.857  14.874  0.00  0.00    +0.000 A 
ATOM     24  C   UNL     1      47.506   4.785  15.663  0.00  0.00    +0.000 A 
BRANCH  19  26
ATOM     25  N   UNL     1      48.283   3.155  18.884  0.00  0.00    +0.000 N 
ATOM     26  C   UNL     1      47.574   3.453  17.753  0.00  0.00    +0.000 C 
ATOM     27  O   UNL     1      46.579   2.810  17.447  0.00  0.00    +0.000 OA
ATOM     28  H   UNL     1      47.888   2.439  19.480  0.00  0.00    +0.000 HD
ATOM     29  H   UNL     1      48.932   3.807  19.302  0.00  0.00    +0.000 HD
ENDBRANCH  19  26
ENDBRANCH  18  22
ENDBRANCH  17  18
ENDBRANCH   1  17
TORSDOF 6
ENDMDL
