MODEL 1
REMARK VINA RESULT:    -7.624      0.000      0.000
REMARK INTER + INTRA:         -10.215
REMARK INTER:                  -9.629
REMARK INTRA:                  -0.586
REMARK UNBOUND:                -0.586
REMARK  Name = 
REMARK  5 active torsions:
REMARK  status: ('A' for Active; 'I' for Inactive)
REMARK    1  A    between atoms: N_1  and  C_2
REMARK    2  A    between atoms: C_2  and  C_3
REMARK    3  A    between atoms: C_3  and  C_4
REMARK    4  A    between atoms: C_7  and  C_8
REMARK    5  A    between atoms: C_8  and  N_9
REMARK                            x       y       z     vdW  Elec       q    Type
REMARK                         _______ _______ _______ _____ _____    ______ ____
ROOT
ATOM      1  C   UNL     1      45.862   2.564   8.289  0.00  0.00    +0.000 A 
ATOM      2  C   UNL     1      44.979   1.985   9.207  0.00  0.00    +0.000 A 
ATOM      3  C   UNL     1      44.181   2.787  10.032  0.00  0.00    +0.000 A 
ATOM      4  C   UNL     1      44.264   4.187   9.976  0.00  0.00    +0.000 A 
ATOM      5  C   UNL     1      45.163   4.766   9.077  0.00  0.00    +0.000 A 
ATOM      6  C   UNL     1      45.949   3.966   8.245  0.00  0.00    +0.000 A 
ENDROOT
BRANCH   1   7
ATOM      7  C   UNL     1      46.791   1.756   7.406  0.00  0.00    +0.000 C 
BRANCH   7   8
ATOM      8  C   UNL     1      47.968   2.509   6.770  0.00  0.00    +0.000 C 
BRANCH   8   9
ATOM      9  N   UNL     1      48.471   1.788   5.601  0.00  0.00    +0.000 NA
ATOM     10  H   UNL     1      48.321   0.786   5.725  0.00  0.00    +0.000 HD
ATOM     11  H   UNL     1      49.483   1.914   5.528  0.00  0.00    +0.000 HD
ENDBRANCH   8   9
ENDBRANCH   7   8
ENDBRANCH   1   7
BRANCH   4  12
ATOM     12  C   UNL     1      43.363   5.050  10.819  0.00  0.00    +0.000 C 
BRANCH  12  13
ATOM     13  N   UNL     1      44.023   6.113  11.565  0.00  0.00    +0.000 N 
ATOM     14  C   UNL     1      44.072   7.433  11.196  0.00  0.00    +0.000 A 
ATOM     15  N   UNL     1      45.119   8.043  11.706  0.00  0.00    +0.000 NA
ATOM     16  C   UNL     1      45.755   7.096  12.466  0.00  0.00    +0.000 A 
ATOM     17  C   UNL     1      46.979   7.176  13.145  0.00  0.00    +0.000 A 
ATOM     18  C   UNL     1      47.410   6.053  13.850  0.00  0.00    +0.000 A 
ATOM     19  F   UNL     1      48.604   6.084  14.456  0.00  0.00    +0.000 F 
ATOM     20  C   UNL     1      46.640   4.897  13.933  0.00  0.00    +0.000 A 
ATOM     21  C   UNL     1      45.422   4.794  13.252  0.00  0.00    +0.000 A 
ATOM     22  C   UNL     1      45.032   5.904  12.487  0.00  0.00    +0.000 A 
ENDBRANCH  12  13
ENDBRANCH   4  12
TORSDOF 5
ENDMDL
MODEL 2
REMARK VINA RESULT:    -6.778      3.023      6.718
REMARK INTER + INTRA:          -9.147
REMARK INTER:                  -9.130
REMARK INTRA:                  -0.017
REMARK UNBOUND:                -0.586
REMARK  Name = 
REMARK  5 active torsions:
REMARK  status: ('A' for Active; 'I' for Inactive)
REMARK    1  A    between atoms: N_1  and  C_2
REMARK    2  A    between atoms: C_2  and  C_3
REMARK    3  A    between atoms: C_3  and  C_4
REMARK    4  A    between atoms: C_7  and  C_8
REMARK    5  A    between atoms: C_8  and  N_9
REMARK                            x       y       z     vdW  Elec       q    Type
REMARK                         _______ _______ _______ _____ _____    ______ ____
ROOT
ATOM      1  C   UNL     1      47.230   5.363  14.400  0.00  0.00    +0.000 A 
ATOM      2  C   UNL     1      47.537   6.390  13.499  0.00  0.00    +0.000 A 
ATOM      3  C   UNL     1      46.853   6.498  12.282  0.00  0.00    +0.000 A 
ATOM      4  C   UNL     1      45.864   5.569  11.924  0.00  0.00    +0.000 A 
ATOM      5  C   UNL     1      45.574   4.530  12.812  0.00  0.00    +0.000 A 
ATOM      6  C   UNL     1      46.247   4.431  14.032  0.00  0.00    +0.000 A 
ENDROOT
BRANCH   1   7
ATOM      7  C   UNL     1      47.967   5.158  15.707  0.00  0.00    +0.000 C 
BRANCH   7   8
ATOM      8  C   UNL     1      47.401   4.095  16.659  0.00  0.00    +0.000 C 
BRANCH   8   9
ATOM      9  N   UNL     1      46.773   4.723  17.821  0.00  0.00    +0.000 NA
ATOM     10  H   UNL     1      45.791   4.915  17.618  0.00  0.00    +0.000 HD
ATOM     11  H   UNL     1      47.207   5.632  17.997  0.00  0.00    +0.000 HD
ENDBRANCH   8   9
ENDBRANCH   7   8
ENDBRANCH   1   7
BRANCH   4  12
ATOM     12  C   UNL     1      45.088   5.720  10.644  0.00  0.00    +0.000 C 
BRANCH  12  13
ATOM     13  N   UNL     1      44.650   4.479  10.019  0.00  0.00    +0.000 N 
ATOM     14  C   UNL     1      43.807   3.557  10.585  0.00  0.00    +0.000 A 
ATOM     15  N   UNL     1      43.997   2.354  10.090  0.00  0.00    +0.000 NA
ATOM     16  C   UNL     1      44.973   2.503   9.140  0.00  0.00    +0.000 A 
ATOM     17  C   UNL     1      45.632   1.527   8.380  0.00  0.00    +0.000 A 
ATOM     18  C   UNL     1      46.604   1.948   7.474  0.00  0.00    +0.000 A 
ATOM     19  F   UNL     1      47.290   1.031   6.781  0.00  0.00    +0.000 F 
ATOM     20  C   UNL     1      46.890   3.296   7.277  0.00  0.00    +0.000 A 
ATOM     21  C   UNL     1      46.252   4.284   8.035  0.00  0.00    +0.000 A 
ATOM     22  C   UNL     1      45.327   3.844   8.994  0.00  0.00    +0.000 A 
ENDBRANCH  12  13
ENDBRANCH   4  12
TORSDOF 5
ENDMDL
MODEL 3
REMARK VINA RESULT:    -6.743      2.817      6.234
REMARK INTER + INTRA:          -9.103
REMARK INTER:                  -8.546
REMARK INTRA:                  -0.556
REMARK UNBOUND:                -0.586
REMARK  Name = 
REMARK  5 active torsions:
REMARK  status: ('A' for Active; 'I' for Inactive)
REMARK    1  A    between atoms: N_1  and  C_2
REMARK    2  A    between atoms: C_2  and  C_3
REMARK    3  A    between atoms: C_3  and  C_4
REMARK    4  A    between atoms: C_7  and  C_8
REMARK    5  A    between atoms: C_8  and  N_9
REMARK                            x       y       z     vdW  Elec       q    Type
REMARK                         _______ _______ _______ _____ _____    ______ ____
ROOT
ATOM      1  C   UNL     1      47.674   6.344  13.273  0.00  0.00    +0.000 A 
ATOM      2  C   UNL     1      46.753   5.381  13.704  0.00  0.00    +0.000 A 
ATOM      3  C   UNL     1      45.546   5.192  13.020  0.00  0.00    +0.000 A 
ATOM      4  C   UNL     1      45.218   5.978  11.905  0.00  0.00    +0.000 A 
ATOM      5  C   UNL     1      46.125   6.956  11.488  0.00  0.00    +0.000 A 
ATOM      6  C   UNL     1      47.335   7.134  12.163  0.00  0.00    +0.000 A 
ENDROOT
BRANCH   1   7
ATOM      7  C   UNL     1      48.971   6.635  13.998  0.00  0.00    +0.000 C 
BRANCH   7   8
ATOM      8  C   UNL     1      48.885   6.833  15.518  0.00  0.00    +0.000 C 
BRANCH   8   9
ATOM      9  N   UNL     1      49.268   5.609  16.220  0.00  0.00    +0.000 NA
ATOM     10  H   UNL     1      48.997   5.677  17.202  0.00  0.00    +0.000 HD
ATOM     11  H   UNL     1      50.286   5.513  16.215  0.00  0.00    +0.000 HD
ENDBRANCH   8   9
ENDBRANCH   7   8
ENDBRANCH   1   7
BRANCH   4  12
ATOM     12  C   UNL     1      43.949   5.734  11.133  0.00  0.00    +0.000 C 
BRANCH  12  13
ATOM     13  N   UNL     1      43.807   4.404  10.556  0.00  0.00    +0.000 N 
ATOM     14  C   UNL     1      43.256   3.316  11.186  0.00  0.00    +0.000 A 
ATOM     15  N   UNL     1      43.717   2.186  10.698  0.00  0.00    +0.000 NA
ATOM     16  C   UNL     1      44.570   2.547   9.689  0.00  0.00    +0.000 A 
ATOM     17  C   UNL     1      45.411   1.746   8.905  0.00  0.00    +0.000 A 
ATOM     18  C   UNL     1      46.194   2.371   7.935  0.00  0.00    +0.000 A 
ATOM     19  F   UNL     1      47.051   1.635   7.216  0.00  0.00    +0.000 F 
ATOM     20  C   UNL     1      46.118   3.741   7.700  0.00  0.00    +0.000 A 
ATOM     21  C   UNL     1      45.293   4.559   8.480  0.00  0.00    +0.000 A 
ATOM     22  C   UNL     1      44.564   3.929   9.501  0.00  0.00    +0.000 A 
ENDBRANCH  12  13
ENDBRANCH   4  12
TORSDOF 5
ENDMDL
MODEL 4
REMARK VINA RESULT:    -6.619      2.804      5.994
REMARK INTER + INTRA:          -8.946
REMARK INTER:                  -8.412
REMARK INTRA:                  -0.535
REMARK UNBOUND:                -0.586
REMARK  Name = 
REMARK  5 active torsions:
REMARK  status: ('A' for Active; 'I' for Inactive)
REMARK    1  A    between atoms: N_1  and  C_2
REMARK    2  A    between atoms: C_2  and  C_3
REMARK    3  A    between atoms: C_3  and  C_4
REMARK    4  A    between atoms: C_7  and  C_8
REMARK    5  A    between atoms: C_8  and  N_9
REMARK                            x       y       z     vdW  Elec       q    Type
REMARK                         _______ _______ _______ _____ _____    ______ ____
ROOT
ATOM      1  C   UNL     1      47.688   6.800  13.289  0.00  0.00    +0.000 A 
ATOM      2  C   UNL     1      47.125   7.736  12.412  0.00  0.00    +0.000 A 
ATOM      3  C   UNL     1      45.897   7.482  11.790  0.00  0.00    +0.000 A 
ATOM      4  C   UNL     1      45.213   6.276  12.010  0.00  0.00    +0.000 A 
ATOM      5  C   UNL     1      45.784   5.332  12.866  0.00  0.00    +0.000 A 
ATOM      6  C   UNL     1      47.003   5.591  13.497  0.00  0.00    +0.000 A 
ENDROOT
BRANCH   1   7
ATOM      7  C   UNL     1      49.036   6.988  13.952  0.00  0.00    +0.000 C 
BRANCH   7   8
ATOM      8  C   UNL     1      49.999   7.983  13.289  0.00  0.00    +0.000 C 
BRANCH   8   9
ATOM      9  N   UNL     1      50.609   7.395  12.097  0.00  0.00    +0.000 NA
ATOM     10  H   UNL     1      50.714   6.388  12.226  0.00  0.00    +0.000 HD
ATOM     11  H   UNL     1      51.555   7.764  11.977  0.00  0.00    +0.000 HD
ENDBRANCH   8   9
ENDBRANCH   7   8
ENDBRANCH   1   7
BRANCH   4  12
ATOM     12  C   UNL     1      43.863   6.029  11.389  0.00  0.00    +0.000 C 
BRANCH  12  13
ATOM     13  N   UNL     1      43.659   4.700  10.830  0.00  0.00    +0.000 N 
ATOM     14  C   UNL     1      43.055   3.649  11.474  0.00  0.00    +0.000 A 
ATOM     15  N   UNL     1      43.462   2.491  11.004  0.00  0.00    +0.000 NA
ATOM     16  C   UNL     1      44.335   2.796   9.992  0.00  0.00    +0.000 A 
ATOM     17  C   UNL     1      45.139   1.944   9.224  0.00  0.00    +0.000 A 
ATOM     18  C   UNL     1      45.953   2.517   8.247  0.00  0.00    +0.000 A 
ATOM     19  F   UNL     1      46.775   1.731   7.541  0.00  0.00    +0.000 F 
ATOM     20  C   UNL     1      45.944   3.886   7.992  0.00  0.00    +0.000 A 
ATOM     21  C   UNL     1      45.157   4.753   8.758  0.00  0.00    +0.000 A 
ATOM     22  C   UNL     1      44.396   4.174   9.785  0.00  0.00    +0.000 A 
ENDBRANCH  12  13
ENDBRANCH   4  12
TORSDOF 5
ENDMDL
MODEL 5
REMARK VINA RESULT:    -6.009      2.081      2.954
REMARK INTER + INTRA:          -8.176
REMARK INTER:                  -7.700
REMARK INTRA:                  -0.476
REMARK UNBOUND:                -0.586
REMARK  Name = 
REMARK  5 active torsions:
REMARK  status: ('A' for Active; 'I' for Inactive)
REMARK    1  A    between atoms: N_1  and  C_2
REMARK    2  A    between atoms: C_2  and  C_3
REMARK    3  A    between atoms: C_3  and  C_4
REMARK    4  A    between atoms: C_7  and  C_8
REMARK    5  A    between atoms: C_8  and  N_9
REMARK                            x       y       z     vdW  Elec       q    Type
REMARK                         _______ _______ _______ _____ _____    ______ ____
ROOT
ATOM      1  C   UNL     1      45.986   2.500   8.053  0.00  0.00    +0.000 A 
ATOM      2  C   UNL     1      45.260   1.985   9.134  0.00  0.00    +0.000 A 
ATOM      3  C   UNL     1      44.717   2.840  10.100  0.00  0.00    +0.000 A 
ATOM      4  C   UNL     1      44.907   4.228  10.024  0.00  0.00    +0.000 A 
ATOM      5  C   UNL     1      45.650   4.742   8.958  0.00  0.00    +0.000 A 
ATOM      6  C   UNL     1      46.180   3.889   7.987  0.00  0.00    +0.000 A 
ENDROOT
BRANCH   1   7
ATOM      7  C   UNL     1      46.644   1.629   7.004  0.00  0.00    +0.000 C 
BRANCH   7   8
ATOM      8  C   UNL     1      47.246   2.347   5.787  0.00  0.00    +0.000 C 
BRANCH   8   9
ATOM      9  N   UNL     1      48.640   1.952   5.592  0.00  0.00    +0.000 NA
ATOM     10  H   UNL     1      48.945   1.369   6.372  0.00  0.00    +0.000 HD
ATOM     11  H   UNL     1      49.239   2.781   5.609  0.00  0.00    +0.000 HD
ENDBRANCH   8   9
ENDBRANCH   7   8
ENDBRANCH   1   7
BRANCH   4  12
ATOM     12  C   UNL     1      44.271   5.152  11.029  0.00  0.00    +0.000 C 
BRANCH  12  13
ATOM     13  N   UNL     1      45.136   6.196  11.562  0.00  0.00    +0.000 N 
ATOM     14  C   UNL     1      46.006   6.051  12.612  0.00  0.00    +0.000 A 
ATOM     15  N   UNL     1      46.240   7.197  13.213  0.00  0.00    +0.000 NA
ATOM     16  C   UNL     1      45.527   8.129  12.505  0.00  0.00    +0.000 A 
ATOM     17  C   UNL     1      45.334   9.492  12.772  0.00  0.00    +0.000 A 
ATOM     18  C   UNL     1      44.550  10.227  11.885  0.00  0.00    +0.000 A 
ATOM     19  F   UNL     1      44.300  11.516  12.151  0.00  0.00    +0.000 F 
ATOM     20  C   UNL     1      44.008   9.658  10.736  0.00  0.00    +0.000 A 
ATOM     21  C   UNL     1      44.179   8.297  10.460  0.00  0.00    +0.000 A 
ATOM     22  C   UNL     1      44.911   7.550  11.396  0.00  0.00    +0.000 A 
ENDBRANCH  12  13
ENDBRANCH   4  12
TORSDOF 5
ENDMDL
MODEL 6
REMARK VINA RESULT:    -5.787      1.770      2.318
REMARK INTER + INTRA:          -7.896
REMARK INTER:                  -7.487
REMARK INTRA:                  -0.409
REMARK UNBOUND:                -0.586
REMARK  Name = 
REMARK  5 active torsions:
REMARK  status: ('A' for Active; 'I' for Inactive)
REMARK    1  A    between atoms: N_1  and  C_2
REMARK    2  A    between atoms: C_2  and  C_3
REMARK    3  A    between atoms: C_3  and  C_4
REMARK    4  A    between atoms: C_7  and  C_8
REMARK    5  A    between atoms: C_8  and  N_9
REMARK                            x       y       z     vdW  Elec       q    Type
REMARK                         _______ _______ _______ _____ _____    ______ ____
ROOT
ATOM      1  C   UNL     1      45.354   3.593   9.185  0.00  0.00    +0.000 A 
ATOM      2  C   UNL     1      44.873   3.047  10.381  0.00  0.00    +0.000 A 
ATOM      3  C   UNL     1      44.671   3.858  11.504  0.00  0.00    +0.000 A 
ATOM      4  C   UNL     1      44.966   5.229  11.467  0.00  0.00    +0.000 A 
ATOM      5  C   UNL     1      45.469   5.771  10.282  0.00  0.00    +0.000 A 
ATOM      6  C   UNL     1      45.658   4.964   9.158  0.00  0.00    +0.000 A 
ENDROOT
BRANCH   1   7
ATOM      7  C   UNL     1      45.646   2.765   7.952  0.00  0.00    +0.000 C 
BRANCH   7   8
ATOM      8  C   UNL     1      46.404   3.463   6.813  0.00  0.00    +0.000 C 
BRANCH   8   9
ATOM      9  N   UNL     1      47.819   3.092   6.831  0.00  0.00    +0.000 NA
ATOM     10  H   UNL     1      48.325   3.700   7.476  0.00  0.00    +0.000 HD
ATOM     11  H   UNL     1      48.229   3.257   5.909  0.00  0.00    +0.000 HD
ENDBRANCH   8   9
ENDBRANCH   7   8
ENDBRANCH   1   7
BRANCH   4  12
ATOM     12  C   UNL     1      44.690   6.111  12.655  0.00  0.00    +0.000 C 
BRANCH  12  13
ATOM     13  N   UNL     1      45.477   7.336  12.729  0.00  0.00    +0.000 N 
ATOM     14  C   UNL     1      45.038   8.587  12.379  0.00  0.00    +0.000 A 
ATOM     15  N   UNL     1      46.032   9.374  12.032  0.00  0.00    +0.000 NA
ATOM     16  C   UNL     1      47.165   8.620  12.198  0.00  0.00    +0.000 A 
ATOM     17  C   UNL     1      48.493   8.929  11.876  0.00  0.00    +0.000 A 
ATOM     18  C   UNL     1      49.471   7.972  12.146  0.00  0.00    +0.000 A 
ATOM     19  F   UNL     1      50.739   8.218  11.791  0.00  0.00    +0.000 F 
ATOM     20  C   UNL     1      49.166   6.762  12.763  0.00  0.00    +0.000 A 
ATOM     21  C   UNL     1      47.844   6.432  13.080  0.00  0.00    +0.000 A 
ATOM     22  C   UNL     1      46.859   7.372  12.740  0.00  0.00    +0.000 A 
ENDBRANCH  12  13
ENDBRANCH   4  12
TORSDOF 5
ENDMDL
MODEL 7
REMARK VINA RESULT:    -5.503      4.595      7.342
REMARK INTER + INTRA:          -7.537
REMARK INTER:                  -7.213
REMARK INTRA:                  -0.324
REMARK UNBOUND:                -0.586
REMARK  Name = 
REMARK  5 active torsions:
REMARK  status: ('A' for Active; 'I' for Inactive)
REMARK    1  A    between atoms: N_1  and  C_2
REMARK    2  A    between atoms: C_2  and  C_3
REMARK    3  A    between atoms: C_3  and  C_4
REMARK    4  A    between atoms: C_7  and  C_8
REMARK    5  A    between atoms: C_8  and  N_9
REMARK                            x       y       z     vdW  Elec       q    Type
REMARK                         _______ _______ _______ _____ _____    ______ ____
ROOT
ATOM      1  C   UNL     1      50.149   3.091  17.414  0.00  0.00    +0.000 A 
ATOM      2  C   UNL     1      49.784   4.443  17.438  0.00  0.00    +0.000 A 
ATOM      3  C   UNL     1      48.651   4.888  16.745  0.00  0.00    +0.000 A 
ATOM      4  C   UNL     1      47.871   3.998  15.991  0.00  0.00    +0.000 A 
ATOM      5  C   UNL     1      48.248   2.653  15.947  0.00  0.00    +0.000 A 
ATOM      6  C   UNL     1      49.370   2.208  16.649  0.00  0.00    +0.000 A 
ENDROOT
BRANCH   1   7
ATOM      7  C   UNL     1      51.390   2.554  18.096  0.00  0.00    +0.000 C 
BRANCH   7   8
ATOM      8  C   UNL     1      52.028   1.300  17.481  0.00  0.00    +0.000 C 
BRANCH   8   9
ATOM      9  N   UNL     1      51.624   0.102  18.215  0.00  0.00    +0.000 NA
ATOM     10  H   UNL     1      51.038   0.366  19.008  0.00  0.00    +0.000 HD
ATOM     11  H   UNL     1      52.449  -0.353  18.614  0.00  0.00    +0.000 HD
ENDBRANCH   8   9
ENDBRANCH   7   8
ENDBRANCH   1   7
BRANCH   4  12
ATOM     12  C   UNL     1      46.619   4.465  15.297  0.00  0.00    +0.000 C 
BRANCH  12  13
ATOM     13  N   UNL     1      46.801   4.982  13.947  0.00  0.00    +0.000 N 
ATOM     14  C   UNL     1      47.351   6.197  13.627  0.00  0.00    +0.000 A 
ATOM     15  N   UNL     1      46.924   6.634  12.463  0.00  0.00    +0.000 NA
ATOM     16  C   UNL     1      46.095   5.651  11.989  0.00  0.00    +0.000 A 
ATOM     17  C   UNL     1      45.291   5.642  10.841  0.00  0.00    +0.000 A 
ATOM     18  C   UNL     1      44.528   4.504  10.586  0.00  0.00    +0.000 A 
ATOM     19  F   UNL     1      43.705   4.495   9.529  0.00  0.00    +0.000 F 
ATOM     20  C   UNL     1      44.587   3.380  11.404  0.00  0.00    +0.000 A 
ATOM     21  C   UNL     1      45.374   3.374  12.561  0.00  0.00    +0.000 A 
ATOM     22  C   UNL     1      46.083   4.551  12.847  0.00  0.00    +0.000 A 
ENDBRANCH  12  13
ENDBRANCH   4  12
TORSDOF 5
ENDMDL
MODEL 8
REMARK VINA RESULT:    -5.459      3.132      4.493
REMARK INTER + INTRA:          -7.481
REMARK INTER:                  -6.984
REMARK INTRA:                  -0.497
REMARK UNBOUND:                -0.586
REMARK  Name = 
REMARK  5 active torsions:
REMARK  status: ('A' for Active; 'I' for Inactive)
REMARK    1  A    between atoms: N_1  and  C_2
REMARK    2  A    between atoms: C_2  and  C_3
REMARK    3  A    between atoms: C_3  and  C_4
REMARK    4  A    between atoms: C_7  and  C_8
REMARK    5  A    between atoms: C_8  and  N_9
REMARK                            x       y       z     vdW  Elec       q    Type
REMARK                         _______ _______ _______ _____ _____    ______ ____
ROOT
ATOM      1  C   UNL     1      44.854   3.830  10.988  0.00  0.00    +0.000 A 
ATOM      2  C   UNL     1      45.229   3.638  12.324  0.00  0.00    +0.000 A 
ATOM      3  C   UNL     1      45.833   4.670  13.050  0.00  0.00    +0.000 A 
ATOM      4  C   UNL     1      46.101   5.912  12.454  0.00  0.00    +0.000 A 
ATOM      5  C   UNL     1      45.749   6.098  11.115  0.00  0.00    +0.000 A 
ATOM      6  C   UNL     1      45.134   5.072  10.394  0.00  0.00    +0.000 A 
ENDROOT
BRANCH   1   7
ATOM      7  C   UNL     1      44.246   2.740  10.131  0.00  0.00    +0.000 C 
BRANCH   7   8
ATOM      8  C   UNL     1      44.906   2.484   8.768  0.00  0.00    +0.000 C 
BRANCH   8   9
ATOM      9  N   UNL     1      45.625   1.211   8.775  0.00  0.00    +0.000 NA
ATOM     10  H   UNL     1      46.526   1.327   9.240  0.00  0.00    +0.000 HD
ATOM     11  H   UNL     1      45.839   0.931   7.814  0.00  0.00    +0.000 HD
ENDBRANCH   8   9
ENDBRANCH   7   8
ENDBRANCH   1   7
BRANCH   4  12
ATOM     12  C   UNL     1      46.694   7.041  13.253  0.00  0.00    +0.000 C 
BRANCH  12  13
ATOM     13  N   UNL     1      48.089   6.876  13.640  0.00  0.00    +0.000 N 
ATOM     14  C   UNL     1      48.535   6.561  14.899  0.00  0.00    +0.000 A 
ATOM     15  N   UNL     1      49.761   6.987  15.103  0.00  0.00    +0.000 NA
ATOM     16  C   UNL     1      50.144   7.568  13.922  0.00  0.00    +0.000 A 
ATOM     17  C   UNL     1      51.315   8.275  13.618  0.00  0.00    +0.000 A 
ATOM     18  C   UNL     1      51.459   8.776  12.324  0.00  0.00    +0.000 A 
ATOM     19  F   UNL     1      52.541   9.507  12.026  0.00  0.00    +0.000 F 
ATOM     20  C   UNL     1      50.505   8.548  11.337  0.00  0.00    +0.000 A 
ATOM     21  C   UNL     1      49.324   7.855  11.626  0.00  0.00    +0.000 A 
ATOM     22  C   UNL     1      49.157   7.417  12.949  0.00  0.00    +0.000 A 
ENDBRANCH  12  13
ENDBRANCH   4  12
TORSDOF 5
ENDMDL
MODEL 9
REMARK VINA RESULT:    -5.370      3.445      6.532
REMARK INTER + INTRA:          -7.369
REMARK INTER:                  -6.851
REMARK INTRA:                  -0.518
REMARK UNBOUND:                -0.586
REMARK  Name = 
REMARK  5 active torsions:
REMARK  status: ('A' for Active; 'I' for Inactive)
REMARK    1  A    between atoms: N_1  and  C_2
REMARK    2  A    between atoms: C_2  and  C_3
REMARK    3  A    between atoms: C_3  and  C_4
REMARK    4  A    between atoms: C_7  and  C_8
REMARK    5  A    between atoms: C_8  and  N_9
REMARK                            x       y       z     vdW  Elec       q    Type
REMARK                         _______ _______ _______ _____ _____    ______ ____
ROOT
ATOM      1  C   UNL     1      49.946   8.281  12.575  0.00  0.00    +0.000 A 
ATOM      2  C   UNL     1      49.243   7.751  11.487  0.00  0.00    +0.000 A 
ATOM      3  C   UNL     1      47.897   7.388  11.616  0.00  0.00    +0.000 A 
ATOM      4  C   UNL     1      47.228   7.522  12.842  0.00  0.00    +0.000 A 
ATOM      5  C   UNL     1      47.935   8.029  13.935  0.00  0.00    +0.000 A 
ATOM      6  C   UNL     1      49.274   8.404  13.802  0.00  0.00    +0.000 A 
ENDROOT
BRANCH   1   7
ATOM      7  C   UNL     1      51.415   8.644  12.519  0.00  0.00    +0.000 C 
BRANCH   7   8
ATOM      8  C   UNL     1      52.116   8.903  13.860  0.00  0.00    +0.000 C 
BRANCH   8   9
ATOM      9  N   UNL     1      52.781   7.691  14.338  0.00  0.00    +0.000 NA
ATOM     10  H   UNL     1      53.597   7.496  13.757  0.00  0.00    +0.000 HD
ATOM     11  H   UNL     1      52.157   6.889  14.226  0.00  0.00    +0.000 HD
ENDBRANCH   8   9
ENDBRANCH   7   8
ENDBRANCH   1   7
BRANCH   4  12
ATOM     12  C   UNL     1      45.765   7.190  12.965  0.00  0.00    +0.000 C 
BRANCH  12  13
ATOM     13  N   UNL     1      45.442   5.770  13.019  0.00  0.00    +0.000 N 
ATOM     14  C   UNL     1      46.029   4.851  13.852  0.00  0.00    +0.000 A 
ATOM     15  N   UNL     1      45.967   3.635  13.357  0.00  0.00    +0.000 NA
ATOM     16  C   UNL     1      45.283   3.759  12.176  0.00  0.00    +0.000 A 
ATOM     17  C   UNL     1      45.024   2.795  11.192  0.00  0.00    +0.000 A 
ATOM     18  C   UNL     1      44.300   3.186  10.067  0.00  0.00    +0.000 A 
ATOM     19  F   UNL     1      44.093   2.299   9.085  0.00  0.00    +0.000 F 
ATOM     20  C   UNL     1      43.794   4.475   9.930  0.00  0.00    +0.000 A 
ATOM     21  C   UNL     1      44.052   5.454  10.895  0.00  0.00    +0.000 A 
ATOM     22  C   UNL     1      44.843   5.069  11.989  0.00  0.00    +0.000 A 
ENDBRANCH  12  13
ENDBRANCH   4  12
TORSDOF 5
ENDMDL
