MODEL 1
REMARK VINA RESULT:    -6.379      0.000      0.000
REMARK INTER + INTRA:          -7.925
REMARK INTER:                  -7.498
REMARK INTRA:                  -0.427
REMARK UNBOUND:                -0.427
REMARK  Name = 
REMARK  4 active torsions:
REMARK  status: ('A' for Active; 'I' for Inactive)
REMARK    1  A    between atoms: C_1  and  C_2
REMARK    2  A    between atoms: C_2  and  N_3
REMARK    3  A    between atoms: C_2  and  C_13
REMARK    4  A    between atoms: C_7  and  C_8
REMARK                            x       y       z     vdW  Elec       q    Type
REMARK                         _______ _______ _______ _____ _____    ______ ____
ROOT
ATOM      1  N   UNL     1      45.246   4.298  12.276  0.00  0.00    +0.000 N 
ATOM      2  C   UNL     1      46.269   5.102  12.807  0.00  0.00    +0.000 A 
ATOM      3  C   UNL     1      46.742   4.838  14.102  0.00  0.00    +0.000 A 
ATOM      4  N   UNL     1      47.714   5.555  14.726  0.00  0.00    +0.000 NA
ATOM      5  C   UNL     1      48.236   6.556  13.968  0.00  0.00    +0.000 A 
ATOM      6  C   UNL     1      47.821   6.796  12.668  0.00  0.00    +0.000 A 
ATOM      7  N   UNL     1      46.833   6.078  12.068  0.00  0.00    +0.000 NA
ATOM      8  H   UNL     1      45.700   3.447  11.950  0.00  0.00    +0.000 HD
ENDROOT
BRANCH   5   9
ATOM      9  C   UNL     1      49.271   7.432  14.587  0.00  0.00    +0.000 C 
ATOM     10  N   UNL     1      50.481   7.487  13.946  0.00  0.00    +0.000 N 
ATOM     11  O   UNL     1      49.066   8.049  15.621  0.00  0.00    +0.000 OA
ATOM     12  H   UNL     1      50.640   6.938  13.109  0.00  0.00    +0.000 HD
ATOM     13  H   UNL     1      51.228   8.037  14.343  0.00  0.00    +0.000 HD
ENDBRANCH   5   9
BRANCH   1  15
ATOM     14  C   UNL     1      42.931   4.895  11.640  0.00  0.00    +0.000 C 
ATOM     15  C   UNL     1      44.412   4.899  11.218  0.00  0.00    +0.000 C 
BRANCH  15  16
ATOM     16  C   UNL     1      44.568   4.100   9.884  0.00  0.00    +0.000 C 
ATOM     17  C   UNL     1      44.838   2.597  10.103  0.00  0.00    +0.000 C 
ATOM     18  C   UNL     1      44.950   1.837   8.784  0.00  0.00    +0.000 C 
ATOM     19  C   UNL     1      46.009   2.450   7.878  0.00  0.00    +0.000 C 
ATOM     20  C   UNL     1      45.733   3.929   7.631  0.00  0.00    +0.000 C 
ATOM     21  C   UNL     1      45.624   4.711   8.942  0.00  0.00    +0.000 C 
ENDBRANCH  15  16
ENDBRANCH   1  15
TORSDOF 3
ENDMDL
MODEL 2
REMARK VINA RESULT:    -6.375      3.815      6.181
REMARK INTER + INTRA:          -7.920
REMARK INTER:                  -8.485
REMARK INTRA:                   0.565
REMARK UNBOUND:                -0.427
REMARK  Name = 
REMARK  4 active torsions:
REMARK  status: ('A' for Active; 'I' for Inactive)
REMARK    1  A    between atoms: C_1  and  C_2
REMARK    2  A    between atoms: C_2  and  N_3
REMARK    3  A    between atoms: C_2  and  C_13
REMARK    4  A    between atoms: C_7  and  C_8
REMARK                            x       y       z     vdW  Elec       q    Type
REMARK                         _______ _______ _______ _____ _____    ______ ____
ROOT
ATOM      1  N   UNL     1      43.796   3.182  10.730  0.00  0.00    +0.000 N 
ATOM      2  C   UNL     1      44.693   3.056   9.656  0.00  0.00    +0.000 A 
ATOM      3  C   UNL     1      45.077   1.774   9.232  0.00  0.00    +0.000 A 
ATOM      4  N   UNL     1      45.948   1.529   8.218  0.00  0.00    +0.000 NA
ATOM      5  C   UNL     1      46.408   2.649   7.600  0.00  0.00    +0.000 A 
ATOM      6  C   UNL     1      45.997   3.921   7.967  0.00  0.00    +0.000 A 
ATOM      7  N   UNL     1      45.138   4.146   8.998  0.00  0.00    +0.000 NA
ATOM      8  H   UNL     1      42.869   3.019  10.340  0.00  0.00    +0.000 HD
ENDROOT
BRANCH   5   9
ATOM      9  C   UNL     1      47.410   2.482   6.510  0.00  0.00    +0.000 C 
ATOM     10  N   UNL     1      47.266   3.304   5.422  0.00  0.00    +0.000 N 
ATOM     11  O   UNL     1      48.298   1.645   6.566  0.00  0.00    +0.000 OA
ATOM     12  H   UNL     1      46.501   3.966   5.382  0.00  0.00    +0.000 HD
ATOM     13  H   UNL     1      47.896   3.207   4.641  0.00  0.00    +0.000 HD
ENDBRANCH   5   9
BRANCH   1  15
ATOM     14  C   UNL     1      43.248   5.592  10.652  0.00  0.00    +0.000 C 
ATOM     15  C   UNL     1      43.844   4.445  11.489  0.00  0.00    +0.000 C 
BRANCH  15  16
ATOM     16  C   UNL     1      45.319   4.797  11.866  0.00  0.00    +0.000 C 
ATOM     17  C   UNL     1      45.687   4.406  13.312  0.00  0.00    +0.000 C 
ATOM     18  C   UNL     1      47.143   4.729  13.639  0.00  0.00    +0.000 C 
ATOM     19  C   UNL     1      47.459   6.196  13.379  0.00  0.00    +0.000 C 
ATOM     20  C   UNL     1      47.126   6.584  11.942  0.00  0.00    +0.000 C 
ATOM     21  C   UNL     1      45.668   6.274  11.596  0.00  0.00    +0.000 C 
ENDBRANCH  15  16
ENDBRANCH   1  15
TORSDOF 3
ENDMDL
MODEL 3
REMARK VINA RESULT:    -6.022      3.810      7.260
REMARK INTER + INTRA:          -7.505
REMARK INTER:                  -7.135
REMARK INTRA:                  -0.369
REMARK UNBOUND:                -0.427
REMARK  Name = 
REMARK  4 active torsions:
REMARK  status: ('A' for Active; 'I' for Inactive)
REMARK    1  A    between atoms: C_1  and  C_2
REMARK    2  A    between atoms: C_2  and  N_3
REMARK    3  A    between atoms: C_2  and  C_13
REMARK    4  A    between atoms: C_7  and  C_8
REMARK                            x       y       z     vdW  Elec       q    Type
REMARK                         _______ _______ _______ _____ _____    ______ ____
ROOT
ATOM      1  N   UNL     1      47.384   5.138  15.263  0.00  0.00    +0.000 N 
ATOM      2  C   UNL     1      46.574   4.789  14.169  0.00  0.00    +0.000 A 
ATOM      3  C   UNL     1      45.957   5.806  13.423  0.00  0.00    +0.000 A 
ATOM      4  N   UNL     1      45.142   5.590  12.357  0.00  0.00    +0.000 NA
ATOM      5  C   UNL     1      44.993   4.278  12.031  0.00  0.00    +0.000 A 
ATOM      6  C   UNL     1      45.638   3.264  12.720  0.00  0.00    +0.000 A 
ATOM      7  N   UNL     1      46.436   3.500  13.797  0.00  0.00    +0.000 NA
ATOM      8  H   UNL     1      48.282   5.414  14.870  0.00  0.00    +0.000 HD
ENDROOT
BRANCH   5   9
ATOM      9  C   UNL     1      44.074   3.939  10.908  0.00  0.00    +0.000 C 
ATOM     10  N   UNL     1      44.031   4.832   9.869  0.00  0.00    +0.000 N 
ATOM     11  O   UNL     1      43.377   2.935  10.918  0.00  0.00    +0.000 OA
ATOM     12  H   UNL     1      44.591   5.676   9.899  0.00  0.00    +0.000 HD
ATOM     13  H   UNL     1      43.398   4.668   9.100  0.00  0.00    +0.000 HD
ENDBRANCH   5   9
BRANCH   1  15
ATOM     14  C   UNL     1      47.004   4.646  17.657  0.00  0.00    +0.000 C 
ATOM     15  C   UNL     1      47.550   4.120  16.317  0.00  0.00    +0.000 C 
BRANCH  15  16
ATOM     16  C   UNL     1      49.059   3.753  16.485  0.00  0.00    +0.000 C 
ATOM     17  C   UNL     1      49.283   2.309  16.976  0.00  0.00    +0.000 C 
ATOM     18  C   UNL     1      50.767   1.968  17.097  0.00  0.00    +0.000 C 
ATOM     19  C   UNL     1      51.494   2.962  17.992  0.00  0.00    +0.000 C 
ATOM     20  C   UNL     1      51.303   4.392  17.496  0.00  0.00    +0.000 C 
ATOM     21  C   UNL     1      49.822   4.755  17.375  0.00  0.00    +0.000 C 
ENDBRANCH  15  16
ENDBRANCH   1  15
TORSDOF 3
ENDMDL
MODEL 4
REMARK VINA RESULT:    -5.718      1.338      1.341
REMARK INTER + INTRA:          -7.148
REMARK INTER:                  -6.750
REMARK INTRA:                  -0.398
REMARK UNBOUND:                -0.427
REMARK  Name = 
REMARK  4 active torsions:
REMARK  status: ('A' for Active; 'I' for Inactive)
REMARK    1  A    between atoms: C_1  and  C_2
REMARK    2  A    between atoms: C_2  and  N_3
REMARK    3  A    between atoms: C_2  and  C_13
REMARK    4  A    between atoms: C_7  and  C_8
REMARK                            x       y       z     vdW  Elec       q    Type
REMARK                         _______ _______ _______ _____ _____    ______ ____
ROOT
ATOM      1  N   UNL     1      45.759   4.953  11.933  0.00  0.00    +0.000 N 
ATOM      2  C   UNL     1      46.484   6.046  12.439  0.00  0.00    +0.000 A 
ATOM      3  C   UNL     1      47.137   5.919  13.675  0.00  0.00    +0.000 A 
ATOM      4  N   UNL     1      47.853   6.910  14.271  0.00  0.00    +0.000 NA
ATOM      5  C   UNL     1      47.924   8.056  13.542  0.00  0.00    +0.000 A 
ATOM      6  C   UNL     1      47.333   8.181  12.296  0.00  0.00    +0.000 A 
ATOM      7  N   UNL     1      46.605   7.183  11.725  0.00  0.00    +0.000 NA
ATOM      8  H   UNL     1      46.448   4.327  11.521  0.00  0.00    +0.000 HD
ENDROOT
BRANCH   5   9
ATOM      9  C   UNL     1      48.644   9.217  14.139  0.00  0.00    +0.000 C 
ATOM     10  N   UNL     1      48.170  10.459  13.808  0.00  0.00    +0.000 N 
ATOM     11  O   UNL     1      49.617   9.076  14.864  0.00  0.00    +0.000 OA
ATOM     12  H   UNL     1      47.383  10.553  13.177  0.00  0.00    +0.000 HD
ATOM     13  H   UNL     1      48.643  11.280  14.156  0.00  0.00    +0.000 HD
ENDBRANCH   5   9
BRANCH   1  15
ATOM     14  C   UNL     1      43.306   5.127  11.673  0.00  0.00    +0.000 C 
ATOM     15  C   UNL     1      44.675   5.260  10.982  0.00  0.00    +0.000 C 
BRANCH  15  16
ATOM     16  C   UNL     1      44.732   4.286   9.761  0.00  0.00    +0.000 C 
ATOM     17  C   UNL     1      44.857   2.804  10.172  0.00  0.00    +0.000 C 
ATOM     18  C   UNL     1      44.874   1.874   8.961  0.00  0.00    +0.000 C 
ATOM     19  C   UNL     1      45.974   2.258   7.981  0.00  0.00    +0.000 C 
ATOM     20  C   UNL     1      45.840   3.714   7.546  0.00  0.00    +0.000 C 
ATOM     21  C   UNL     1      45.828   4.663   8.745  0.00  0.00    +0.000 C 
ENDBRANCH  15  16
ENDBRANCH   1  15
TORSDOF 3
ENDMDL
MODEL 5
REMARK VINA RESULT:    -5.276      2.968      7.450
REMARK INTER + INTRA:          -6.629
REMARK INTER:                  -6.268
REMARK INTRA:                  -0.360
REMARK UNBOUND:                -0.427
REMARK  Name = 
REMARK  4 active torsions:
REMARK  status: ('A' for Active; 'I' for Inactive)
REMARK    1  A    between atoms: C_1  and  C_2
REMARK    2  A    between atoms: C_2  and  N_3
REMARK    3  A    between atoms: C_2  and  C_13
REMARK    4  A    between atoms: C_7  and  C_8
REMARK                            x       y       z     vdW  Elec       q    Type
REMARK                         _______ _______ _______ _____ _____    ______ ____
ROOT
ATOM      1  N   UNL     1      47.649   6.075  14.440  0.00  0.00    +0.000 N 
ATOM      2  C   UNL     1      46.763   5.365  13.611  0.00  0.00    +0.000 A 
ATOM      3  C   UNL     1      46.711   3.966  13.705  0.00  0.00    +0.000 A 
ATOM      4  N   UNL     1      45.907   3.174  12.947  0.00  0.00    +0.000 NA
ATOM      5  C   UNL     1      45.105   3.859  12.090  0.00  0.00    +0.000 A 
ATOM      6  C   UNL     1      45.102   5.243  12.022  0.00  0.00    +0.000 A 
ATOM      7  N   UNL     1      45.928   6.017  12.777  0.00  0.00    +0.000 NA
ATOM      8  H   UNL     1      47.192   6.139  15.348  0.00  0.00    +0.000 HD
ENDROOT
BRANCH   5   9
ATOM      9  C   UNL     1      44.227   3.073  11.178  0.00  0.00    +0.000 C 
ATOM     10  N   UNL     1      44.853   2.408  10.156  0.00  0.00    +0.000 N 
ATOM     11  O   UNL     1      43.013   3.038  11.314  0.00  0.00    +0.000 OA
ATOM     12  H   UNL     1      45.857   2.480  10.042  0.00  0.00    +0.000 HD
ATOM     13  H   UNL     1      44.301   1.891   9.489  0.00  0.00    +0.000 HD
ENDBRANCH   5   9
BRANCH   1  15
ATOM     14  C   UNL     1      49.240   7.251  12.956  0.00  0.00    +0.000 C 
ATOM     15  C   UNL     1      48.085   7.400  13.963  0.00  0.00    +0.000 C 
BRANCH  15  16
ATOM     16  C   UNL     1      48.561   8.279  15.164  0.00  0.00    +0.000 C 
ATOM     17  C   UNL     1      49.764   9.181  14.818  0.00  0.00    +0.000 C 
ATOM     18  C   UNL     1      50.185  10.053  15.999  0.00  0.00    +0.000 C 
ATOM     19  C   UNL     1      50.477   9.213  17.234  0.00  0.00    +0.000 C 
ATOM     20  C   UNL     1      49.281   8.340  17.602  0.00  0.00    +0.000 C 
ATOM     21  C   UNL     1      48.848   7.453  16.433  0.00  0.00    +0.000 C 
ENDBRANCH  15  16
ENDBRANCH   1  15
TORSDOF 3
ENDMDL
MODEL 6
REMARK VINA RESULT:    -5.267      2.732      4.302
REMARK INTER + INTRA:          -6.618
REMARK INTER:                  -6.432
REMARK INTRA:                  -0.186
REMARK UNBOUND:                -0.427
REMARK  Name = 
REMARK  4 active torsions:
REMARK  status: ('A' for Active; 'I' for Inactive)
REMARK    1  A    between atoms: C_1  and  C_2
REMARK    2  A    between atoms: C_2  and  N_3
REMARK    3  A    between atoms: C_2  and  C_13
REMARK    4  A    between atoms: C_7  and  C_8
REMARK                            x       y       z     vdW  Elec       q    Type
REMARK                         _______ _______ _______ _____ _____    ______ ____
ROOT
ATOM      1  N   UNL     1      47.020   6.423  13.974  0.00  0.00    +0.000 N 
ATOM      2  C   UNL     1      47.511   5.520  14.932  0.00  0.00    +0.000 A 
ATOM      3  C   UNL     1      48.095   6.021  16.106  0.00  0.00    +0.000 A 
ATOM      4  N   UNL     1      48.618   5.247  17.094  0.00  0.00    +0.000 NA
ATOM      5  C   UNL     1      48.496   3.911  16.873  0.00  0.00    +0.000 A 
ATOM      6  C   UNL     1      47.873   3.398  15.747  0.00  0.00    +0.000 A 
ATOM      7  N   UNL     1      47.372   4.190  14.760  0.00  0.00    +0.000 NA
ATOM      8  H   UNL     1      46.109   6.725  14.315  0.00  0.00    +0.000 HD
ENDROOT
BRANCH   5   9
ATOM      9  C   UNL     1      49.088   2.982  17.877  0.00  0.00    +0.000 C 
ATOM     10  N   UNL     1      48.557   3.033  19.140  0.00  0.00    +0.000 N 
ATOM     11  O   UNL     1      50.012   2.231  17.603  0.00  0.00    +0.000 OA
ATOM     12  H   UNL     1      47.815   3.690  19.353  0.00  0.00    +0.000 HD
ATOM     13  H   UNL     1      48.946   2.452  19.866  0.00  0.00    +0.000 HD
ENDBRANCH   5   9
BRANCH   1  15
ATOM     14  C   UNL     1      47.672   6.903  11.637  0.00  0.00    +0.000 C 
ATOM     15  C   UNL     1      46.938   5.936  12.584  0.00  0.00    +0.000 C 
BRANCH  15  16
ATOM     16  C   UNL     1      45.445   5.816  12.139  0.00  0.00    +0.000 C 
ATOM     17  C   UNL     1      44.523   5.259  13.243  0.00  0.00    +0.000 C 
ATOM     18  C   UNL     1      43.067   5.185  12.791  0.00  0.00    +0.000 C 
ATOM     19  C   UNL     1      42.923   4.377  11.509  0.00  0.00    +0.000 C 
ATOM     20  C   UNL     1      43.808   4.939  10.401  0.00  0.00    +0.000 C 
ATOM     21  C   UNL     1      45.274   5.014  10.833  0.00  0.00    +0.000 C 
ENDBRANCH  15  16
ENDBRANCH   1  15
TORSDOF 3
ENDMDL
MODEL 7
REMARK VINA RESULT:    -5.150      3.829      5.750
REMARK INTER + INTRA:          -6.480
REMARK INTER:                  -6.076
REMARK INTRA:                  -0.404
REMARK UNBOUND:                -0.427
REMARK  Name = 
REMARK  4 active torsions:
REMARK  status: ('A' for Active; 'I' for Inactive)
REMARK    1  A    between atoms: C_1  and  C_2
REMARK    2  A    between atoms: C_2  and  N_3
REMARK    3  A    between atoms: C_2  and  C_13
REMARK    4  A    between atoms: C_7  and  C_8
REMARK                            x       y       z     vdW  Elec       q    Type
REMARK                         _______ _______ _______ _____ _____    ______ ____
ROOT
ATOM      1  N   UNL     1      47.085   6.689  12.535  0.00  0.00    +0.000 N 
ATOM      2  C   UNL     1      47.261   5.830  13.634  0.00  0.00    +0.000 A 
ATOM      3  C   UNL     1      46.697   4.546  13.595  0.00  0.00    +0.000 A 
ATOM      4  N   UNL     1      46.786   3.636  14.601  0.00  0.00    +0.000 NA
ATOM      5  C   UNL     1      47.515   4.061  15.667  0.00  0.00    +0.000 A 
ATOM      6  C   UNL     1      48.126   5.304  15.701  0.00  0.00    +0.000 A 
ATOM      7  N   UNL     1      48.009   6.207  14.690  0.00  0.00    +0.000 NA
ATOM      8  H   UNL     1      47.769   6.395  11.839  0.00  0.00    +0.000 HD
ENDROOT
BRANCH   5   9
ATOM      9  C   UNL     1      47.624   3.152  16.843  0.00  0.00    +0.000 C 
ATOM     10  N   UNL     1      48.870   2.641  17.103  0.00  0.00    +0.000 N 
ATOM     11  O   UNL     1      46.657   2.855  17.528  0.00  0.00    +0.000 OA
ATOM     12  H   UNL     1      49.650   2.873  16.500  0.00  0.00    +0.000 HD
ATOM     13  H   UNL     1      48.991   1.993  17.865  0.00  0.00    +0.000 HD
ENDBRANCH   5   9
BRANCH   1  15
ATOM     14  C   UNL     1      45.811   8.808  12.583  0.00  0.00    +0.000 C 
ATOM     15  C   UNL     1      47.179   8.136  12.802  0.00  0.00    +0.000 C 
BRANCH  15  16
ATOM     16  C   UNL     1      48.233   8.796  11.856  0.00  0.00    +0.000 C 
ATOM     17  C   UNL     1      49.688   8.437  12.222  0.00  0.00    +0.000 C 
ATOM     18  C   UNL     1      50.692   9.067  11.259  0.00  0.00    +0.000 C 
ATOM     19  C   UNL     1      50.512  10.576  11.177  0.00  0.00    +0.000 C 
ATOM     20  C   UNL     1      49.083  10.940  10.786  0.00  0.00    +0.000 C 
ATOM     21  C   UNL     1      48.061  10.323  11.743  0.00  0.00    +0.000 C 
ENDBRANCH  15  16
ENDBRANCH   1  15
TORSDOF 3
ENDMDL
MODEL 8
REMARK VINA RESULT:    -4.850      3.111      7.254
REMARK INTER + INTRA:          -6.128
REMARK INTER:                  -5.761
REMARK INTRA:                  -0.366
REMARK UNBOUND:                -0.427
REMARK  Name = 
REMARK  4 active torsions:
REMARK  status: ('A' for Active; 'I' for Inactive)
REMARK    1  A    between atoms: C_1  and  C_2
REMARK    2  A    between atoms: C_2  and  N_3
REMARK    3  A    between atoms: C_2  and  C_13
REMARK    4  A    between atoms: C_7  and  C_8
REMARK                            x       y       z     vdW  Elec       q    Type
REMARK                         _______ _______ _______ _____ _____    ______ ____
ROOT
ATOM      1  N   UNL     1      48.221   7.069  13.414  0.00  0.00    +0.000 N 
ATOM      2  C   UNL     1      47.148   6.223  13.084  0.00  0.00    +0.000 A 
ATOM      3  C   UNL     1      46.623   6.261  11.783  0.00  0.00    +0.000 A 
ATOM      4  N   UNL     1      45.579   5.503  11.354  0.00  0.00    +0.000 NA
ATOM      5  C   UNL     1      45.089   4.652  12.295  0.00  0.00    +0.000 A 
ATOM      6  C   UNL     1      45.631   4.560  13.567  0.00  0.00    +0.000 A 
ATOM      7  N   UNL     1      46.665   5.341  13.983  0.00  0.00    +0.000 NA
ATOM      8  H   UNL     1      49.057   6.616  13.048  0.00  0.00    +0.000 HD
ENDROOT
BRANCH   5   9
ATOM      9  C   UNL     1      43.909   3.818  11.933  0.00  0.00    +0.000 C 
ATOM     10  N   UNL     1      43.881   2.548  12.449  0.00  0.00    +0.000 N 
ATOM     11  O   UNL     1      43.023   4.228  11.197  0.00  0.00    +0.000 OA
ATOM     12  H   UNL     1      44.644   2.218  13.028  0.00  0.00    +0.000 HD
ATOM     13  H   UNL     1      43.122   1.930  12.206  0.00  0.00    +0.000 HD
ENDBRANCH   5   9
BRANCH   1  15
ATOM     14  C   UNL     1      48.643   8.925  14.993  0.00  0.00    +0.000 C 
ATOM     15  C   UNL     1      48.378   7.416  14.839  0.00  0.00    +0.000 C 
BRANCH  15  16
ATOM     16  C   UNL     1      49.569   6.619  15.463  0.00  0.00    +0.000 C 
ATOM     17  C   UNL     1      49.194   5.894  16.772  0.00  0.00    +0.000 C 
ATOM     18  C   UNL     1      50.366   5.096  17.340  0.00  0.00    +0.000 C 
ATOM     19  C   UNL     1      51.592   5.976  17.541  0.00  0.00    +0.000 C 
ATOM     20  C   UNL     1      51.987   6.674  16.244  0.00  0.00    +0.000 C 
ATOM     21  C   UNL     1      50.828   7.486  15.663  0.00  0.00    +0.000 C 
ENDBRANCH  15  16
ENDBRANCH   1  15
TORSDOF 3
ENDMDL
