MODEL 1
REMARK VINA RESULT:    -7.588      0.000      0.000
REMARK INTER + INTRA:         -10.116
REMARK INTER:                  -9.362
REMARK INTRA:                  -0.754
REMARK UNBOUND:                -0.754
REMARK  Name = 
REMARK  6 active torsions:
REMARK  status: ('A' for Active; 'I' for Inactive)
REMARK    1  A    between atoms: C_1  and  C_2
REMARK    2  A    between atoms: C_4  and  C_5
REMARK    3  A    between atoms: C_10  and  O_11
REMARK    4  A    between atoms: O_11  and  C_12
REMARK    5  A    between atoms: C_12  and  C_13
REMARK    6  A    between atoms: C_12  and  C_14
REMARK                            x       y       z     vdW  Elec       q    Type
REMARK                         _______ _______ _______ _____ _____    ______ ____
ROOT
ATOM      1  C   UNL     1      43.935   2.184  10.498  0.00  0.00    +0.000 C 
ATOM      2  C   UNL     1      44.885   2.815   9.511  0.00  0.00    +0.000 A 
ATOM      3  C   UNL     1      45.639   1.967   8.675  0.00  0.00    +0.000 A 
ATOM      4  C   UNL     1      46.497   2.483   7.694  0.00  0.00    +0.000 A 
ATOM      5  C   UNL     1      46.552   3.862   7.514  0.00  0.00    +0.000 A 
ATOM      6  C   UNL     1      45.806   4.707   8.334  0.00  0.00    +0.000 A 
ATOM      7  C   UNL     1      45.032   4.209   9.388  0.00  0.00    +0.000 A 
ENDROOT
BRANCH   4   8
ATOM      8  C   UNL     1      47.297   1.530   6.876  0.00  0.00    +0.000 C 
ATOM      9  N   UNL     1      48.353   2.010   6.154  0.00  0.00    +0.000 N 
ATOM     10  O   UNL     1      47.030   0.334   6.842  0.00  0.00    +0.000 OA
ATOM     11  H   UNL     1      48.665   2.967   6.130  0.00  0.00    +0.000 HD
ATOM     12  H   UNL     1      48.874   1.330   5.616  0.00  0.00    +0.000 HD
ENDBRANCH   4   8
BRANCH   7  13
ATOM     13  O   UNL     1      44.401   5.019  10.306  0.00  0.00    +0.000 OA
BRANCH  13  14
ATOM     14  C   UNL     1      45.224   6.041  10.912  0.00  0.00    +0.000 C 
ATOM     15  C   UNL     1      44.379   7.277  11.234  0.00  0.00    +0.000 C 
BRANCH  14  16
ATOM     16  C   UNL     1      45.924   5.563  12.165  0.00  0.00    +0.000 A 
ATOM     17  C   UNL     1      47.079   6.221  12.614  0.00  0.00    +0.000 A 
ATOM     18  C   UNL     1      47.683   5.839  13.806  0.00  0.00    +0.000 A 
ATOM     19  C   UNL     1      47.107   4.805  14.517  0.00  0.00    +0.000 A 
ATOM     20  N   UNL     1      45.999   4.140  14.120  0.00  0.00    +0.000 NA
ATOM     21  C   UNL     1      45.432   4.533  12.953  0.00  0.00    +0.000 A 
ENDBRANCH  14  16
ENDBRANCH  13  14
ENDBRANCH   7  13
TORSDOF 4
ENDMDL
MODEL 2
REMARK VINA RESULT:    -6.649      2.426      6.482
REMARK INTER + INTRA:          -8.957
REMARK INTER:                  -8.240
REMARK INTRA:                  -0.718
REMARK UNBOUND:                -0.754
REMARK  Name = 
REMARK  6 active torsions:
REMARK  status: ('A' for Active; 'I' for Inactive)
REMARK    1  A    between atoms: C_1  and  C_2
REMARK    2  A    between atoms: C_4  and  C_5
REMARK    3  A    between atoms: C_10  and  O_11
REMARK    4  A    between atoms: O_11  and  C_12
REMARK    5  A    between atoms: C_12  and  C_13
REMARK    6  A    between atoms: C_12  and  C_14
REMARK                            x       y       z     vdW  Elec       q    Type
REMARK                         _______ _______ _______ _____ _____    ______ ____
ROOT
ATOM      1  C   UNL     1      42.557   5.037  11.425  0.00  0.00    +0.000 C 
ATOM      2  C   UNL     1      43.911   5.681  11.257  0.00  0.00    +0.000 A 
ATOM      3  C   UNL     1      44.247   6.758  12.103  0.00  0.00    +0.000 A 
ATOM      4  C   UNL     1      45.509   7.366  12.044  0.00  0.00    +0.000 A 
ATOM      5  C   UNL     1      46.460   6.848  11.170  0.00  0.00    +0.000 A 
ATOM      6  C   UNL     1      46.137   5.780  10.334  0.00  0.00    +0.000 A 
ATOM      7  C   UNL     1      44.847   5.237  10.305  0.00  0.00    +0.000 A 
ENDROOT
BRANCH   4   8
ATOM      8  C   UNL     1      45.780   8.528  12.935  0.00  0.00    +0.000 C 
ATOM      9  N   UNL     1      44.912   9.584  12.920  0.00  0.00    +0.000 N 
ATOM     10  O   UNL     1      46.756   8.553  13.676  0.00  0.00    +0.000 OA
ATOM     11  H   UNL     1      44.075   9.651  12.365  0.00  0.00    +0.000 HD
ATOM     12  H   UNL     1      45.128  10.350  13.543  0.00  0.00    +0.000 HD
ENDBRANCH   4   8
BRANCH   7  13
ATOM     13  O   UNL     1      44.453   4.283   9.393  0.00  0.00    +0.000 OA
BRANCH  13  14
ATOM     14  C   UNL     1      45.117   3.003   9.497  0.00  0.00    +0.000 C 
ATOM     15  C   UNL     1      44.101   1.909   9.836  0.00  0.00    +0.000 C 
BRANCH  14  16
ATOM     16  C   UNL     1      45.867   2.628   8.239  0.00  0.00    +0.000 A 
ATOM     17  C   UNL     1      46.078   3.589   7.238  0.00  0.00    +0.000 A 
ATOM     18  C   UNL     1      46.834   3.275   6.115  0.00  0.00    +0.000 A 
ATOM     19  C   UNL     1      47.361   2.001   6.028  0.00  0.00    +0.000 A 
ATOM     20  N   UNL     1      47.179   1.043   6.965  0.00  0.00    +0.000 NA
ATOM     21  C   UNL     1      46.437   1.377   8.048  0.00  0.00    +0.000 A 
ENDBRANCH  14  16
ENDBRANCH  13  14
ENDBRANCH   7  13
TORSDOF 4
ENDMDL
MODEL 3
REMARK VINA RESULT:    -6.176      1.847      2.532
REMARK INTER + INTRA:          -8.375
REMARK INTER:                  -7.705
REMARK INTRA:                  -0.669
REMARK UNBOUND:                -0.754
REMARK  Name = 
REMARK  6 active torsions:
REMARK  status: ('A' for Active; 'I' for Inactive)
REMARK    1  A    between atoms: C_1  and  C_2
REMARK    2  A    between atoms: C_4  and  C_5
REMARK    3  A    between atoms: C_10  and  O_11
REMARK    4  A    between atoms: O_11  and  C_12
REMARK    5  A    between atoms: C_12  and  C_13
REMARK    6  A    between atoms: C_12  and  C_14
REMARK                            x       y       z     vdW  Elec       q    Type
REMARK                         _______ _______ _______ _____ _____    ______ ____
ROOT
ATOM      1  C   UNL     1      43.975   2.105  10.576  0.00  0.00    +0.000 C 
ATOM      2  C   UNL     1      44.867   2.937   9.689  0.00  0.00    +0.000 A 
ATOM      3  C   UNL     1      45.446   2.322   8.560  0.00  0.00    +0.000 A 
ATOM      4  C   UNL     1      46.237   3.048   7.659  0.00  0.00    +0.000 A 
ATOM      5  C   UNL     1      46.397   4.415   7.862  0.00  0.00    +0.000 A 
ATOM      6  C   UNL     1      45.824   5.031   8.974  0.00  0.00    +0.000 A 
ATOM      7  C   UNL     1      45.126   4.297   9.939  0.00  0.00    +0.000 A 
ENDROOT
BRANCH   4   8
ATOM      8  C   UNL     1      46.854   2.325   6.513  0.00  0.00    +0.000 C 
ATOM      9  N   UNL     1      47.138   3.023   5.372  0.00  0.00    +0.000 N 
ATOM     10  O   UNL     1      47.113   1.128   6.574  0.00  0.00    +0.000 OA
ATOM     11  H   UNL     1      46.983   4.007   5.229  0.00  0.00    +0.000 HD
ATOM     12  H   UNL     1      47.562   2.497   4.619  0.00  0.00    +0.000 HD
ENDBRANCH   4   8
BRANCH   7  13
ATOM     13  O   UNL     1      44.673   4.846  11.119  0.00  0.00    +0.000 OA
BRANCH  13  14
ATOM     14  C   UNL     1      43.829   6.011  10.986  0.00  0.00    +0.000 C 
ATOM     15  C   UNL     1      42.491   5.777  11.691  0.00  0.00    +0.000 C 
BRANCH  14  16
ATOM     16  C   UNL     1      44.475   7.268  11.527  0.00  0.00    +0.000 A 
ATOM     17  C   UNL     1      44.110   8.520  11.009  0.00  0.00    +0.000 A 
ATOM     18  C   UNL     1      44.639   9.683  11.554  0.00  0.00    +0.000 A 
ATOM     19  C   UNL     1      45.523   9.558  12.608  0.00  0.00    +0.000 A 
ATOM     20  N   UNL     1      45.906   8.373  13.135  0.00  0.00    +0.000 NA
ATOM     21  C   UNL     1      45.375   7.254  12.583  0.00  0.00    +0.000 A 
ENDBRANCH  14  16
ENDBRANCH  13  14
ENDBRANCH   7  13
TORSDOF 4
ENDMDL
MODEL 4
REMARK VINA RESULT:    -6.169      1.935      2.586
REMARK INTER + INTRA:          -8.365
REMARK INTER:                  -7.965
REMARK INTRA:                  -0.400
REMARK UNBOUND:                -0.754
REMARK  Name = 
REMARK  6 active torsions:
REMARK  status: ('A' for Active; 'I' for Inactive)
REMARK    1  A    between atoms: C_1  and  C_2
REMARK    2  A    between atoms: C_4  and  C_5
REMARK    3  A    between atoms: C_10  and  O_11
REMARK    4  A    between atoms: O_11  and  C_12
REMARK    5  A    between atoms: C_12  and  C_13
REMARK    6  A    between atoms: C_12  and  C_14
REMARK                            x       y       z     vdW  Elec       q    Type
REMARK                         _______ _______ _______ _____ _____    ______ ____
ROOT
ATOM      1  C   UNL     1      43.356   2.551  11.574  0.00  0.00    +0.000 C 
ATOM      2  C   UNL     1      44.277   3.333  10.669  0.00  0.00    +0.000 A 
ATOM      3  C   UNL     1      44.818   2.679   9.544  0.00  0.00    +0.000 A 
ATOM      4  C   UNL     1      45.633   3.359   8.627  0.00  0.00    +0.000 A 
ATOM      5  C   UNL     1      45.855   4.720   8.812  0.00  0.00    +0.000 A 
ATOM      6  C   UNL     1      45.319   5.374   9.921  0.00  0.00    +0.000 A 
ATOM      7  C   UNL     1      44.597   4.683  10.900  0.00  0.00    +0.000 A 
ENDROOT
BRANCH   4   8
ATOM      8  C   UNL     1      46.208   2.596   7.485  0.00  0.00    +0.000 C 
ATOM      9  N   UNL     1      46.680   1.333   7.711  0.00  0.00    +0.000 N 
ATOM     10  O   UNL     1      46.262   3.073   6.357  0.00  0.00    +0.000 OA
ATOM     11  H   UNL     1      46.663   0.845   8.591  0.00  0.00    +0.000 HD
ATOM     12  H   UNL     1      47.057   0.846   6.908  0.00  0.00    +0.000 HD
ENDBRANCH   4   8
BRANCH   7  13
ATOM     13  O   UNL     1      44.179   5.265  12.077  0.00  0.00    +0.000 OA
BRANCH  13  14
ATOM     14  C   UNL     1      45.204   5.467  13.076  0.00  0.00    +0.000 C 
ATOM     15  C   UNL     1      46.089   4.221  13.183  0.00  0.00    +0.000 C 
BRANCH  14  16
ATOM     16  C   UNL     1      46.064   6.679  12.797  0.00  0.00    +0.000 A 
ATOM     17  C   UNL     1      47.431   6.518  12.524  0.00  0.00    +0.000 A 
ATOM     18  C   UNL     1      48.212   7.618  12.189  0.00  0.00    +0.000 A 
ATOM     19  C   UNL     1      47.597   8.853  12.136  0.00  0.00    +0.000 A 
ATOM     20  N   UNL     1      46.285   9.055  12.396  0.00  0.00    +0.000 NA
ATOM     21  C   UNL     1      45.548   7.965  12.721  0.00  0.00    +0.000 A 
ENDBRANCH  14  16
ENDBRANCH  13  14
ENDBRANCH   7  13
TORSDOF 4
ENDMDL
MODEL 5
REMARK VINA RESULT:    -6.144      2.370      6.569
REMARK INTER + INTRA:          -8.334
REMARK INTER:                  -7.691
REMARK INTRA:                  -0.644
REMARK UNBOUND:                -0.754
REMARK  Name = 
REMARK  6 active torsions:
REMARK  status: ('A' for Active; 'I' for Inactive)
REMARK    1  A    between atoms: C_1  and  C_2
REMARK    2  A    between atoms: C_4  and  C_5
REMARK    3  A    between atoms: C_10  and  O_11
REMARK    4  A    between atoms: O_11  and  C_12
REMARK    5  A    between atoms: C_12  and  C_13
REMARK    6  A    between atoms: C_12  and  C_14
REMARK                            x       y       z     vdW  Elec       q    Type
REMARK                         _______ _______ _______ _____ _____    ______ ____
ROOT
ATOM      1  C   UNL     1      44.830   7.811  11.535  0.00  0.00    +0.000 C 
ATOM      2  C   UNL     1      45.662   6.857  12.356  0.00  0.00    +0.000 A 
ATOM      3  C   UNL     1      46.707   7.388  13.138  0.00  0.00    +0.000 A 
ATOM      4  C   UNL     1      47.483   6.570  13.972  0.00  0.00    +0.000 A 
ATOM      5  C   UNL     1      47.166   5.218  14.063  0.00  0.00    +0.000 A 
ATOM      6  C   UNL     1      46.131   4.687  13.296  0.00  0.00    +0.000 A 
ATOM      7  C   UNL     1      45.423   5.471  12.379  0.00  0.00    +0.000 A 
ENDROOT
BRANCH   4   8
ATOM      8  C   UNL     1      48.600   7.191  14.736  0.00  0.00    +0.000 C 
ATOM      9  N   UNL     1      48.331   8.267  15.535  0.00  0.00    +0.000 N 
ATOM     10  O   UNL     1      49.745   6.756  14.666  0.00  0.00    +0.000 OA
ATOM     11  H   UNL     1      47.427   8.685  15.677  0.00  0.00    +0.000 HD
ATOM     12  H   UNL     1      49.116   8.655  16.042  0.00  0.00    +0.000 HD
ENDBRANCH   4   8
BRANCH   7  13
ATOM     13  O   UNL     1      44.496   4.950  11.502  0.00  0.00    +0.000 OA
BRANCH  13  14
ATOM     14  C   UNL     1      44.700   3.571  11.119  0.00  0.00    +0.000 C 
ATOM     15  C   UNL     1      43.385   2.794  11.228  0.00  0.00    +0.000 C 
BRANCH  14  16
ATOM     16  C   UNL     1      45.260   3.428   9.721  0.00  0.00    +0.000 A 
ATOM     17  C   UNL     1      45.487   2.151   9.187  0.00  0.00    +0.000 A 
ATOM     18  C   UNL     1      45.927   2.009   7.876  0.00  0.00    +0.000 A 
ATOM     19  C   UNL     1      46.125   3.157   7.135  0.00  0.00    +0.000 A 
ATOM     20  N   UNL     1      45.923   4.407   7.610  0.00  0.00    +0.000 NA
ATOM     21  C   UNL     1      45.497   4.515   8.892  0.00  0.00    +0.000 A 
ENDBRANCH  14  16
ENDBRANCH  13  14
ENDBRANCH   7  13
TORSDOF 4
ENDMDL
MODEL 6
REMARK VINA RESULT:    -6.033      2.373      6.595
REMARK INTER + INTRA:          -8.197
REMARK INTER:                  -7.582
REMARK INTRA:                  -0.616
REMARK UNBOUND:                -0.754
REMARK  Name = 
REMARK  6 active torsions:
REMARK  status: ('A' for Active; 'I' for Inactive)
REMARK    1  A    between atoms: C_1  and  C_2
REMARK    2  A    between atoms: C_4  and  C_5
REMARK    3  A    between atoms: C_10  and  O_11
REMARK    4  A    between atoms: O_11  and  C_12
REMARK    5  A    between atoms: C_12  and  C_13
REMARK    6  A    between atoms: C_12  and  C_14
REMARK                            x       y       z     vdW  Elec       q    Type
REMARK                         _______ _______ _______ _____ _____    ______ ____
ROOT
ATOM      1  C   UNL     1      47.607   7.550  11.766  0.00  0.00    +0.000 C 
ATOM      2  C   UNL     1      47.226   6.409  12.677  0.00  0.00    +0.000 A 
ATOM      3  C   UNL     1      47.877   6.306  13.923  0.00  0.00    +0.000 A 
ATOM      4  C   UNL     1      47.533   5.307  14.845  0.00  0.00    +0.000 A 
ATOM      5  C   UNL     1      46.485   4.445  14.536  0.00  0.00    +0.000 A 
ATOM      6  C   UNL     1      45.834   4.544  13.307  0.00  0.00    +0.000 A 
ATOM      7  C   UNL     1      46.242   5.464  12.335  0.00  0.00    +0.000 A 
ENDROOT
BRANCH   4   8
ATOM      8  C   UNL     1      48.292   5.228  16.124  0.00  0.00    +0.000 C 
ATOM      9  N   UNL     1      48.374   6.344  16.909  0.00  0.00    +0.000 N 
ATOM     10  O   UNL     1      48.836   4.190  16.483  0.00  0.00    +0.000 OA
ATOM     11  H   UNL     1      47.947   7.235  16.715  0.00  0.00    +0.000 HD
ATOM     12  H   UNL     1      48.893   6.247  17.772  0.00  0.00    +0.000 HD
ENDBRANCH   4   8
BRANCH   7  13
ATOM     13  O   UNL     1      45.719   5.492  11.060  0.00  0.00    +0.000 OA
BRANCH  13  14
ATOM     14  C   UNL     1      44.858   4.386  10.710  0.00  0.00    +0.000 C 
ATOM     15  C   UNL     1      43.431   4.885  10.466  0.00  0.00    +0.000 C 
BRANCH  14  16
ATOM     16  C   UNL     1      45.345   3.625   9.497  0.00  0.00    +0.000 A 
ATOM     17  C   UNL     1      45.892   4.322   8.409  0.00  0.00    +0.000 A 
ATOM     18  C   UNL     1      46.414   3.627   7.324  0.00  0.00    +0.000 A 
ATOM     19  C   UNL     1      46.373   2.247   7.363  0.00  0.00    +0.000 A 
ATOM     20  N   UNL     1      45.852   1.536   8.388  0.00  0.00    +0.000 NA
ATOM     21  C   UNL     1      45.349   2.239   9.431  0.00  0.00    +0.000 A 
ENDBRANCH  14  16
ENDBRANCH  13  14
ENDBRANCH   7  13
TORSDOF 4
ENDMDL
MODEL 7
REMARK VINA RESULT:    -5.691      3.534      5.061
REMARK INTER + INTRA:          -7.775
REMARK INTER:                  -7.141
REMARK INTRA:                  -0.634
REMARK UNBOUND:                -0.754
REMARK  Name = 
REMARK  6 active torsions:
REMARK  status: ('A' for Active; 'I' for Inactive)
REMARK    1  A    between atoms: C_1  and  C_2
REMARK    2  A    between atoms: C_4  and  C_5
REMARK    3  A    between atoms: C_10  and  O_11
REMARK    4  A    between atoms: O_11  and  C_12
REMARK    5  A    between atoms: C_12  and  C_13
REMARK    6  A    between atoms: C_12  and  C_14
REMARK                            x       y       z     vdW  Elec       q    Type
REMARK                         _______ _______ _______ _____ _____    ______ ____
ROOT
ATOM      1  C   UNL     1      46.811   4.695  14.536  0.00  0.00    +0.000 C 
ATOM      2  C   UNL     1      46.271   4.830  13.134  0.00  0.00    +0.000 A 
ATOM      3  C   UNL     1      45.425   3.815  12.644  0.00  0.00    +0.000 A 
ATOM      4  C   UNL     1      44.838   3.903  11.374  0.00  0.00    +0.000 A 
ATOM      5  C   UNL     1      45.058   5.049  10.615  0.00  0.00    +0.000 A 
ATOM      6  C   UNL     1      45.891   6.058  11.094  0.00  0.00    +0.000 A 
ATOM      7  C   UNL     1      46.569   5.932  12.311  0.00  0.00    +0.000 A 
ENDROOT
BRANCH   4   8
ATOM      8  C   UNL     1      43.991   2.774  10.902  0.00  0.00    +0.000 C 
ATOM      9  N   UNL     1      44.381   2.078   9.792  0.00  0.00    +0.000 N 
ATOM     10  O   UNL     1      42.961   2.457  11.488  0.00  0.00    +0.000 OA
ATOM     11  H   UNL     1      45.216   2.245   9.255  0.00  0.00    +0.000 HD
ATOM     12  H   UNL     1      43.781   1.315   9.508  0.00  0.00    +0.000 HD
ENDBRANCH   4   8
BRANCH   7  13
ATOM     13  O   UNL     1      47.509   6.841  12.747  0.00  0.00    +0.000 OA
BRANCH  13  14
ATOM     14  C   UNL     1      47.487   8.129  12.092  0.00  0.00    +0.000 C 
ATOM     15  C   UNL     1      46.819   9.169  12.996  0.00  0.00    +0.000 C 
BRANCH  14  16
ATOM     16  C   UNL     1      48.866   8.610  11.697  0.00  0.00    +0.000 A 
ATOM     17  C   UNL     1      49.934   7.701  11.647  0.00  0.00    +0.000 A 
ATOM     18  C   UNL     1      51.186   8.118  11.210  0.00  0.00    +0.000 A 
ATOM     19  C   UNL     1      51.331   9.438  10.832  0.00  0.00    +0.000 A 
ATOM     20  N   UNL     1      50.331  10.347  10.868  0.00  0.00    +0.000 NA
ATOM     21  C   UNL     1      49.122   9.915  11.300  0.00  0.00    +0.000 A 
ENDBRANCH  14  16
ENDBRANCH  13  14
ENDBRANCH   7  13
TORSDOF 4
ENDMDL
MODEL 8
REMARK VINA RESULT:    -5.605      3.819      5.776
REMARK INTER + INTRA:          -7.669
REMARK INTER:                  -6.945
REMARK INTRA:                  -0.723
REMARK UNBOUND:                -0.754
REMARK  Name = 
REMARK  6 active torsions:
REMARK  status: ('A' for Active; 'I' for Inactive)
REMARK    1  A    between atoms: C_1  and  C_2
REMARK    2  A    between atoms: C_4  and  C_5
REMARK    3  A    between atoms: C_10  and  O_11
REMARK    4  A    between atoms: O_11  and  C_12
REMARK    5  A    between atoms: C_12  and  C_13
REMARK    6  A    between atoms: C_12  and  C_14
REMARK                            x       y       z     vdW  Elec       q    Type
REMARK                         _______ _______ _______ _____ _____    ______ ____
ROOT
ATOM      1  C   UNL     1      47.445   7.234  13.413  0.00  0.00    +0.000 C 
ATOM      2  C   UNL     1      46.666   5.976  13.117  0.00  0.00    +0.000 A 
ATOM      3  C   UNL     1      45.595   6.055  12.204  0.00  0.00    +0.000 A 
ATOM      4  C   UNL     1      44.864   4.916  11.836  0.00  0.00    +0.000 A 
ATOM      5  C   UNL     1      45.253   3.681  12.344  0.00  0.00    +0.000 A 
ATOM      6  C   UNL     1      46.314   3.595  13.244  0.00  0.00    +0.000 A 
ATOM      7  C   UNL     1      46.979   4.737  13.704  0.00  0.00    +0.000 A 
ENDROOT
BRANCH   4   8
ATOM      8  C   UNL     1      43.716   5.079  10.902  0.00  0.00    +0.000 C 
ATOM      9  N   UNL     1      43.898   4.781   9.580  0.00  0.00    +0.000 N 
ATOM     10  O   UNL     1      42.622   5.469  11.293  0.00  0.00    +0.000 OA
ATOM     11  H   UNL     1      44.748   4.437   9.164  0.00  0.00    +0.000 HD
ATOM     12  H   UNL     1      43.092   4.899   8.980  0.00  0.00    +0.000 HD
ENDBRANCH   4   8
BRANCH   7  13
ATOM     13  O   UNL     1      47.931   4.703  14.699  0.00  0.00    +0.000 OA
BRANCH  13  14
ATOM     14  C   UNL     1      47.464   4.285  16.001  0.00  0.00    +0.000 C 
ATOM     15  C   UNL     1      48.017   2.898  16.339  0.00  0.00    +0.000 C 
BRANCH  14  16
ATOM     16  C   UNL     1      47.833   5.260  17.097  0.00  0.00    +0.000 A 
ATOM     17  C   UNL     1      48.759   6.283  16.839  0.00  0.00    +0.000 A 
ATOM     18  C   UNL     1      49.044   7.230  17.816  0.00  0.00    +0.000 A 
ATOM     19  C   UNL     1      48.389   7.125  19.027  0.00  0.00    +0.000 A 
ATOM     20  N   UNL     1      47.495   6.154  19.319  0.00  0.00    +0.000 NA
ATOM     21  C   UNL     1      47.237   5.243  18.350  0.00  0.00    +0.000 A 
ENDBRANCH  14  16
ENDBRANCH  13  14
ENDBRANCH   7  13
TORSDOF 4
ENDMDL
MODEL 9
REMARK VINA RESULT:    -5.468      4.220      5.961
REMARK INTER + INTRA:          -7.501
REMARK INTER:                  -6.799
REMARK INTRA:                  -0.702
REMARK UNBOUND:                -0.754
REMARK  Name = 
REMARK  6 active torsions:
REMARK  status: ('A' for Active; 'I' for Inactive)
REMARK    1  A    between atoms: C_1  and  C_2
REMARK    2  A    between atoms: C_4  and  C_5
REMARK    3  A    between atoms: C_10  and  O_11
REMARK    4  A    between atoms: O_11  and  C_12
REMARK    5  A    between atoms: C_12  and  C_13
REMARK    6  A    between atoms: C_12  and  C_14
REMARK                            x       y       z     vdW  Elec       q    Type
REMARK                         _______ _______ _______ _____ _____    ______ ____
ROOT
ATOM      1  C   UNL     1      46.870   4.465  14.824  0.00  0.00    +0.000 C 
ATOM      2  C   UNL     1      46.371   5.114  13.556  0.00  0.00    +0.000 A 
ATOM      3  C   UNL     1      45.050   4.844  13.145  0.00  0.00    +0.000 A 
ATOM      4  C   UNL     1      44.500   5.458  12.011  0.00  0.00    +0.000 A 
ATOM      5  C   UNL     1      45.264   6.395  11.321  0.00  0.00    +0.000 A 
ATOM      6  C   UNL     1      46.569   6.670  11.726  0.00  0.00    +0.000 A 
ATOM      7  C   UNL     1      47.167   5.983  12.788  0.00  0.00    +0.000 A 
ENDROOT
BRANCH   4   8
ATOM      8  C   UNL     1      43.114   5.093  11.607  0.00  0.00    +0.000 C 
ATOM      9  N   UNL     1      42.132   6.040  11.701  0.00  0.00    +0.000 N 
ATOM     10  O   UNL     1      42.841   3.972  11.193  0.00  0.00    +0.000 OA
ATOM     11  H   UNL     1      42.256   6.990  12.008  0.00  0.00    +0.000 HD
ATOM     12  H   UNL     1      41.205   5.754  11.411  0.00  0.00    +0.000 HD
ENDBRANCH   4   8
BRANCH   7  13
ATOM     13  O   UNL     1      48.496   6.123  13.121  0.00  0.00    +0.000 OA
BRANCH  13  14
ATOM     14  C   UNL     1      48.854   7.365  13.767  0.00  0.00    +0.000 C 
ATOM     15  C   UNL     1      49.667   7.086  15.034  0.00  0.00    +0.000 C 
BRANCH  14  16
ATOM     16  C   UNL     1      49.629   8.295  12.860  0.00  0.00    +0.000 A 
ATOM     17  C   UNL     1      50.441   7.765  11.846  0.00  0.00    +0.000 A 
ATOM     18  C   UNL     1      51.095   8.613  10.959  0.00  0.00    +0.000 A 
ATOM     19  C   UNL     1      50.913   9.973  11.114  0.00  0.00    +0.000 A 
ATOM     20  N   UNL     1      50.144  10.526  12.079  0.00  0.00    +0.000 NA
ATOM     21  C   UNL     1      49.520   9.677  12.931  0.00  0.00    +0.000 A 
ENDBRANCH  14  16
ENDBRANCH  13  14
ENDBRANCH   7  13
TORSDOF 4
ENDMDL
