MODEL 1
REMARK VINA RESULT:    -7.503      0.000      0.000
REMARK INTER + INTRA:          -9.158
REMARK INTER:                  -9.257
REMARK INTRA:                   0.099
REMARK UNBOUND:                 0.099
REMARK  Name = 
REMARK  7 active torsions:
REMARK  status: ('A' for Active; 'I' for Inactive)
REMARK    1  A    between atoms: C_1  and  C_2
REMARK    2  A    between atoms: C_2  and  C_3
REMARK    3  A    between atoms: C_2  and  C_4
REMARK    4  A    between atoms: C_2  and  C_5
REMARK    5  A    between atoms: C_7  and  C_8
REMARK    6  A    between atoms: C_8  and  N_9
REMARK    7  A    between atoms: C_11  and  C_12
REMARK                            x       y       z     vdW  Elec       q    Type
REMARK                         _______ _______ _______ _____ _____    ______ ____
ROOT
ATOM      1  N   UNL     1      44.985   5.483  10.253  0.00  0.00    +0.000 N 
ATOM      2  C   UNL     1      44.051   4.949  11.100  0.00  0.00    +0.000 A 
ATOM      3  C   UNL     1      44.044   3.574  10.911  0.00  0.00    +0.000 A 
ATOM      4  C   UNL     1      44.832   3.324   9.734  0.00  0.00    +0.000 A 
ATOM      5  C   UNL     1      45.258   2.194   9.009  0.00  0.00    +0.000 A 
ATOM      6  C   UNL     1      46.069   2.391   7.889  0.00  0.00    +0.000 A 
ATOM      7  C   UNL     1      46.439   3.681   7.546  0.00  0.00    +0.000 A 
ATOM      8  N   UNL     1      46.113   4.798   8.232  0.00  0.00    +0.000 NA
ATOM      9  C   UNL     1      45.329   4.555   9.303  0.00  0.00    +0.000 A 
ENDROOT
BRANCH   3  10
ATOM     10  C   UNL     1      43.394   2.676  11.851  0.00  0.00    +0.000 C 
ATOM     11  N   UNL     1      43.519   2.983  13.170  0.00  0.00    +0.000 N 
ATOM     12  O   UNL     1      42.774   1.675  11.504  0.00  0.00    +0.000 OA
ATOM     13  H   UNL     1      44.244   3.606  13.488  0.00  0.00    +0.000 HD
ATOM     14  H   UNL     1      43.155   2.294  13.814  0.00  0.00    +0.000 HD
ENDBRANCH   3  10
BRANCH   1  15
ATOM     15  C   UNL     1      45.756   6.682  10.549  0.00  0.00    +0.000 C 
BRANCH  15  18
ATOM     16  C   UNL     1      48.412   7.015  13.261  0.00  0.00    +0.000 A 
ATOM     17  C   UNL     1      47.621   7.290  12.141  0.00  0.00    +0.000 A 
ATOM     18  C   UNL     1      46.548   6.451  11.819  0.00  0.00    +0.000 A 
ATOM     19  C   UNL     1      46.313   5.339  12.630  0.00  0.00    +0.000 A 
ATOM     20  C   UNL     1      47.146   5.125  13.713  0.00  0.00    +0.000 A 
ATOM     21  N   UNL     1      48.172   5.937  14.046  0.00  0.00    +0.000 NA
BRANCH  16  23
ATOM     22  C   UNL     1      48.990   9.320  14.042  0.00  0.00    +0.000 C 
ATOM     23  C   UNL     1      49.565   7.945  13.652  0.00  0.00    +0.000 C 
ATOM     24  C   UNL     1      50.555   8.105  12.483  0.00  0.00    +0.000 C 
ATOM     25  C   UNL     1      50.353   7.399  14.859  0.00  0.00    +0.000 C 
ENDBRANCH  16  23
ENDBRANCH  15  18
ENDBRANCH   1  15
TORSDOF 4
ENDMDL
MODEL 2
REMARK VINA RESULT:    -7.332      2.416      6.198
REMARK INTER + INTRA:          -8.947
REMARK INTER:                  -8.066
REMARK INTRA:                  -0.882
REMARK UNBOUND:                 0.099
REMARK  Name = 
REMARK  7 active torsions:
REMARK  status: ('A' for Active; 'I' for Inactive)
REMARK    1  A    between atoms: C_1  and  C_2
REMARK    2  A    between atoms: C_2  and  C_3
REMARK    3  A    between atoms: C_2  and  C_4
REMARK    4  A    between atoms: C_2  and  C_5
REMARK    5  A    between atoms: C_7  and  C_8
REMARK    6  A    between atoms: C_8  and  N_9
REMARK    7  A    between atoms: C_11  and  C_12
REMARK                            x       y       z     vdW  Elec       q    Type
REMARK                         _______ _______ _______ _____ _____    ______ ____
ROOT
ATOM      1  N   UNL     1      46.088   5.935  13.296  0.00  0.00    +0.000 N 
ATOM      2  C   UNL     1      44.987   6.669  12.946  0.00  0.00    +0.000 A 
ATOM      3  C   UNL     1      45.416   7.728  12.158  0.00  0.00    +0.000 A 
ATOM      4  C   UNL     1      46.851   7.749  12.255  0.00  0.00    +0.000 A 
ATOM      5  C   UNL     1      47.903   8.509  11.709  0.00  0.00    +0.000 A 
ATOM      6  C   UNL     1      49.214   8.174  12.056  0.00  0.00    +0.000 A 
ATOM      7  C   UNL     1      49.432   7.100  12.903  0.00  0.00    +0.000 A 
ATOM      8  N   UNL     1      48.472   6.298  13.412  0.00  0.00    +0.000 NA
ATOM      9  C   UNL     1      47.224   6.664  13.050  0.00  0.00    +0.000 A 
ENDROOT
BRANCH   3  10
ATOM     10  C   UNL     1      44.487   8.523  11.373  0.00  0.00    +0.000 C 
ATOM     11  N   UNL     1      43.333   7.912  10.993  0.00  0.00    +0.000 N 
ATOM     12  O   UNL     1      44.712   9.683  11.038  0.00  0.00    +0.000 OA
ATOM     13  H   UNL     1      43.257   6.906  10.997  0.00  0.00    +0.000 HD
ATOM     14  H   UNL     1      42.748   8.439  10.360  0.00  0.00    +0.000 HD
ENDBRANCH   3  10
BRANCH   1  15
ATOM     15  C   UNL     1      46.065   4.497  13.522  0.00  0.00    +0.000 C 
BRANCH  15  18
ATOM     16  C   UNL     1      44.887   3.403  10.067  0.00  0.00    +0.000 A 
ATOM     17  C   UNL     1      45.686   3.919  11.092  0.00  0.00    +0.000 A 
ATOM     18  C   UNL     1      45.255   3.844  12.421  0.00  0.00    +0.000 A 
ATOM     19  C   UNL     1      44.012   3.264  12.681  0.00  0.00    +0.000 A 
ATOM     20  C   UNL     1      43.272   2.786  11.614  0.00  0.00    +0.000 A 
ATOM     21  N   UNL     1      43.685   2.834  10.329  0.00  0.00    +0.000 NA
BRANCH  16  23
ATOM     22  C   UNL     1      46.116   2.134   8.296  0.00  0.00    +0.000 C 
ATOM     23  C   UNL     1      45.361   3.440   8.611  0.00  0.00    +0.000 C 
ATOM     24  C   UNL     1      46.284   4.649   8.369  0.00  0.00    +0.000 C 
ATOM     25  C   UNL     1      44.178   3.553   7.629  0.00  0.00    +0.000 C 
ENDBRANCH  16  23
ENDBRANCH  15  18
ENDBRANCH   1  15
TORSDOF 4
ENDMDL
MODEL 3
REMARK VINA RESULT:    -7.183      2.500      6.450
REMARK INTER + INTRA:          -8.763
REMARK INTER:                  -7.893
REMARK INTRA:                  -0.870
REMARK UNBOUND:                 0.099
REMARK  Name = 
REMARK  7 active torsions:
REMARK  status: ('A' for Active; 'I' for Inactive)
REMARK    1  A    between atoms: C_1  and  C_2
REMARK    2  A    between atoms: C_2  and  C_3
REMARK    3  A    between atoms: C_2  and  C_4
REMARK    4  A    between atoms: C_2  and  C_5
REMARK    5  A    between atoms: C_7  and  C_8
REMARK    6  A    between atoms: C_8  and  N_9
REMARK    7  A    between atoms: C_11  and  C_12
REMARK                            x       y       z     vdW  Elec       q    Type
REMARK                         _______ _______ _______ _____ _____    ______ ____
ROOT
ATOM      1  N   UNL     1      46.461   5.759  13.285  0.00  0.00    +0.000 N 
ATOM      2  C   UNL     1      46.767   5.025  14.399  0.00  0.00    +0.000 A 
ATOM      3  C   UNL     1      47.895   5.587  14.981  0.00  0.00    +0.000 A 
ATOM      4  C   UNL     1      48.407   6.539  14.032  0.00  0.00    +0.000 A 
ATOM      5  C   UNL     1      49.472   7.460  13.978  0.00  0.00    +0.000 A 
ATOM      6  C   UNL     1      49.612   8.247  12.834  0.00  0.00    +0.000 A 
ATOM      7  C   UNL     1      48.693   8.110  11.807  0.00  0.00    +0.000 A 
ATOM      8  N   UNL     1      47.620   7.290  11.821  0.00  0.00    +0.000 NA
ATOM      9  C   UNL     1      47.530   6.550  12.946  0.00  0.00    +0.000 A 
ENDROOT
BRANCH   3  10
ATOM     10  C   UNL     1      48.310   5.246  16.331  0.00  0.00    +0.000 C 
ATOM     11  N   UNL     1      47.328   5.175  17.269  0.00  0.00    +0.000 N 
ATOM     12  O   UNL     1      49.480   5.046  16.643  0.00  0.00    +0.000 OA
ATOM     13  H   UNL     1      46.432   5.610  17.112  0.00  0.00    +0.000 HD
ATOM     14  H   UNL     1      47.643   5.043  18.221  0.00  0.00    +0.000 HD
ENDBRANCH   3  10
BRANCH   1  15
ATOM     15  C   UNL     1      45.106   5.949  12.787  0.00  0.00    +0.000 C 
BRANCH  15  18
ATOM     16  C   UNL     1      44.803   3.528   9.859  0.00  0.00    +0.000 A 
ATOM     17  C   UNL     1      45.238   4.586  10.664  0.00  0.00    +0.000 A 
ATOM     18  C   UNL     1      44.720   4.745  11.954  0.00  0.00    +0.000 A 
ATOM     19  C   UNL     1      43.755   3.836  12.394  0.00  0.00    +0.000 A 
ATOM     20  C   UNL     1      43.365   2.822  11.537  0.00  0.00    +0.000 A 
ATOM     21  N   UNL     1      43.872   2.647  10.298  0.00  0.00    +0.000 NA
BRANCH  16  23
ATOM     22  C   UNL     1      44.252   3.382   7.424  0.00  0.00    +0.000 C 
ATOM     23  C   UNL     1      45.390   3.316   8.460  0.00  0.00    +0.000 C 
ATOM     24  C   UNL     1      46.100   1.952   8.370  0.00  0.00    +0.000 C 
ATOM     25  C   UNL     1      46.422   4.404   8.104  0.00  0.00    +0.000 C 
ENDBRANCH  16  23
ENDBRANCH  15  18
ENDBRANCH   1  15
TORSDOF 4
ENDMDL
MODEL 4
REMARK VINA RESULT:    -7.054      2.716      6.619
REMARK INTER + INTRA:          -8.604
REMARK INTER:                  -7.967
REMARK INTRA:                  -0.637
REMARK UNBOUND:                 0.099
REMARK  Name = 
REMARK  7 active torsions:
REMARK  status: ('A' for Active; 'I' for Inactive)
REMARK    1  A    between atoms: C_1  and  C_2
REMARK    2  A    between atoms: C_2  and  C_3
REMARK    3  A    between atoms: C_2  and  C_4
REMARK    4  A    between atoms: C_2  and  C_5
REMARK    5  A    between atoms: C_7  and  C_8
REMARK    6  A    between atoms: C_8  and  N_9
REMARK    7  A    between atoms: C_11  and  C_12
REMARK                            x       y       z     vdW  Elec       q    Type
REMARK                         _______ _______ _______ _____ _____    ______ ____
ROOT
ATOM      1  N   UNL     1      45.800   6.714  12.479  0.00  0.00    +0.000 N 
ATOM      2  C   UNL     1      47.048   6.216  12.740  0.00  0.00    +0.000 A 
ATOM      3  C   UNL     1      47.914   7.292  12.875  0.00  0.00    +0.000 A 
ATOM      4  C   UNL     1      47.189   8.453  12.435  0.00  0.00    +0.000 A 
ATOM      5  C   UNL     1      47.433   9.837  12.335  0.00  0.00    +0.000 A 
ATOM      6  C   UNL     1      46.411  10.659  11.858  0.00  0.00    +0.000 A 
ATOM      7  C   UNL     1      45.193  10.091  11.521  0.00  0.00    +0.000 A 
ATOM      8  N   UNL     1      44.877   8.784  11.648  0.00  0.00    +0.000 NA
ATOM      9  C   UNL     1      45.897   8.032  12.111  0.00  0.00    +0.000 A 
ENDROOT
BRANCH   3  10
ATOM     10  C   UNL     1      49.241   7.139  13.448  0.00  0.00    +0.000 C 
ATOM     11  N   UNL     1      50.286   7.533  12.672  0.00  0.00    +0.000 N 
ATOM     12  O   UNL     1      49.442   6.665  14.562  0.00  0.00    +0.000 OA
ATOM     13  H   UNL     1      50.177   7.642  11.675  0.00  0.00    +0.000 HD
ATOM     14  H   UNL     1      51.205   7.322  13.037  0.00  0.00    +0.000 HD
ENDBRANCH   3  10
BRANCH   1  15
ATOM     15  C   UNL     1      44.566   6.066  12.898  0.00  0.00    +0.000 C 
BRANCH  15  18
ATOM     16  C   UNL     1      44.654   3.598   9.996  0.00  0.00    +0.000 A 
ATOM     17  C   UNL     1      44.918   4.718  10.790  0.00  0.00    +0.000 A 
ATOM     18  C   UNL     1      44.373   4.809  12.076  0.00  0.00    +0.000 A 
ATOM     19  C   UNL     1      43.555   3.768  12.521  0.00  0.00    +0.000 A 
ATOM     20  C   UNL     1      43.330   2.697  11.674  0.00  0.00    +0.000 A 
ATOM     21  N   UNL     1      43.865   2.589  10.440  0.00  0.00    +0.000 NA
BRANCH  16  23
ATOM     22  C   UNL     1      44.163   3.573   7.543  0.00  0.00    +0.000 C 
ATOM     23  C   UNL     1      45.276   3.463   8.602  0.00  0.00    +0.000 C 
ATOM     24  C   UNL     1      46.001   2.111   8.458  0.00  0.00    +0.000 C 
ATOM     25  C   UNL     1      46.306   4.576   8.327  0.00  0.00    +0.000 C 
ENDBRANCH  16  23
ENDBRANCH  15  18
ENDBRANCH   1  15
TORSDOF 4
ENDMDL
MODEL 5
REMARK VINA RESULT:    -6.805      2.136      3.605
REMARK INTER + INTRA:          -8.297
REMARK INTER:                  -7.515
REMARK INTRA:                  -0.782
REMARK UNBOUND:                 0.099
REMARK  Name = 
REMARK  7 active torsions:
REMARK  status: ('A' for Active; 'I' for Inactive)
REMARK    1  A    between atoms: C_1  and  C_2
REMARK    2  A    between atoms: C_2  and  C_3
REMARK    3  A    between atoms: C_2  and  C_4
REMARK    4  A    between atoms: C_2  and  C_5
REMARK    5  A    between atoms: C_7  and  C_8
REMARK    6  A    between atoms: C_8  and  N_9
REMARK    7  A    between atoms: C_11  and  C_12
REMARK                            x       y       z     vdW  Elec       q    Type
REMARK                         _______ _______ _______ _____ _____    ______ ____
ROOT
ATOM      1  N   UNL     1      45.207   6.314  11.182  0.00  0.00    +0.000 N 
ATOM      2  C   UNL     1      45.822   6.010   9.997  0.00  0.00    +0.000 A 
ATOM      3  C   UNL     1      45.396   4.747   9.611  0.00  0.00    +0.000 A 
ATOM      4  C   UNL     1      44.694   4.194  10.738  0.00  0.00    +0.000 A 
ATOM      5  C   UNL     1      43.997   3.005  11.028  0.00  0.00    +0.000 A 
ATOM      6  C   UNL     1      43.415   2.867  12.289  0.00  0.00    +0.000 A 
ATOM      7  C   UNL     1      43.527   3.906  13.199  0.00  0.00    +0.000 A 
ATOM      8  N   UNL     1      44.130   5.091  12.963  0.00  0.00    +0.000 NA
ATOM      9  C   UNL     1      44.677   5.175  11.732  0.00  0.00    +0.000 A 
ENDROOT
BRANCH   3  10
ATOM     10  C   UNL     1      45.615   4.244   8.265  0.00  0.00    +0.000 C 
ATOM     11  N   UNL     1      44.598   3.531   7.710  0.00  0.00    +0.000 N 
ATOM     12  O   UNL     1      46.658   4.420   7.643  0.00  0.00    +0.000 OA
ATOM     13  H   UNL     1      43.875   3.130   8.287  0.00  0.00    +0.000 HD
ATOM     14  H   UNL     1      44.804   3.097   6.821  0.00  0.00    +0.000 HD
ENDBRANCH   3  10
BRANCH   1  15
ATOM     15  C   UNL     1      44.848   7.666  11.584  0.00  0.00    +0.000 C 
BRANCH  15  18
ATOM     16  C   UNL     1      47.893   8.382  13.761  0.00  0.00    +0.000 A 
ATOM     17  C   UNL     1      46.823   7.713  13.159  0.00  0.00    +0.000 A 
ATOM     18  C   UNL     1      46.073   8.345  12.161  0.00  0.00    +0.000 A 
ATOM     19  C   UNL     1      46.413   9.652  11.808  0.00  0.00    +0.000 A 
ATOM     20  C   UNL     1      47.477  10.254  12.456  0.00  0.00    +0.000 A 
ATOM     21  N   UNL     1      48.220   9.649  13.406  0.00  0.00    +0.000 NA
BRANCH  16  23
ATOM     22  C   UNL     1      48.617   8.460  16.154  0.00  0.00    +0.000 C 
ATOM     23  C   UNL     1      48.750   7.690  14.826  0.00  0.00    +0.000 C 
ATOM     24  C   UNL     1      50.227   7.648  14.392  0.00  0.00    +0.000 C 
ATOM     25  C   UNL     1      48.294   6.238  15.070  0.00  0.00    +0.000 C 
ENDBRANCH  16  23
ENDBRANCH  15  18
ENDBRANCH   1  15
TORSDOF 4
ENDMDL
MODEL 6
REMARK VINA RESULT:    -6.714      2.124      3.609
REMARK INTER + INTRA:          -8.184
REMARK INTER:                  -7.515
REMARK INTRA:                  -0.669
REMARK UNBOUND:                 0.099
REMARK  Name = 
REMARK  7 active torsions:
REMARK  status: ('A' for Active; 'I' for Inactive)
REMARK    1  A    between atoms: C_1  and  C_2
REMARK    2  A    between atoms: C_2  and  C_3
REMARK    3  A    between atoms: C_2  and  C_4
REMARK    4  A    between atoms: C_2  and  C_5
REMARK    5  A    between atoms: C_7  and  C_8
REMARK    6  A    between atoms: C_8  and  N_9
REMARK    7  A    between atoms: C_11  and  C_12
REMARK                            x       y       z     vdW  Elec       q    Type
REMARK                         _______ _______ _______ _____ _____    ______ ____
ROOT
ATOM      1  N   UNL     1      45.535   5.990  11.180  0.00  0.00    +0.000 N 
ATOM      2  C   UNL     1      46.039   5.705   9.939  0.00  0.00    +0.000 A 
ATOM      3  C   UNL     1      45.411   4.556   9.480  0.00  0.00    +0.000 A 
ATOM      4  C   UNL     1      44.689   4.014  10.600  0.00  0.00    +0.000 A 
ATOM      5  C   UNL     1      43.837   2.918  10.836  0.00  0.00    +0.000 A 
ATOM      6  C   UNL     1      43.302   2.756  12.115  0.00  0.00    +0.000 A 
ATOM      7  C   UNL     1      43.611   3.684  13.096  0.00  0.00    +0.000 A 
ATOM      8  N   UNL     1      44.373   4.785  12.919  0.00  0.00    +0.000 NA
ATOM      9  C   UNL     1      44.867   4.896  11.668  0.00  0.00    +0.000 A 
ENDROOT
BRANCH   3  10
ATOM     10  C   UNL     1      45.487   4.146   8.088  0.00  0.00    +0.000 C 
ATOM     11  N   UNL     1      44.448   3.408   7.614  0.00  0.00    +0.000 N 
ATOM     12  O   UNL     1      46.435   4.421   7.357  0.00  0.00    +0.000 OA
ATOM     13  H   UNL     1      43.824   2.931   8.246  0.00  0.00    +0.000 HD
ATOM     14  H   UNL     1      44.565   3.040   6.680  0.00  0.00    +0.000 HD
ENDBRANCH   3  10
BRANCH   1  15
ATOM     15  C   UNL     1      45.402   7.340  11.709  0.00  0.00    +0.000 C 
BRANCH  15  18
ATOM     16  C   UNL     1      48.697   9.126  12.396  0.00  0.00    +0.000 A 
ATOM     17  C   UNL     1      47.442   8.821  11.858  0.00  0.00    +0.000 A 
ATOM     18  C   UNL     1      46.709   7.739  12.359  0.00  0.00    +0.000 A 
ATOM     19  C   UNL     1      47.275   6.977  13.383  0.00  0.00    +0.000 A 
ATOM     20  C   UNL     1      48.526   7.331  13.856  0.00  0.00    +0.000 A 
ATOM     21  N   UNL     1      49.234   8.384  13.395  0.00  0.00    +0.000 NA
BRANCH  16  23
ATOM     22  C   UNL     1      50.783   9.830  11.209  0.00  0.00    +0.000 C 
ATOM     23  C   UNL     1      49.494  10.332  11.888  0.00  0.00    +0.000 C 
ATOM     24  C   UNL     1      49.850  11.277  13.050  0.00  0.00    +0.000 C 
ATOM     25  C   UNL     1      48.697  11.147  10.851  0.00  0.00    +0.000 C 
ENDBRANCH  16  23
ENDBRANCH  15  18
ENDBRANCH   1  15
TORSDOF 4
ENDMDL
MODEL 7
REMARK VINA RESULT:    -6.698      3.507      7.521
REMARK INTER + INTRA:          -8.165
REMARK INTER:                  -7.220
REMARK INTRA:                  -0.945
REMARK UNBOUND:                 0.099
REMARK  Name = 
REMARK  7 active torsions:
REMARK  status: ('A' for Active; 'I' for Inactive)
REMARK    1  A    between atoms: C_1  and  C_2
REMARK    2  A    between atoms: C_2  and  C_3
REMARK    3  A    between atoms: C_2  and  C_4
REMARK    4  A    between atoms: C_2  and  C_5
REMARK    5  A    between atoms: C_7  and  C_8
REMARK    6  A    between atoms: C_8  and  N_9
REMARK    7  A    between atoms: C_11  and  C_12
REMARK                            x       y       z     vdW  Elec       q    Type
REMARK                         _______ _______ _______ _____ _____    ______ ____
ROOT
ATOM      1  N   UNL     1      49.167   6.526  16.104  0.00  0.00    +0.000 N 
ATOM      2  C   UNL     1      49.036   5.195  16.395  0.00  0.00    +0.000 A 
ATOM      3  C   UNL     1      48.227   5.083  17.517  0.00  0.00    +0.000 A 
ATOM      4  C   UNL     1      48.080   6.414  18.043  0.00  0.00    +0.000 A 
ATOM      5  C   UNL     1      47.392   7.022  19.111  0.00  0.00    +0.000 A 
ATOM      6  C   UNL     1      47.498   8.405  19.267  0.00  0.00    +0.000 A 
ATOM      7  C   UNL     1      48.255   9.128  18.359  0.00  0.00    +0.000 A 
ATOM      8  N   UNL     1      48.890   8.614  17.284  0.00  0.00    +0.000 NA
ATOM      9  C   UNL     1      48.759   7.274  17.179  0.00  0.00    +0.000 A 
ENDROOT
BRANCH   3  10
ATOM     10  C   UNL     1      47.642   3.814  17.915  0.00  0.00    +0.000 C 
ATOM     11  N   UNL     1      48.219   3.184  18.973  0.00  0.00    +0.000 N 
ATOM     12  O   UNL     1      46.688   3.302  17.335  0.00  0.00    +0.000 OA
ATOM     13  H   UNL     1      49.153   3.423  19.269  0.00  0.00    +0.000 HD
ATOM     14  H   UNL     1      47.871   2.256  19.171  0.00  0.00    +0.000 HD
ENDBRANCH   3  10
BRANCH   1  15
ATOM     15  C   UNL     1      49.339   7.047  14.756  0.00  0.00    +0.000 C 
BRANCH  15  18
ATOM     16  C   UNL     1      46.059   6.342  12.949  0.00  0.00    +0.000 A 
ATOM     17  C   UNL     1      47.273   6.146  13.615  0.00  0.00    +0.000 A 
ATOM     18  C   UNL     1      47.974   7.242  14.130  0.00  0.00    +0.000 A 
ATOM     19  C   UNL     1      47.437   8.517  13.941  0.00  0.00    +0.000 A 
ATOM     20  C   UNL     1      46.238   8.634  13.262  0.00  0.00    +0.000 A 
ATOM     21  N   UNL     1      45.542   7.583  12.777  0.00  0.00    +0.000 NA
BRANCH  16  23
ATOM     22  C   UNL     1      45.892   3.846  12.935  0.00  0.00    +0.000 C 
ATOM     23  C   UNL     1      45.258   5.150  12.415  0.00  0.00    +0.000 C 
ATOM     24  C   UNL     1      45.247   5.148  10.874  0.00  0.00    +0.000 C 
ATOM     25  C   UNL     1      43.792   5.189  12.891  0.00  0.00    +0.000 C 
ENDBRANCH  16  23
ENDBRANCH  15  18
ENDBRANCH   1  15
TORSDOF 4
ENDMDL
MODEL 8
REMARK VINA RESULT:    -6.674      3.256      7.050
REMARK INTER + INTRA:          -8.136
REMARK INTER:                  -7.299
REMARK INTRA:                  -0.837
REMARK UNBOUND:                 0.099
REMARK  Name = 
REMARK  7 active torsions:
REMARK  status: ('A' for Active; 'I' for Inactive)
REMARK    1  A    between atoms: C_1  and  C_2
REMARK    2  A    between atoms: C_2  and  C_3
REMARK    3  A    between atoms: C_2  and  C_4
REMARK    4  A    between atoms: C_2  and  C_5
REMARK    5  A    between atoms: C_7  and  C_8
REMARK    6  A    between atoms: C_8  and  N_9
REMARK    7  A    between atoms: C_11  and  C_12
REMARK                            x       y       z     vdW  Elec       q    Type
REMARK                         _______ _______ _______ _____ _____    ______ ____
ROOT
ATOM      1  N   UNL     1      48.071   7.756  12.546  0.00  0.00    +0.000 N 
ATOM      2  C   UNL     1      49.269   7.235  12.135  0.00  0.00    +0.000 A 
ATOM      3  C   UNL     1      50.016   8.269  11.587  0.00  0.00    +0.000 A 
ATOM      4  C   UNL     1      49.120   9.386  11.452  0.00  0.00    +0.000 A 
ATOM      5  C   UNL     1      49.208  10.722  11.013  0.00  0.00    +0.000 A 
ATOM      6  C   UNL     1      48.061  11.516  11.069  0.00  0.00    +0.000 A 
ATOM      7  C   UNL     1      46.890  10.972  11.570  0.00  0.00    +0.000 A 
ATOM      8  N   UNL     1      46.755   9.720  12.059  0.00  0.00    +0.000 NA
ATOM      9  C   UNL     1      47.890   8.993  11.982  0.00  0.00    +0.000 A 
ENDROOT
BRANCH   3  10
ATOM     10  C   UNL     1      51.439   8.132  11.331  0.00  0.00    +0.000 C 
ATOM     11  N   UNL     1      52.249   8.060  12.421  0.00  0.00    +0.000 N 
ATOM     12  O   UNL     1      51.919   8.101  10.201  0.00  0.00    +0.000 OA
ATOM     13  H   UNL     1      51.927   8.372  13.324  0.00  0.00    +0.000 HD
ATOM     14  H   UNL     1      53.241   8.074  12.229  0.00  0.00    +0.000 HD
ENDBRANCH   3  10
BRANCH   1  15
ATOM     15  C   UNL     1      47.315   7.250  13.682  0.00  0.00    +0.000 C 
BRANCH  15  18
ATOM     16  C   UNL     1      45.208   4.417  12.250  0.00  0.00    +0.000 A 
ATOM     17  C   UNL     1      45.735   5.692  12.474  0.00  0.00    +0.000 A 
ATOM     18  C   UNL     1      46.811   5.861  13.353  0.00  0.00    +0.000 A 
ATOM     19  C   UNL     1      47.317   4.732  14.000  0.00  0.00    +0.000 A 
ATOM     20  C   UNL     1      46.736   3.504  13.737  0.00  0.00    +0.000 A 
ATOM     21  N   UNL     1      45.711   3.325  12.877  0.00  0.00    +0.000 NA
BRANCH  16  23
ATOM     22  C   UNL     1      43.021   5.333  11.452  0.00  0.00    +0.000 C 
ATOM     23  C   UNL     1      44.057   4.208  11.260  0.00  0.00    +0.000 C 
ATOM     24  C   UNL     1      43.388   2.839  11.484  0.00  0.00    +0.000 C 
ATOM     25  C   UNL     1      44.546   4.256   9.799  0.00  0.00    +0.000 C 
ENDBRANCH  16  23
ENDBRANCH  15  18
ENDBRANCH   1  15
TORSDOF 4
ENDMDL
MODEL 9
REMARK VINA RESULT:    -6.557      3.023      5.067
REMARK INTER + INTRA:          -7.991
REMARK INTER:                  -7.315
REMARK INTRA:                  -0.677
REMARK UNBOUND:                 0.099
REMARK  Name = 
REMARK  7 active torsions:
REMARK  status: ('A' for Active; 'I' for Inactive)
REMARK    1  A    between atoms: C_1  and  C_2
REMARK    2  A    between atoms: C_2  and  C_3
REMARK    3  A    between atoms: C_2  and  C_4
REMARK    4  A    between atoms: C_2  and  C_5
REMARK    5  A    between atoms: C_7  and  C_8
REMARK    6  A    between atoms: C_8  and  N_9
REMARK    7  A    between atoms: C_11  and  C_12
REMARK                            x       y       z     vdW  Elec       q    Type
REMARK                         _______ _______ _______ _____ _____    ______ ____
ROOT
ATOM      1  N   UNL     1      47.122   6.374  13.471  0.00  0.00    +0.000 N 
ATOM      2  C   UNL     1      46.663   5.096  13.300  0.00  0.00    +0.000 A 
ATOM      3  C   UNL     1      45.638   5.133  12.366  0.00  0.00    +0.000 A 
ATOM      4  C   UNL     1      45.325   6.523  12.165  0.00  0.00    +0.000 A 
ATOM      5  C   UNL     1      44.440   7.268  11.361  0.00  0.00    +0.000 A 
ATOM      6  C   UNL     1      44.469   8.660  11.456  0.00  0.00    +0.000 A 
ATOM      7  C   UNL     1      45.376   9.257  12.317  0.00  0.00    +0.000 A 
ATOM      8  N   UNL     1      46.287   8.604  13.070  0.00  0.00    +0.000 NA
ATOM      9  C   UNL     1      46.217   7.262  12.945  0.00  0.00    +0.000 A 
ENDROOT
BRANCH   3  10
ATOM     10  C   UNL     1      45.136   3.927  11.731  0.00  0.00    +0.000 C 
ATOM     11  N   UNL     1      44.962   2.844  12.536  0.00  0.00    +0.000 N 
ATOM     12  O   UNL     1      44.890   3.851  10.531  0.00  0.00    +0.000 OA
ATOM     13  H   UNL     1      45.421   2.789  13.432  0.00  0.00    +0.000 HD
ATOM     14  H   UNL     1      44.716   1.985  12.064  0.00  0.00    +0.000 HD
ENDBRANCH   3  10
BRANCH   1  15
ATOM     15  C   UNL     1      48.501   6.703  13.802  0.00  0.00    +0.000 C 
BRANCH  15  18
ATOM     16  C   UNL     1      48.710   5.399  17.376  0.00  0.00    +0.000 A 
ATOM     17  C   UNL     1      48.659   5.432  15.979  0.00  0.00    +0.000 A 
ATOM     18  C   UNL     1      48.665   6.659  15.306  0.00  0.00    +0.000 A 
ATOM     19  C   UNL     1      48.702   7.828  16.067  0.00  0.00    +0.000 A 
ATOM     20  C   UNL     1      48.739   7.718  17.446  0.00  0.00    +0.000 A 
ATOM     21  N   UNL     1      48.754   6.540  18.106  0.00  0.00    +0.000 NA
BRANCH  16  23
ATOM     22  C   UNL     1      47.528   3.219  17.708  0.00  0.00    +0.000 C 
ATOM     23  C   UNL     1      48.746   4.064  18.127  0.00  0.00    +0.000 C 
ATOM     24  C   UNL     1      48.721   4.296  19.650  0.00  0.00    +0.000 C 
ATOM     25  C   UNL     1      50.019   3.260  17.799  0.00  0.00    +0.000 C 
ENDBRANCH  16  23
ENDBRANCH  15  18
ENDBRANCH   1  15
TORSDOF 4
ENDMDL
