MODEL 1
REMARK VINA RESULT:    -8.354      0.000      0.000
REMARK INTER + INTRA:         -11.645
REMARK INTER:                 -10.796
REMARK INTRA:                  -0.849
REMARK UNBOUND:                -0.849
REMARK  Name = 
REMARK  5 active torsions:
REMARK  status: ('A' for Active; 'I' for Inactive)
REMARK    1  A    between atoms: C_2  and  C_3
REMARK    2  A    between atoms: C_6  and  N_7
REMARK    3  A    between atoms: N_7  and  C_8
REMARK    4  A    between atoms: C_8  and  C_9
REMARK    5  A    between atoms: C_13  and  C_14
REMARK                            x       y       z     vdW  Elec       q    Type
REMARK                         _______ _______ _______ _____ _____    ______ ____
ROOT
ATOM      1  C   UNL     1      43.880   5.007  11.175  0.00  0.00    +0.000 C 
ATOM      2  C   UNL     1      42.594   5.121  11.984  0.00  0.00    +0.000 C 
ATOM      3  C   UNL     1      43.012   6.241  11.090  0.00  0.00    +0.000 C 
ENDROOT
BRANCH   1   4
ATOM      4  C   UNL     1      45.223   5.095  11.881  0.00  0.00    +0.000 A 
ATOM      5  C   UNL     1      45.556   4.263  12.960  0.00  0.00    +0.000 A 
ATOM      6  C   UNL     1      46.696   4.505  13.726  0.00  0.00    +0.000 A 
ATOM      7  C   UNL     1      47.515   5.598  13.435  0.00  0.00    +0.000 A 
ATOM      8  C   UNL     1      47.229   6.455  12.360  0.00  0.00    +0.000 A 
ATOM      9  C   UNL     1      46.105   6.149  11.574  0.00  0.00    +0.000 A 
BRANCH   8  10
ATOM     10  C   UNL     1      48.002   7.694  12.118  0.00  0.00    +0.000 A 
ATOM     11  C   UNL     1      49.371   7.665  11.792  0.00  0.00    +0.000 A 
ATOM     12  C   UNL     1      50.075   8.838  11.500  0.00  0.00    +0.000 A 
ATOM     13  C   UNL     1      49.427  10.068  11.539  0.00  0.00    +0.000 A 
ATOM     14  C   UNL     1      48.075  10.126  11.858  0.00  0.00    +0.000 A 
ATOM     15  C   UNL     1      47.372   8.951  12.136  0.00  0.00    +0.000 A 
ENDBRANCH   8  10
ENDBRANCH   1   4
BRANCH   1  16
ATOM     16  N   UNL     1      43.828   3.883  10.221  0.00  0.00    +0.000 N 
ATOM     17  H   UNL     1      43.377   3.058  10.611  0.00  0.00    +0.000 HD
BRANCH  16  21
ATOM     18  C   UNL     1      46.645   2.576   7.511  0.00  0.00    +0.000 A 
ATOM     19  N   UNL     1      46.385   3.897   7.504  0.00  0.00    +0.000 NA
ATOM     20  C   UNL     1      45.482   4.330   8.421  0.00  0.00    +0.000 A 
ATOM     21  C   UNL     1      44.857   3.515   9.343  0.00  0.00    +0.000 A 
ATOM     22  C   UNL     1      45.219   2.176   9.239  0.00  0.00    +0.000 A 
ATOM     23  N   UNL     1      46.102   1.676   8.349  0.00  0.00    +0.000 NA
BRANCH  18  25
ATOM     24  N   UNL     1      48.257   1.653   5.687  0.00  0.00    +0.000 NA
ATOM     25  C   UNL     1      47.530   2.062   6.498  0.00  0.00    +0.000 C 
ENDBRANCH  18  25
ENDBRANCH  16  21
ENDBRANCH   1  16
TORSDOF 5
ENDMDL
MODEL 2
REMARK VINA RESULT:    -8.163      3.108      6.832
REMARK INTER + INTRA:         -11.398
REMARK INTER:                 -10.420
REMARK INTRA:                  -0.978
REMARK UNBOUND:                -0.849
REMARK  Name = 
REMARK  5 active torsions:
REMARK  status: ('A' for Active; 'I' for Inactive)
REMARK    1  A    between atoms: C_2  and  C_3
REMARK    2  A    between atoms: C_6  and  N_7
REMARK    3  A    between atoms: N_7  and  C_8
REMARK    4  A    between atoms: C_8  and  C_9
REMARK    5  A    between atoms: C_13  and  C_14
REMARK                            x       y       z     vdW  Elec       q    Type
REMARK                         _______ _______ _______ _____ _____    ______ ____
ROOT
ATOM      1  C   UNL     1      46.048   7.223  12.109  0.00  0.00    +0.000 C 
ATOM      2  C   UNL     1      46.280   8.663  11.669  0.00  0.00    +0.000 C 
ATOM      3  C   UNL     1      45.445   8.378  12.874  0.00  0.00    +0.000 C 
ENDROOT
BRANCH   1   4
ATOM      4  C   UNL     1      45.137   6.323  11.290  0.00  0.00    +0.000 A 
ATOM      5  C   UNL     1      43.797   6.103  11.635  0.00  0.00    +0.000 A 
ATOM      6  C   UNL     1      43.047   5.112  11.002  0.00  0.00    +0.000 A 
ATOM      7  C   UNL     1      43.634   4.311  10.021  0.00  0.00    +0.000 A 
ATOM      8  C   UNL     1      44.971   4.497   9.633  0.00  0.00    +0.000 A 
ATOM      9  C   UNL     1      45.680   5.541  10.251  0.00  0.00    +0.000 A 
BRANCH   8  10
ATOM     10  C   UNL     1      45.652   3.575   8.698  0.00  0.00    +0.000 A 
ATOM     11  C   UNL     1      46.448   4.044   7.636  0.00  0.00    +0.000 A 
ATOM     12  C   UNL     1      47.141   3.163   6.800  0.00  0.00    +0.000 A 
ATOM     13  C   UNL     1      47.044   1.790   7.000  0.00  0.00    +0.000 A 
ATOM     14  C   UNL     1      46.264   1.298   8.041  0.00  0.00    +0.000 A 
ATOM     15  C   UNL     1      45.584   2.182   8.883  0.00  0.00    +0.000 A 
ENDBRANCH   8  10
ENDBRANCH   1   4
BRANCH   1  16
ATOM     16  N   UNL     1      47.311   6.551  12.471  0.00  0.00    +0.000 N 
ATOM     17  H   UNL     1      47.832   6.232  11.656  0.00  0.00    +0.000 HD
BRANCH  16  21
ATOM     18  C   UNL     1      47.666   4.181  15.825  0.00  0.00    +0.000 A 
ATOM     19  N   UNL     1      47.047   3.622  14.767  0.00  0.00    +0.000 NA
ATOM     20  C   UNL     1      46.962   4.393  13.652  0.00  0.00    +0.000 A 
ATOM     21  C   UNL     1      47.481   5.667  13.545  0.00  0.00    +0.000 A 
ATOM     22  C   UNL     1      48.094   6.119  14.710  0.00  0.00    +0.000 A 
ATOM     23  N   UNL     1      48.208   5.411  15.854  0.00  0.00    +0.000 NA
BRANCH  18  25
ATOM     24  N   UNL     1      47.718   2.838  18.054  0.00  0.00    +0.000 NA
ATOM     25  C   UNL     1      47.700   3.432  17.054  0.00  0.00    +0.000 C 
ENDBRANCH  18  25
ENDBRANCH  16  21
ENDBRANCH   1  16
TORSDOF 5
ENDMDL
MODEL 3
REMARK VINA RESULT:    -7.358      1.836      3.793
REMARK INTER + INTRA:         -10.358
REMARK INTER:                  -9.863
REMARK INTRA:                  -0.495
REMARK UNBOUND:                -0.849
REMARK  Name = 
REMARK  5 active torsions:
REMARK  status: ('A' for Active; 'I' for Inactive)
REMARK    1  A    between atoms: C_2  and  C_3
REMARK    2  A    between atoms: C_6  and  N_7
REMARK    3  A    between atoms: N_7  and  C_8
REMARK    4  A    between atoms: C_8  and  C_9
REMARK    5  A    between atoms: C_13  and  C_14
REMARK                            x       y       z     vdW  Elec       q    Type
REMARK                         _______ _______ _______ _____ _____    ______ ____
ROOT
ATOM      1  C   UNL     1      44.083   5.050  11.786  0.00  0.00    +0.000 C 
ATOM      2  C   UNL     1      42.781   5.126  12.574  0.00  0.00    +0.000 C 
ATOM      3  C   UNL     1      42.966   5.974  11.359  0.00  0.00    +0.000 C 
ENDROOT
BRANCH   1   4
ATOM      4  C   UNL     1      45.352   5.646  12.373  0.00  0.00    +0.000 A 
ATOM      5  C   UNL     1      46.174   6.517  11.645  0.00  0.00    +0.000 A 
ATOM      6  C   UNL     1      47.436   6.877  12.119  0.00  0.00    +0.000 A 
ATOM      7  C   UNL     1      47.903   6.354  13.326  0.00  0.00    +0.000 A 
ATOM      8  C   UNL     1      47.115   5.484  14.097  0.00  0.00    +0.000 A 
ATOM      9  C   UNL     1      45.828   5.188  13.617  0.00  0.00    +0.000 A 
BRANCH   8  10
ATOM     10  C   UNL     1      47.641   4.812  15.306  0.00  0.00    +0.000 A 
ATOM     11  C   UNL     1      47.504   3.425  15.506  0.00  0.00    +0.000 A 
ATOM     12  C   UNL     1      48.064   2.791  16.619  0.00  0.00    +0.000 A 
ATOM     13  C   UNL     1      48.764   3.532  17.566  0.00  0.00    +0.000 A 
ATOM     14  C   UNL     1      48.913   4.904  17.395  0.00  0.00    +0.000 A 
ATOM     15  C   UNL     1      48.365   5.532  16.273  0.00  0.00    +0.000 A 
ENDBRANCH   8  10
ENDBRANCH   1   4
BRANCH   1  16
ATOM     16  N   UNL     1      44.309   3.702  11.231  0.00  0.00    +0.000 N 
ATOM     17  H   UNL     1      44.705   3.058  11.914  0.00  0.00    +0.000 HD
BRANCH  16  21
ATOM     18  C   UNL     1      46.006   3.090   7.525  0.00  0.00    +0.000 A 
ATOM     19  N   UNL     1      45.739   1.983   8.244  0.00  0.00    +0.000 NA
ATOM     20  C   UNL     1      45.148   2.186   9.450  0.00  0.00    +0.000 A 
ATOM     21  C   UNL     1      44.799   3.425   9.948  0.00  0.00    +0.000 A 
ATOM     22  C   UNL     1      45.130   4.478   9.102  0.00  0.00    +0.000 A 
ATOM     23  N   UNL     1      45.723   4.351   7.895  0.00  0.00    +0.000 NA
BRANCH  18  25
ATOM     24  N   UNL     1      47.275   2.778   5.274  0.00  0.00    +0.000 NA
ATOM     25  C   UNL     1      46.711   2.926   6.280  0.00  0.00    +0.000 C 
ENDBRANCH  18  25
ENDBRANCH  16  21
ENDBRANCH   1  16
TORSDOF 5
ENDMDL
MODEL 4
REMARK VINA RESULT:    -6.794      1.169      2.127
REMARK INTER + INTRA:          -9.629
REMARK INTER:                  -9.562
REMARK INTRA:                  -0.067
REMARK UNBOUND:                -0.849
REMARK  Name = 
REMARK  5 active torsions:
REMARK  status: ('A' for Active; 'I' for Inactive)
REMARK    1  A    between atoms: C_2  and  C_3
REMARK    2  A    between atoms: C_6  and  N_7
REMARK    3  A    between atoms: N_7  and  C_8
REMARK    4  A    between atoms: C_8  and  C_9
REMARK    5  A    between atoms: C_13  and  C_14
REMARK                            x       y       z     vdW  Elec       q    Type
REMARK                         _______ _______ _______ _____ _____    ______ ____
ROOT
ATOM      1  C   UNL     1      44.081   4.268  11.629  0.00  0.00    +0.000 C 
ATOM      2  C   UNL     1      44.819   3.180  12.399  0.00  0.00    +0.000 C 
ATOM      3  C   UNL     1      43.422   3.546  12.781  0.00  0.00    +0.000 C 
ENDROOT
BRANCH   1   4
ATOM      4  C   UNL     1      44.490   5.721  11.803  0.00  0.00    +0.000 A 
ATOM      5  C   UNL     1      43.698   6.782  11.340  0.00  0.00    +0.000 A 
ATOM      6  C   UNL     1      44.190   8.087  11.315  0.00  0.00    +0.000 A 
ATOM      7  C   UNL     1      45.493   8.350  11.740  0.00  0.00    +0.000 A 
ATOM      8  C   UNL     1      46.324   7.325  12.220  0.00  0.00    +0.000 A 
ATOM      9  C   UNL     1      45.777   6.031  12.284  0.00  0.00    +0.000 A 
BRANCH   8  10
ATOM     10  C   UNL     1      47.749   7.556  12.544  0.00  0.00    +0.000 A 
ATOM     11  C   UNL     1      48.276   7.283  13.820  0.00  0.00    +0.000 A 
ATOM     12  C   UNL     1      49.639   7.442  14.095  0.00  0.00    +0.000 A 
ATOM     13  C   UNL     1      50.503   7.891  13.101  0.00  0.00    +0.000 A 
ATOM     14  C   UNL     1      50.009   8.171  11.832  0.00  0.00    +0.000 A 
ATOM     15  C   UNL     1      48.650   7.997  11.558  0.00  0.00    +0.000 A 
ENDBRANCH   8  10
ENDBRANCH   1   4
BRANCH   1  16
ATOM     16  N   UNL     1      43.904   3.909  10.208  0.00  0.00    +0.000 N 
ATOM     17  H   UNL     1      43.086   3.323  10.051  0.00  0.00    +0.000 HD
BRANCH  16  21
ATOM     18  C   UNL     1      46.723   2.691   7.459  0.00  0.00    +0.000 A 
ATOM     19  N   UNL     1      46.500   4.018   7.531  0.00  0.00    +0.000 NA
ATOM     20  C   UNL     1      45.595   4.419   8.461  0.00  0.00    +0.000 A 
ATOM     21  C   UNL     1      44.935   3.567   9.323  0.00  0.00    +0.000 A 
ATOM     22  C   UNL     1      45.263   2.227   9.142  0.00  0.00    +0.000 A 
ATOM     23  N   UNL     1      46.145   1.758   8.233  0.00  0.00    +0.000 NA
BRANCH  18  25
ATOM     24  N   UNL     1      48.320   1.817   5.599  0.00  0.00    +0.000 NA
ATOM     25  C   UNL     1      47.608   2.216   6.428  0.00  0.00    +0.000 C 
ENDBRANCH  18  25
ENDBRANCH  16  21
ENDBRANCH   1  16
TORSDOF 5
ENDMDL
MODEL 5
REMARK VINA RESULT:    -6.459      3.094      6.749
REMARK INTER + INTRA:          -9.196
REMARK INTER:                  -8.956
REMARK INTRA:                  -0.240
REMARK UNBOUND:                -0.849
REMARK  Name = 
REMARK  5 active torsions:
REMARK  status: ('A' for Active; 'I' for Inactive)
REMARK    1  A    between atoms: C_2  and  C_3
REMARK    2  A    between atoms: C_6  and  N_7
REMARK    3  A    between atoms: N_7  and  C_8
REMARK    4  A    between atoms: C_8  and  C_9
REMARK    5  A    between atoms: C_13  and  C_14
REMARK                            x       y       z     vdW  Elec       q    Type
REMARK                         _______ _______ _______ _____ _____    ______ ____
ROOT
ATOM      1  C   UNL     1      46.015   5.071  13.148  0.00  0.00    +0.000 C 
ATOM      2  C   UNL     1      46.315   4.453  14.507  0.00  0.00    +0.000 C 
ATOM      3  C   UNL     1      47.395   4.553  13.480  0.00  0.00    +0.000 C 
ENDROOT
BRANCH   1   4
ATOM      4  C   UNL     1      45.160   4.309  12.148  0.00  0.00    +0.000 A 
ATOM      5  C   UNL     1      43.980   3.650  12.522  0.00  0.00    +0.000 A 
ATOM      6  C   UNL     1      43.334   2.782  11.642  0.00  0.00    +0.000 A 
ATOM      7  C   UNL     1      43.869   2.546  10.374  0.00  0.00    +0.000 A 
ATOM      8  C   UNL     1      45.044   3.187   9.949  0.00  0.00    +0.000 A 
ATOM      9  C   UNL     1      45.637   4.098  10.840  0.00  0.00    +0.000 A 
BRANCH   8  10
ATOM     10  C   UNL     1      45.703   2.849   8.668  0.00  0.00    +0.000 A 
ATOM     11  C   UNL     1      45.996   3.828   7.700  0.00  0.00    +0.000 A 
ATOM     12  C   UNL     1      46.679   3.506   6.522  0.00  0.00    +0.000 A 
ATOM     13  C   UNL     1      47.073   2.194   6.281  0.00  0.00    +0.000 A 
ATOM     14  C   UNL     1      46.796   1.207   7.219  0.00  0.00    +0.000 A 
ATOM     15  C   UNL     1      46.126   1.534   8.401  0.00  0.00    +0.000 A 
ENDBRANCH   8  10
ENDBRANCH   1   4
BRANCH   1  16
ATOM     16  N   UNL     1      45.601   6.482  13.267  0.00  0.00    +0.000 N 
ATOM     17  H   UNL     1      44.617   6.622  13.048  0.00  0.00    +0.000 HD
BRANCH  16  21
ATOM     18  C   UNL     1      47.874   9.580  11.775  0.00  0.00    +0.000 A 
ATOM     19  N   UNL     1      46.667   9.915  12.268  0.00  0.00    +0.000 NA
ATOM     20  C   UNL     1      45.934   8.898  12.790  0.00  0.00    +0.000 A 
ATOM     21  C   UNL     1      46.361   7.587  12.860  0.00  0.00    +0.000 A 
ATOM     22  C   UNL     1      47.625   7.383  12.317  0.00  0.00    +0.000 A 
ATOM     23  N   UNL     1      48.404   8.345  11.775  0.00  0.00    +0.000 NA
BRANCH  18  25
ATOM     24  N   UNL     1      49.280  11.436  10.611  0.00  0.00    +0.000 NA
ATOM     25  C   UNL     1      48.646  10.612  11.133  0.00  0.00    +0.000 C 
ENDBRANCH  18  25
ENDBRANCH  16  21
ENDBRANCH   1  16
TORSDOF 5
ENDMDL
MODEL 6
REMARK VINA RESULT:    -6.307      5.766      8.408
REMARK INTER + INTRA:          -9.001
REMARK INTER:                  -8.428
REMARK INTRA:                  -0.572
REMARK UNBOUND:                -0.849
REMARK  Name = 
REMARK  5 active torsions:
REMARK  status: ('A' for Active; 'I' for Inactive)
REMARK    1  A    between atoms: C_2  and  C_3
REMARK    2  A    between atoms: C_6  and  N_7
REMARK    3  A    between atoms: N_7  and  C_8
REMARK    4  A    between atoms: C_8  and  C_9
REMARK    5  A    between atoms: C_13  and  C_14
REMARK                            x       y       z     vdW  Elec       q    Type
REMARK                         _______ _______ _______ _____ _____    ______ ____
ROOT
ATOM      1  C   UNL     1      48.154   4.444  17.018  0.00  0.00    +0.000 C 
ATOM      2  C   UNL     1      47.200   4.760  18.162  0.00  0.00    +0.000 C 
ATOM      3  C   UNL     1      47.173   3.411  17.522  0.00  0.00    +0.000 C 
ENDROOT
BRANCH   1   4
ATOM      4  C   UNL     1      47.926   5.075  15.653  0.00  0.00    +0.000 A 
ATOM      5  C   UNL     1      48.574   6.253  15.257  0.00  0.00    +0.000 A 
ATOM      6  C   UNL     1      48.189   6.928  14.098  0.00  0.00    +0.000 A 
ATOM      7  C   UNL     1      47.135   6.441  13.324  0.00  0.00    +0.000 A 
ATOM      8  C   UNL     1      46.460   5.260  13.673  0.00  0.00    +0.000 A 
ATOM      9  C   UNL     1      46.910   4.576  14.815  0.00  0.00    +0.000 A 
BRANCH   8  10
ATOM     10  C   UNL     1      45.254   4.802  12.947  0.00  0.00    +0.000 A 
ATOM     11  C   UNL     1      44.072   5.564  12.911  0.00  0.00    +0.000 A 
ATOM     12  C   UNL     1      42.962   5.152  12.166  0.00  0.00    +0.000 A 
ATOM     13  C   UNL     1      43.006   3.960  11.449  0.00  0.00    +0.000 A 
ATOM     14  C   UNL     1      44.161   3.186  11.468  0.00  0.00    +0.000 A 
ATOM     15  C   UNL     1      45.273   3.608  12.203  0.00  0.00    +0.000 A 
ENDBRANCH   8  10
ENDBRANCH   1   4
BRANCH   1  16
ATOM     16  N   UNL     1      49.565   4.533  17.440  0.00  0.00    +0.000 N 
ATOM     17  H   UNL     1      50.005   5.405  17.154  0.00  0.00    +0.000 HD
BRANCH  16  21
ATOM     18  C   UNL     1      52.327   1.484  17.682  0.00  0.00    +0.000 A 
ATOM     19  N   UNL     1      51.131   1.159  17.156  0.00  0.00    +0.000 NA
ATOM     20  C   UNL     1      50.235   2.173  17.046  0.00  0.00    +0.000 A 
ATOM     21  C   UNL     1      50.488   3.479  17.411  0.00  0.00    +0.000 A 
ATOM     22  C   UNL     1      51.761   3.674  17.937  0.00  0.00    +0.000 A 
ATOM     23  N   UNL     1      52.698   2.712  18.082  0.00  0.00    +0.000 NA
BRANCH  18  25
ATOM     24  N   UNL     1      54.036  -0.437  18.088  0.00  0.00    +0.000 NA
ATOM     25  C   UNL     1      53.275   0.421  17.898  0.00  0.00    +0.000 C 
ENDBRANCH  18  25
ENDBRANCH  16  21
ENDBRANCH   1  16
TORSDOF 5
ENDMDL
MODEL 7
REMARK VINA RESULT:    -6.163      3.244      6.787
REMARK INTER + INTRA:          -8.814
REMARK INTER:                  -8.010
REMARK INTRA:                  -0.804
REMARK UNBOUND:                -0.849
REMARK  Name = 
REMARK  5 active torsions:
REMARK  status: ('A' for Active; 'I' for Inactive)
REMARK    1  A    between atoms: C_2  and  C_3
REMARK    2  A    between atoms: C_6  and  N_7
REMARK    3  A    between atoms: N_7  and  C_8
REMARK    4  A    between atoms: C_8  and  C_9
REMARK    5  A    between atoms: C_13  and  C_14
REMARK                            x       y       z     vdW  Elec       q    Type
REMARK                         _______ _______ _______ _____ _____    ______ ____
ROOT
ATOM      1  C   UNL     1      46.298   5.199  13.282  0.00  0.00    +0.000 C 
ATOM      2  C   UNL     1      45.965   4.404  14.538  0.00  0.00    +0.000 C 
ATOM      3  C   UNL     1      47.137   4.013  13.699  0.00  0.00    +0.000 C 
ENDROOT
BRANCH   1   4
ATOM      4  C   UNL     1      45.406   5.080  12.058  0.00  0.00    +0.000 A 
ATOM      5  C   UNL     1      44.031   5.352  12.105  0.00  0.00    +0.000 A 
ATOM      6  C   UNL     1      43.199   5.029  11.033  0.00  0.00    +0.000 A 
ATOM      7  C   UNL     1      43.729   4.411   9.900  0.00  0.00    +0.000 A 
ATOM      8  C   UNL     1      45.100   4.125   9.799  0.00  0.00    +0.000 A 
ATOM      9  C   UNL     1      45.918   4.516  10.873  0.00  0.00    +0.000 A 
BRANCH   8  10
ATOM     10  C   UNL     1      45.659   3.349   8.670  0.00  0.00    +0.000 A 
ATOM     11  C   UNL     1      46.122   3.971   7.496  0.00  0.00    +0.000 A 
ATOM     12  C   UNL     1      46.710   3.233   6.463  0.00  0.00    +0.000 A 
ATOM     13  C   UNL     1      46.837   1.852   6.578  0.00  0.00    +0.000 A 
ATOM     14  C   UNL     1      46.387   1.211   7.726  0.00  0.00    +0.000 A 
ATOM     15  C   UNL     1      45.813   1.954   8.761  0.00  0.00    +0.000 A 
ENDBRANCH   8  10
ENDBRANCH   1   4
BRANCH   1  16
ATOM     16  N   UNL     1      46.626   6.604  13.595  0.00  0.00    +0.000 N 
ATOM     17  H   UNL     1      45.825   7.225  13.493  0.00  0.00    +0.000 HD
BRANCH  16  21
ATOM     18  C   UNL     1      50.274   8.254  12.617  0.00  0.00    +0.000 A 
ATOM     19  N   UNL     1      49.330   8.292  11.657  0.00  0.00    +0.000 NA
ATOM     20  C   UNL     1      48.119   7.779  11.993  0.00  0.00    +0.000 A 
ATOM     21  C   UNL     1      47.811   7.260  13.234  0.00  0.00    +0.000 A 
ATOM     22  C   UNL     1      48.876   7.285  14.129  0.00  0.00    +0.000 A 
ATOM     23  N   UNL     1      50.106   7.772  13.860  0.00  0.00    +0.000 NA
BRANCH  18  25
ATOM     24  N   UNL     1      52.660   9.080  11.983  0.00  0.00    +0.000 NA
ATOM     25  C   UNL     1      51.597   8.707  12.274  0.00  0.00    +0.000 C 
ENDBRANCH  18  25
ENDBRANCH  16  21
ENDBRANCH   1  16
TORSDOF 5
ENDMDL
MODEL 8
REMARK VINA RESULT:    -5.919      4.350      8.053
REMARK INTER + INTRA:          -8.499
REMARK INTER:                  -7.752
REMARK INTRA:                  -0.747
REMARK UNBOUND:                -0.849
REMARK  Name = 
REMARK  5 active torsions:
REMARK  status: ('A' for Active; 'I' for Inactive)
REMARK    1  A    between atoms: C_2  and  C_3
REMARK    2  A    between atoms: C_6  and  N_7
REMARK    3  A    between atoms: N_7  and  C_8
REMARK    4  A    between atoms: C_8  and  C_9
REMARK    5  A    between atoms: C_13  and  C_14
REMARK                            x       y       z     vdW  Elec       q    Type
REMARK                         _______ _______ _______ _____ _____    ______ ____
ROOT
ATOM      1  C   UNL     1      48.951   7.822  12.634  0.00  0.00    +0.000 C 
ATOM      2  C   UNL     1      50.056   7.886  11.587  0.00  0.00    +0.000 C 
ATOM      3  C   UNL     1      49.719   9.100  12.388  0.00  0.00    +0.000 C 
ENDROOT
BRANCH   1   4
ATOM      4  C   UNL     1      47.500   7.735  12.190  0.00  0.00    +0.000 A 
ATOM      5  C   UNL     1      46.506   8.574  12.713  0.00  0.00    +0.000 A 
ATOM      6  C   UNL     1      45.156   8.334  12.456  0.00  0.00    +0.000 A 
ATOM      7  C   UNL     1      44.777   7.236  11.683  0.00  0.00    +0.000 A 
ATOM      8  C   UNL     1      45.734   6.370  11.129  0.00  0.00    +0.000 A 
ATOM      9  C   UNL     1      47.086   6.674  11.360  0.00  0.00    +0.000 A 
BRANCH   8  10
ATOM     10  C   UNL     1      45.352   5.126  10.424  0.00  0.00    +0.000 A 
ATOM     11  C   UNL     1      44.610   4.110  11.056  0.00  0.00    +0.000 A 
ATOM     12  C   UNL     1      44.198   2.969  10.359  0.00  0.00    +0.000 A 
ATOM     13  C   UNL     1      44.530   2.813   9.017  0.00  0.00    +0.000 A 
ATOM     14  C   UNL     1      45.263   3.800   8.369  0.00  0.00    +0.000 A 
ATOM     15  C   UNL     1      45.661   4.945   9.064  0.00  0.00    +0.000 A 
ENDBRANCH   8  10
ENDBRANCH   1   4
BRANCH   1  16
ATOM     16  N   UNL     1      49.262   6.853  13.702  0.00  0.00    +0.000 N 
ATOM     17  H   UNL     1      49.130   5.888  13.405  0.00  0.00    +0.000 HD
BRANCH  16  21
ATOM     18  C   UNL     1      48.524   7.061  17.751  0.00  0.00    +0.000 A 
ATOM     19  N   UNL     1      48.847   8.221  17.148  0.00  0.00    +0.000 NA
ATOM     20  C   UNL     1      49.056   8.156  15.807  0.00  0.00    +0.000 A 
ATOM     21  C   UNL     1      48.935   7.005  15.056  0.00  0.00    +0.000 A 
ATOM     22  C   UNL     1      48.595   5.883  15.805  0.00  0.00    +0.000 A 
ATOM     23  N   UNL     1      48.381   5.874  17.139  0.00  0.00    +0.000 NA
BRANCH  18  25
ATOM     24  N   UNL     1      48.263   7.091  20.341  0.00  0.00    +0.000 NA
ATOM     25  C   UNL     1      48.381   7.069  19.184  0.00  0.00    +0.000 C 
ENDBRANCH  18  25
ENDBRANCH  16  21
ENDBRANCH   1  16
TORSDOF 5
ENDMDL
MODEL 9
REMARK VINA RESULT:    -5.847      3.506      6.284
REMARK INTER + INTRA:          -8.406
REMARK INTER:                  -7.701
REMARK INTRA:                  -0.704
REMARK UNBOUND:                -0.849
REMARK  Name = 
REMARK  5 active torsions:
REMARK  status: ('A' for Active; 'I' for Inactive)
REMARK    1  A    between atoms: C_2  and  C_3
REMARK    2  A    between atoms: C_6  and  N_7
REMARK    3  A    between atoms: N_7  and  C_8
REMARK    4  A    between atoms: C_8  and  C_9
REMARK    5  A    between atoms: C_13  and  C_14
REMARK                            x       y       z     vdW  Elec       q    Type
REMARK                         _______ _______ _______ _____ _____    ______ ____
ROOT
ATOM      1  C   UNL     1      48.098   7.853  13.012  0.00  0.00    +0.000 C 
ATOM      2  C   UNL     1      48.033   9.148  12.213  0.00  0.00    +0.000 C 
ATOM      3  C   UNL     1      48.566   7.907  11.576  0.00  0.00    +0.000 C 
ENDROOT
BRANCH   1   4
ATOM      4  C   UNL     1      49.128   7.704  14.120  0.00  0.00    +0.000 A 
ATOM      5  C   UNL     1      50.451   8.145  13.976  0.00  0.00    +0.000 A 
ATOM      6  C   UNL     1      51.427   7.805  14.913  0.00  0.00    +0.000 A 
ATOM      7  C   UNL     1      51.096   7.000  16.004  0.00  0.00    +0.000 A 
ATOM      8  C   UNL     1      49.784   6.540  16.199  0.00  0.00    +0.000 A 
ATOM      9  C   UNL     1      48.815   6.948  15.266  0.00  0.00    +0.000 A 
BRANCH   8  10
ATOM     10  C   UNL     1      49.441   5.576  17.268  0.00  0.00    +0.000 A 
ATOM     11  C   UNL     1      50.031   5.639  18.544  0.00  0.00    +0.000 A 
ATOM     12  C   UNL     1      49.650   4.765  19.567  0.00  0.00    +0.000 A 
ATOM     13  C   UNL     1      48.677   3.798  19.332  0.00  0.00    +0.000 A 
ATOM     14  C   UNL     1      48.078   3.713  18.081  0.00  0.00    +0.000 A 
ATOM     15  C   UNL     1      48.451   4.597  17.066  0.00  0.00    +0.000 A 
ENDBRANCH   8  10
ENDBRANCH   1   4
BRANCH   1  16
ATOM     16  N   UNL     1      46.759   7.404  13.436  0.00  0.00    +0.000 N 
ATOM     17  H   UNL     1      46.630   7.455  14.445  0.00  0.00    +0.000 HD
BRANCH  16  21
ATOM     18  C   UNL     1      44.540   4.174  12.157  0.00  0.00    +0.000 A 
ATOM     19  N   UNL     1      44.536   5.253  11.350  0.00  0.00    +0.000 NA
ATOM     20  C   UNL     1      45.296   6.302  11.757  0.00  0.00    +0.000 A 
ATOM     21  C   UNL     1      46.063   6.310  12.904  0.00  0.00    +0.000 A 
ATOM     22  C   UNL     1      45.975   5.133  13.641  0.00  0.00    +0.000 A 
ATOM     23  N   UNL     1      45.235   4.056  13.301  0.00  0.00    +0.000 NA
BRANCH  18  25
ATOM     24  N   UNL     1      42.982   2.191  11.512  0.00  0.00    +0.000 NA
ATOM     25  C   UNL     1      43.679   3.074  11.808  0.00  0.00    +0.000 C 
ENDBRANCH  18  25
ENDBRANCH  16  21
ENDBRANCH   1  16
TORSDOF 5
ENDMDL
