MODEL 1
REMARK VINA RESULT:    -7.681      0.000      0.000
REMARK INTER + INTRA:         -11.535
REMARK INTER:                 -10.600
REMARK INTRA:                  -0.936
REMARK UNBOUND:                -0.936
REMARK  Name = 
REMARK  9 active torsions:
REMARK  status: ('A' for Active; 'I' for Inactive)
REMARK    1  A    between atoms: C_1  and  C_2
REMARK    2  A    between atoms: C_2  and  N_3
REMARK    3  A    between atoms: C_2  and  C_16
REMARK    4  A    between atoms: C_4  and  C_6
REMARK    5  A    between atoms: C_19  and  C_20
REMARK    6  A    between atoms: C_20  and  N_21
REMARK    7  A    between atoms: C_22  and  C_24
REMARK    8  A    between atoms: C_25  and  N_26
REMARK    9  A    between atoms: N_29  and  C_30
REMARK                            x       y       z     vdW  Elec       q    Type
REMARK                         _______ _______ _______ _____ _____    ______ ____
ROOT
ATOM      1  C   UNL     1      47.136   5.822  14.026  0.00  0.00    +0.000 A 
ATOM      2  C   UNL     1      46.545   6.376  12.878  0.00  0.00    +0.000 A 
ATOM      3  C   UNL     1      45.859   5.570  11.962  0.00  0.00    +0.000 A 
ATOM      4  C   UNL     1      45.730   4.194  12.182  0.00  0.00    +0.000 A 
ATOM      5  C   UNL     1      46.316   3.638  13.325  0.00  0.00    +0.000 A 
ATOM      6  C   UNL     1      46.995   4.444  14.242  0.00  0.00    +0.000 A 
ENDROOT
BRANCH   1   8
ATOM      7  C   UNL     1      48.332   8.054  14.358  0.00  0.00    +0.000 C 
ATOM      8  C   UNL     1      47.885   6.730  14.991  0.00  0.00    +0.000 C 
BRANCH   8   9
ATOM      9  N   UNL     1      49.018   6.024  15.565  0.00  0.00    +0.000 N 
ATOM     10  C   UNL     1      49.053   5.656  16.886  0.00  0.00    +0.000 C 
ATOM     11  O   UNL     1      48.096   5.861  17.632  0.00  0.00    +0.000 OA
ATOM     12  H   UNL     1      49.829   5.886  14.969  0.00  0.00    +0.000 HD
BRANCH  10  13
ATOM     13  C   UNL     1      50.276   5.010  17.393  0.00  0.00    +0.000 A 
ATOM     14  C   UNL     1      51.255   5.797  17.984  0.00  0.00    +0.000 A 
ATOM     15  S   UNL     1      52.625   4.929  18.507  0.00  0.00    +0.000 S 
ATOM     16  C   UNL     1      51.968   3.462  17.955  0.00  0.00    +0.000 A 
ATOM     17  N   UNL     1      52.666   2.303  18.078  0.00  0.00    +0.000 NA
ATOM     18  C   UNL     1      52.058   1.261  17.620  0.00  0.00    +0.000 A 
ATOM     19  N   UNL     1      50.808   1.274  17.059  0.00  0.00    +0.000 N 
ATOM     20  C   UNL     1      50.065   2.422  16.911  0.00  0.00    +0.000 A 
ATOM     21  O   UNL     1      48.951   2.392  16.396  0.00  0.00    +0.000 OA
ATOM     22  C   UNL     1      50.709   3.628  17.397  0.00  0.00    +0.000 A 
ATOM     23  H   UNL     1      50.383   0.422  16.725  0.00  0.00    +0.000 HD
ENDBRANCH  10  13
ENDBRANCH   8   9
ENDBRANCH   1   8
BRANCH   4  24
ATOM     24  C   UNL     1      44.992   3.317  11.206  0.00  0.00    +0.000 C 
BRANCH  24  25
ATOM     25  N   UNL     1      45.834   2.931  10.104  0.00  0.00    +0.000 N 
ATOM     26  C   UNL     1      45.338   2.210   9.042  0.00  0.00    +0.000 C 
ATOM     27  O   UNL     1      44.176   1.820   9.001  0.00  0.00    +0.000 OA
ATOM     28  H   UNL     1      46.742   3.373   9.992  0.00  0.00    +0.000 HD
BRANCH  26  29
ATOM     29  C   UNL     1      46.285   2.002   7.978  0.00  0.00    +0.000 A 
ATOM     30  C   UNL     1      46.848   0.850   7.473  0.00  0.00    +0.000 A 
ATOM     31  N   UNL     1      47.741   1.090   6.480  0.00  0.00    +0.000 NA
ATOM     32  C   UNL     1      47.738   2.396   6.341  0.00  0.00    +0.000 A 
ATOM     33  N   UNL     1      46.863   2.990   7.207  0.00  0.00    +0.000 N 
ATOM     34  C   UNL     1      46.655   4.412   7.333  0.00  0.00    +0.000 C 
BRANCH  30  35
ATOM     35  N   UNL     1      46.595  -0.414   7.833  0.00  0.00    +0.000 N 
ATOM     36  H   UNL     1      45.736  -0.616   8.335  0.00  0.00    +0.000 HD
ATOM     37  H   UNL     1      46.778  -1.103   7.109  0.00  0.00    +0.000 HD
ENDBRANCH  30  35
ENDBRANCH  26  29
ENDBRANCH  24  25
ENDBRANCH   4  24
TORSDOF 7
ENDMDL
MODEL 2
REMARK VINA RESULT:    -7.243      4.057      9.116
REMARK INTER + INTRA:         -10.931
REMARK INTER:                  -9.861
REMARK INTRA:                  -1.070
REMARK UNBOUND:                -0.936
REMARK  Name = 
REMARK  9 active torsions:
REMARK  status: ('A' for Active; 'I' for Inactive)
REMARK    1  A    between atoms: C_1  and  C_2
REMARK    2  A    between atoms: C_2  and  N_3
REMARK    3  A    between atoms: C_2  and  C_16
REMARK    4  A    between atoms: C_4  and  C_6
REMARK    5  A    between atoms: C_19  and  C_20
REMARK    6  A    between atoms: C_20  and  N_21
REMARK    7  A    between atoms: C_22  and  C_24
REMARK    8  A    between atoms: C_25  and  N_26
REMARK    9  A    between atoms: N_29  and  C_30
REMARK                            x       y       z     vdW  Elec       q    Type
REMARK                         _______ _______ _______ _____ _____    ______ ____
ROOT
ATOM      1  C   UNL     1      48.886   6.655  15.548  0.00  0.00    +0.000 A 
ATOM      2  C   UNL     1      50.175   6.899  16.048  0.00  0.00    +0.000 A 
ATOM      3  C   UNL     1      50.732   6.079  17.036  0.00  0.00    +0.000 A 
ATOM      4  C   UNL     1      50.020   4.981  17.533  0.00  0.00    +0.000 A 
ATOM      5  C   UNL     1      48.735   4.733  17.037  0.00  0.00    +0.000 A 
ATOM      6  C   UNL     1      48.183   5.549  16.046  0.00  0.00    +0.000 A 
ENDROOT
BRANCH   1   8
ATOM      7  C   UNL     1      48.071   9.008  14.983  0.00  0.00    +0.000 C 
ATOM      8  C   UNL     1      48.311   7.578  14.484  0.00  0.00    +0.000 C 
BRANCH   8   9
ATOM      9  N   UNL     1      47.090   7.011  13.935  0.00  0.00    +0.000 N 
ATOM     10  C   UNL     1      46.973   6.679  12.609  0.00  0.00    +0.000 C 
ATOM     11  O   UNL     1      47.922   6.797  11.835  0.00  0.00    +0.000 OA
ATOM     12  H   UNL     1      46.289   6.948  14.556  0.00  0.00    +0.000 HD
BRANCH  10  13
ATOM     13  C   UNL     1      45.671   6.180  12.133  0.00  0.00    +0.000 A 
ATOM     14  C   UNL     1      44.789   7.071  11.536  0.00  0.00    +0.000 A 
ATOM     15  S   UNL     1      43.314   6.370  11.051  0.00  0.00    +0.000 S 
ATOM     16  C   UNL     1      43.791   4.845  11.628  0.00  0.00    +0.000 A 
ATOM     17  N   UNL     1      42.952   3.779  11.540  0.00  0.00    +0.000 NA
ATOM     18  C   UNL     1      43.433   2.679  12.014  0.00  0.00    +0.000 A 
ATOM     19  N   UNL     1      44.684   2.548  12.559  0.00  0.00    +0.000 N 
ATOM     20  C   UNL     1      45.565   3.597  12.671  0.00  0.00    +0.000 A 
ATOM     21  O   UNL     1      46.675   3.440  13.172  0.00  0.00    +0.000 OA
ATOM     22  C   UNL     1      45.069   4.863  12.166  0.00  0.00    +0.000 A 
ATOM     23  H   UNL     1      45.004   1.657  12.907  0.00  0.00    +0.000 HD
ENDBRANCH  10  13
ENDBRANCH   8   9
ENDBRANCH   1   8
BRANCH   4  24
ATOM     24  C   UNL     1      50.608   4.090  18.594  0.00  0.00    +0.000 C 
BRANCH  24  25
ATOM     25  N   UNL     1      51.506   3.118  18.027  0.00  0.00    +0.000 N 
ATOM     26  C   UNL     1      52.751   2.893  18.569  0.00  0.00    +0.000 C 
ATOM     27  O   UNL     1      53.176   3.535  19.524  0.00  0.00    +0.000 OA
ATOM     28  H   UNL     1      51.150   2.437  17.364  0.00  0.00    +0.000 HD
BRANCH  26  29
ATOM     29  C   UNL     1      53.476   1.815  17.948  0.00  0.00    +0.000 A 
ATOM     30  C   UNL     1      53.225   0.461  17.895  0.00  0.00    +0.000 A 
ATOM     31  N   UNL     1      54.188  -0.229  17.235  0.00  0.00    +0.000 NA
ATOM     32  C   UNL     1      55.049   0.686  16.854  0.00  0.00    +0.000 A 
ATOM     33  N   UNL     1      54.655   1.936  17.242  0.00  0.00    +0.000 N 
ATOM     34  C   UNL     1      55.400   3.151  17.014  0.00  0.00    +0.000 C 
BRANCH  30  35
ATOM     35  N   UNL     1      52.168  -0.198  18.386  0.00  0.00    +0.000 N 
ATOM     36  H   UNL     1      52.151  -0.425  19.375  0.00  0.00    +0.000 HD
ATOM     37  H   UNL     1      51.269   0.150  18.065  0.00  0.00    +0.000 HD
ENDBRANCH  30  35
ENDBRANCH  26  29
ENDBRANCH  24  25
ENDBRANCH   4  24
TORSDOF 7
ENDMDL
MODEL 3
REMARK VINA RESULT:    -7.225      4.257      4.522
REMARK INTER + INTRA:         -10.906
REMARK INTER:                  -9.759
REMARK INTRA:                  -1.147
REMARK UNBOUND:                -0.936
REMARK  Name = 
REMARK  9 active torsions:
REMARK  status: ('A' for Active; 'I' for Inactive)
REMARK    1  A    between atoms: C_1  and  C_2
REMARK    2  A    between atoms: C_2  and  N_3
REMARK    3  A    between atoms: C_2  and  C_16
REMARK    4  A    between atoms: C_4  and  C_6
REMARK    5  A    between atoms: C_19  and  C_20
REMARK    6  A    between atoms: C_20  and  N_21
REMARK    7  A    between atoms: C_22  and  C_24
REMARK    8  A    between atoms: C_25  and  N_26
REMARK    9  A    between atoms: N_29  and  C_30
REMARK                            x       y       z     vdW  Elec       q    Type
REMARK                         _______ _______ _______ _____ _____    ______ ____
ROOT
ATOM      1  C   UNL     1      45.725   7.176  12.654  0.00  0.00    +0.000 A 
ATOM      2  C   UNL     1      45.067   7.019  11.423  0.00  0.00    +0.000 A 
ATOM      3  C   UNL     1      44.788   5.746  10.914  0.00  0.00    +0.000 A 
ATOM      4  C   UNL     1      45.141   4.598  11.634  0.00  0.00    +0.000 A 
ATOM      5  C   UNL     1      45.795   4.750  12.861  0.00  0.00    +0.000 A 
ATOM      6  C   UNL     1      46.068   6.022  13.372  0.00  0.00    +0.000 A 
ENDROOT
BRANCH   1   8
ATOM      7  C   UNL     1      45.216   9.671  12.456  0.00  0.00    +0.000 C 
ATOM      8  C   UNL     1      46.023   8.578  13.167  0.00  0.00    +0.000 C 
BRANCH   8   9
ATOM      9  N   UNL     1      47.448   8.850  13.081  0.00  0.00    +0.000 N 
ATOM     10  C   UNL     1      48.248   8.902  14.194  0.00  0.00    +0.000 C 
ATOM     11  O   UNL     1      47.799   8.663  15.316  0.00  0.00    +0.000 OA
ATOM     12  H   UNL     1      47.820   9.088  12.167  0.00  0.00    +0.000 HD
BRANCH  10  13
ATOM     13  C   UNL     1      49.666   9.258  14.013  0.00  0.00    +0.000 A 
ATOM     14  C   UNL     1      50.243  10.178  14.878  0.00  0.00    +0.000 A 
ATOM     15  S   UNL     1      51.879  10.517  14.544  0.00  0.00    +0.000 S 
ATOM     16  C   UNL     1      51.881   9.451  13.220  0.00  0.00    +0.000 A 
ATOM     17  N   UNL     1      52.999   9.291  12.464  0.00  0.00    +0.000 NA
ATOM     18  C   UNL     1      52.870   8.455  11.489  0.00  0.00    +0.000 A 
ATOM     19  N   UNL     1      51.725   7.757  11.210  0.00  0.00    +0.000 N 
ATOM     20  C   UNL     1      50.570   7.888  11.945  0.00  0.00    +0.000 A 
ATOM     21  O   UNL     1      49.562   7.248  11.657  0.00  0.00    +0.000 OA
ATOM     22  C   UNL     1      50.655   8.828  13.046  0.00  0.00    +0.000 A 
ATOM     23  H   UNL     1      51.691   7.111  10.435  0.00  0.00    +0.000 HD
ENDBRANCH  10  13
ENDBRANCH   8   9
ENDBRANCH   1   8
BRANCH   4  24
ATOM     24  C   UNL     1      44.843   3.223  11.099  0.00  0.00    +0.000 C 
BRANCH  24  25
ATOM     25  N   UNL     1      45.729   2.875  10.019  0.00  0.00    +0.000 N 
ATOM     26  C   UNL     1      45.318   2.058   8.991  0.00  0.00    +0.000 C 
ATOM     27  O   UNL     1      44.203   1.548   8.964  0.00  0.00    +0.000 OA
ATOM     28  H   UNL     1      46.587   3.403   9.889  0.00  0.00    +0.000 HD
BRANCH  26  29
ATOM     29  C   UNL     1      46.291   1.900   7.941  0.00  0.00    +0.000 A 
ATOM     30  C   UNL     1      46.896   0.775   7.422  0.00  0.00    +0.000 A 
ATOM     31  N   UNL     1      47.798   1.061   6.452  0.00  0.00    +0.000 NA
ATOM     32  C   UNL     1      47.761   2.369   6.340  0.00  0.00    +0.000 A 
ATOM     33  N   UNL     1      46.853   2.919   7.201  0.00  0.00    +0.000 N 
ATOM     34  C   UNL     1      46.603   4.332   7.353  0.00  0.00    +0.000 C 
BRANCH  30  35
ATOM     35  N   UNL     1      46.673  -0.503   7.752  0.00  0.00    +0.000 N 
ATOM     36  H   UNL     1      47.466  -1.093   7.983  0.00  0.00    +0.000 HD
ATOM     37  H   UNL     1      45.901  -0.643   8.398  0.00  0.00    +0.000 HD
ENDBRANCH  30  35
ENDBRANCH  26  29
ENDBRANCH  24  25
ENDBRANCH   4  24
TORSDOF 7
ENDMDL
MODEL 4
REMARK VINA RESULT:    -7.135      2.504      3.560
REMARK INTER + INTRA:         -10.782
REMARK INTER:                 -10.216
REMARK INTRA:                  -0.566
REMARK UNBOUND:                -0.936
REMARK  Name = 
REMARK  9 active torsions:
REMARK  status: ('A' for Active; 'I' for Inactive)
REMARK    1  A    between atoms: C_1  and  C_2
REMARK    2  A    between atoms: C_2  and  N_3
REMARK    3  A    between atoms: C_2  and  C_16
REMARK    4  A    between atoms: C_4  and  C_6
REMARK    5  A    between atoms: C_19  and  C_20
REMARK    6  A    between atoms: C_20  and  N_21
REMARK    7  A    between atoms: C_22  and  C_24
REMARK    8  A    between atoms: C_25  and  N_26
REMARK    9  A    between atoms: N_29  and  C_30
REMARK                            x       y       z     vdW  Elec       q    Type
REMARK                         _______ _______ _______ _____ _____    ______ ____
ROOT
ATOM      1  C   UNL     1      45.623   7.051  12.680  0.00  0.00    +0.000 A 
ATOM      2  C   UNL     1      45.892   5.904  13.443  0.00  0.00    +0.000 A 
ATOM      3  C   UNL     1      45.613   4.626  12.946  0.00  0.00    +0.000 A 
ATOM      4  C   UNL     1      45.076   4.464  11.663  0.00  0.00    +0.000 A 
ATOM      5  C   UNL     1      44.806   5.604  10.899  0.00  0.00    +0.000 A 
ATOM      6  C   UNL     1      45.092   6.879  11.394  0.00  0.00    +0.000 A 
ENDROOT
BRANCH   1   8
ATOM      7  C   UNL     1      45.710   9.570  12.268  0.00  0.00    +0.000 C 
ATOM      8  C   UNL     1      45.928   8.424  13.263  0.00  0.00    +0.000 C 
BRANCH   8   9
ATOM      9  N   UNL     1      47.281   8.451  13.794  0.00  0.00    +0.000 N 
ATOM     10  C   UNL     1      48.384   8.372  12.983  0.00  0.00    +0.000 C 
ATOM     11  O   UNL     1      48.275   8.330  11.758  0.00  0.00    +0.000 OA
ATOM     12  H   UNL     1      47.381   8.445  14.805  0.00  0.00    +0.000 HD
BRANCH  10  13
ATOM     13  C   UNL     1      49.711   8.333  13.621  0.00  0.00    +0.000 A 
ATOM     14  C   UNL     1      50.737   9.100  13.084  0.00  0.00    +0.000 A 
ATOM     15  S   UNL     1      52.223   8.946  13.901  0.00  0.00    +0.000 S 
ATOM     16  C   UNL     1      51.559   7.838  15.005  0.00  0.00    +0.000 A 
ATOM     17  N   UNL     1      52.330   7.286  15.979  0.00  0.00    +0.000 NA
ATOM     18  C   UNL     1      51.706   6.460  16.750  0.00  0.00    +0.000 A 
ATOM     19  N   UNL     1      50.377   6.147  16.642  0.00  0.00    +0.000 N 
ATOM     20  C   UNL     1      49.559   6.678  15.673  0.00  0.00    +0.000 A 
ATOM     21  O   UNL     1      48.373   6.366  15.605  0.00  0.00    +0.000 OA
ATOM     22  C   UNL     1      50.213   7.603  14.767  0.00  0.00    +0.000 A 
ATOM     23  H   UNL     1      49.946   5.497  17.283  0.00  0.00    +0.000 HD
ENDBRANCH  10  13
ENDBRANCH   8   9
ENDBRANCH   1   8
BRANCH   4  24
ATOM     24  C   UNL     1      44.773   3.095  11.115  0.00  0.00    +0.000 C 
BRANCH  24  25
ATOM     25  N   UNL     1      45.692   2.731  10.068  0.00  0.00    +0.000 N 
ATOM     26  C   UNL     1      45.261   2.087   8.931  0.00  0.00    +0.000 C 
ATOM     27  O   UNL     1      44.093   1.749   8.771  0.00  0.00    +0.000 OA
ATOM     28  H   UNL     1      46.621   3.139  10.057  0.00  0.00    +0.000 HD
BRANCH  26  29
ATOM     29  C   UNL     1      46.288   1.895   7.940  0.00  0.00    +0.000 A 
ATOM     30  C   UNL     1      46.894   0.750   7.467  0.00  0.00    +0.000 A 
ATOM     31  N   UNL     1      47.858   1.005   6.548  0.00  0.00    +0.000 NA
ATOM     32  C   UNL     1      47.859   2.312   6.423  0.00  0.00    +0.000 A 
ATOM     33  N   UNL     1      46.917   2.892   7.225  0.00  0.00    +0.000 N 
ATOM     34  C   UNL     1      46.693   4.313   7.349  0.00  0.00    +0.000 C 
BRANCH  30  35
ATOM     35  N   UNL     1      46.621  -0.519   7.795  0.00  0.00    +0.000 N 
ATOM     36  H   UNL     1      46.254  -1.139   7.081  0.00  0.00    +0.000 HD
ATOM     37  H   UNL     1      47.338  -0.972   8.354  0.00  0.00    +0.000 HD
ENDBRANCH  30  35
ENDBRANCH  26  29
ENDBRANCH  24  25
ENDBRANCH   4  24
TORSDOF 7
ENDMDL
MODEL 5
REMARK VINA RESULT:    -7.025      2.620      3.703
REMARK INTER + INTRA:         -10.630
REMARK INTER:                  -9.465
REMARK INTRA:                  -1.165
REMARK UNBOUND:                -0.936
REMARK  Name = 
REMARK  9 active torsions:
REMARK  status: ('A' for Active; 'I' for Inactive)
REMARK    1  A    between atoms: C_1  and  C_2
REMARK    2  A    between atoms: C_2  and  N_3
REMARK    3  A    between atoms: C_2  and  C_16
REMARK    4  A    between atoms: C_4  and  C_6
REMARK    5  A    between atoms: C_19  and  C_20
REMARK    6  A    between atoms: C_20  and  N_21
REMARK    7  A    between atoms: C_22  and  C_24
REMARK    8  A    between atoms: C_25  and  N_26
REMARK    9  A    between atoms: N_29  and  C_30
REMARK                            x       y       z     vdW  Elec       q    Type
REMARK                         _______ _______ _______ _____ _____    ______ ____
ROOT
ATOM      1  C   UNL     1      48.705   7.831  15.754  0.00  0.00    +0.000 A 
ATOM      2  C   UNL     1      48.098   8.952  15.165  0.00  0.00    +0.000 A 
ATOM      3  C   UNL     1      47.548   8.881  13.880  0.00  0.00    +0.000 A 
ATOM      4  C   UNL     1      47.574   7.681  13.160  0.00  0.00    +0.000 A 
ATOM      5  C   UNL     1      48.177   6.561  13.744  0.00  0.00    +0.000 A 
ATOM      6  C   UNL     1      48.720   6.631  15.029  0.00  0.00    +0.000 A 
ENDROOT
BRANCH   1   8
ATOM      7  C   UNL     1      49.932   9.325  17.423  0.00  0.00    +0.000 C 
ATOM      8  C   UNL     1      49.303   7.953  17.148  0.00  0.00    +0.000 C 
BRANCH   8   9
ATOM      9  N   UNL     1      50.267   6.889  17.374  0.00  0.00    +0.000 N 
ATOM     10  C   UNL     1      50.018   5.852  18.237  0.00  0.00    +0.000 C 
ATOM     11  O   UNL     1      48.938   5.750  18.818  0.00  0.00    +0.000 OA
ATOM     12  H   UNL     1      51.176   6.986  16.931  0.00  0.00    +0.000 HD
BRANCH  10  13
ATOM     13  C   UNL     1      51.086   4.862  18.456  0.00  0.00    +0.000 A 
ATOM     14  C   UNL     1      52.206   5.233  19.188  0.00  0.00    +0.000 A 
ATOM     15  S   UNL     1      53.373   4.002  19.347  0.00  0.00    +0.000 S 
ATOM     16  C   UNL     1      52.431   2.921  18.435  0.00  0.00    +0.000 A 
ATOM     17  N   UNL     1      52.879   1.666  18.172  0.00  0.00    +0.000 NA
ATOM     18  C   UNL     1      52.071   0.946  17.469  0.00  0.00    +0.000 A 
ATOM     19  N   UNL     1      50.848   1.366  17.016  0.00  0.00    +0.000 N 
ATOM     20  C   UNL     1      50.354   2.626  17.256  0.00  0.00    +0.000 A 
ATOM     21  O   UNL     1      49.255   2.967  16.826  0.00  0.00    +0.000 OA
ATOM     22  C   UNL     1      51.230   3.485  18.030  0.00  0.00    +0.000 A 
ATOM     23  H   UNL     1      50.258   0.750  16.477  0.00  0.00    +0.000 HD
ENDBRANCH  10  13
ENDBRANCH   8   9
ENDBRANCH   1   8
BRANCH   4  24
ATOM     24  C   UNL     1      46.984   7.591  11.778  0.00  0.00    +0.000 C 
BRANCH  24  25
ATOM     25  N   UNL     1      46.315   6.333  11.572  0.00  0.00    +0.000 N 
ATOM     26  C   UNL     1      44.957   6.272  11.360  0.00  0.00    +0.000 C 
ATOM     27  O   UNL     1      44.244   7.270  11.383  0.00  0.00    +0.000 OA
ATOM     28  H   UNL     1      46.864   5.506  11.360  0.00  0.00    +0.000 HD
BRANCH  26  29
ATOM     29  C   UNL     1      44.467   4.951  11.064  0.00  0.00    +0.000 A 
ATOM     30  C   UNL     1      44.501   4.205   9.905  0.00  0.00    +0.000 A 
ATOM     31  N   UNL     1      43.885   3.004  10.031  0.00  0.00    +0.000 NA
ATOM     32  C   UNL     1      43.468   2.975  11.276  0.00  0.00    +0.000 A 
ATOM     33  N   UNL     1      43.813   4.116  11.946  0.00  0.00    +0.000 N 
ATOM     34  C   UNL     1      43.467   4.412  13.316  0.00  0.00    +0.000 C 
BRANCH  30  35
ATOM     35  N   UNL     1      45.072   4.528   8.738  0.00  0.00    +0.000 N 
ATOM     36  H   UNL     1      44.520   4.458   7.889  0.00  0.00    +0.000 HD
ATOM     37  H   UNL     1      45.620   5.383   8.760  0.00  0.00    +0.000 HD
ENDBRANCH  30  35
ENDBRANCH  26  29
ENDBRANCH  24  25
ENDBRANCH   4  24
TORSDOF 7
ENDMDL
MODEL 6
REMARK VINA RESULT:    -6.929      2.896      8.979
REMARK INTER + INTRA:         -10.497
REMARK INTER:                 -10.181
REMARK INTRA:                  -0.316
REMARK UNBOUND:                -0.936
REMARK  Name = 
REMARK  9 active torsions:
REMARK  status: ('A' for Active; 'I' for Inactive)
REMARK    1  A    between atoms: C_1  and  C_2
REMARK    2  A    between atoms: C_2  and  N_3
REMARK    3  A    between atoms: C_2  and  C_16
REMARK    4  A    between atoms: C_4  and  C_6
REMARK    5  A    between atoms: C_19  and  C_20
REMARK    6  A    between atoms: C_20  and  N_21
REMARK    7  A    between atoms: C_22  and  C_24
REMARK    8  A    between atoms: C_25  and  N_26
REMARK    9  A    between atoms: N_29  and  C_30
REMARK                            x       y       z     vdW  Elec       q    Type
REMARK                         _______ _______ _______ _____ _____    ______ ____
ROOT
ATOM      1  C   UNL     1      47.607   7.566  13.498  0.00  0.00    +0.000 A 
ATOM      2  C   UNL     1      47.918   6.242  13.849  0.00  0.00    +0.000 A 
ATOM      3  C   UNL     1      48.581   5.952  15.047  0.00  0.00    +0.000 A 
ATOM      4  C   UNL     1      48.931   6.978  15.933  0.00  0.00    +0.000 A 
ATOM      5  C   UNL     1      48.623   8.298  15.587  0.00  0.00    +0.000 A 
ATOM      6  C   UNL     1      47.954   8.586  14.395  0.00  0.00    +0.000 A 
ENDROOT
BRANCH   1   8
ATOM      7  C   UNL     1      45.846   8.954  12.276  0.00  0.00    +0.000 C 
ATOM      8  C   UNL     1      46.896   7.841  12.180  0.00  0.00    +0.000 C 
BRANCH   8   9
ATOM      9  N   UNL     1      46.307   6.617  11.665  0.00  0.00    +0.000 N 
ATOM     10  C   UNL     1      45.119   6.124  12.141  0.00  0.00    +0.000 C 
ATOM     11  O   UNL     1      44.470   6.732  12.992  0.00  0.00    +0.000 OA
ATOM     12  H   UNL     1      46.854   6.087  10.992  0.00  0.00    +0.000 HD
BRANCH  10  13
ATOM     13  C   UNL     1      44.639   4.837  11.608  0.00  0.00    +0.000 A 
ATOM     14  C   UNL     1      43.879   4.013  12.427  0.00  0.00    +0.000 A 
ATOM     15  S   UNL     1      43.408   2.547  11.696  0.00  0.00    +0.000 S 
ATOM     16  C   UNL     1      44.211   2.951  10.254  0.00  0.00    +0.000 A 
ATOM     17  N   UNL     1      44.219   2.089   9.203  0.00  0.00    +0.000 NA
ATOM     18  C   UNL     1      44.864   2.513   8.168  0.00  0.00    +0.000 A 
ATOM     19  N   UNL     1      45.493   3.727   8.087  0.00  0.00    +0.000 N 
ATOM     20  C   UNL     1      45.513   4.630   9.124  0.00  0.00    +0.000 A 
ATOM     21  O   UNL     1      46.094   5.707   9.014  0.00  0.00    +0.000 OA
ATOM     22  C   UNL     1      44.814   4.198  10.320  0.00  0.00    +0.000 A 
ATOM     23  H   UNL     1      45.975   4.004   7.245  0.00  0.00    +0.000 HD
ENDBRANCH  10  13
ENDBRANCH   8   9
ENDBRANCH   1   8
BRANCH   4  24
ATOM     24  C   UNL     1      49.643   6.679  17.225  0.00  0.00    +0.000 C 
BRANCH  24  25
ATOM     25  N   UNL     1      50.345   5.424  17.162  0.00  0.00    +0.000 N 
ATOM     26  C   UNL     1      50.046   4.393  18.024  0.00  0.00    +0.000 C 
ATOM     27  O   UNL     1      49.210   4.504  18.914  0.00  0.00    +0.000 OA
ATOM     28  H   UNL     1      50.908   5.208  16.345  0.00  0.00    +0.000 HD
BRANCH  26  29
ATOM     29  C   UNL     1      50.765   3.175  17.754  0.00  0.00    +0.000 A 
ATOM     30  C   UNL     1      50.414   2.050  17.038  0.00  0.00    +0.000 A 
ATOM     31  N   UNL     1      51.374   1.092  17.058  0.00  0.00    +0.000 NA
ATOM     32  C   UNL     1      52.344   1.610  17.775  0.00  0.00    +0.000 A 
ATOM     33  N   UNL     1      52.034   2.871  18.200  0.00  0.00    +0.000 N 
ATOM     34  C   UNL     1      52.872   3.694  19.041  0.00  0.00    +0.000 C 
BRANCH  30  35
ATOM     35  N   UNL     1      49.289   1.835  16.347  0.00  0.00    +0.000 N 
ATOM     36  H   UNL     1      48.902   0.897  16.324  0.00  0.00    +0.000 HD
ATOM     37  H   UNL     1      48.567   2.536  16.489  0.00  0.00    +0.000 HD
ENDBRANCH  30  35
ENDBRANCH  26  29
ENDBRANCH  24  25
ENDBRANCH   4  24
TORSDOF 7
ENDMDL
MODEL 7
REMARK VINA RESULT:    -6.802      5.519      7.500
REMARK INTER + INTRA:         -10.322
REMARK INTER:                  -9.194
REMARK INTRA:                  -1.128
REMARK UNBOUND:                -0.936
REMARK  Name = 
REMARK  9 active torsions:
REMARK  status: ('A' for Active; 'I' for Inactive)
REMARK    1  A    between atoms: C_1  and  C_2
REMARK    2  A    between atoms: C_2  and  N_3
REMARK    3  A    between atoms: C_2  and  C_16
REMARK    4  A    between atoms: C_4  and  C_6
REMARK    5  A    between atoms: C_19  and  C_20
REMARK    6  A    between atoms: C_20  and  N_21
REMARK    7  A    between atoms: C_22  and  C_24
REMARK    8  A    between atoms: C_25  and  N_26
REMARK    9  A    between atoms: N_29  and  C_30
REMARK                            x       y       z     vdW  Elec       q    Type
REMARK                         _______ _______ _______ _____ _____    ______ ____
ROOT
ATOM      1  C   UNL     1      50.085   8.302  12.288  0.00  0.00    +0.000 A 
ATOM      2  C   UNL     1      50.125   7.944  13.646  0.00  0.00    +0.000 A 
ATOM      3  C   UNL     1      49.139   7.122  14.203  0.00  0.00    +0.000 A 
ATOM      4  C   UNL     1      48.100   6.620  13.410  0.00  0.00    +0.000 A 
ATOM      5  C   UNL     1      48.057   6.974  12.057  0.00  0.00    +0.000 A 
ATOM      6  C   UNL     1      49.045   7.789  11.501  0.00  0.00    +0.000 A 
ENDROOT
BRANCH   1   8
ATOM      7  C   UNL     1      50.783  10.694  11.727  0.00  0.00    +0.000 C 
ATOM      8  C   UNL     1      51.169   9.210  11.724  0.00  0.00    +0.000 C 
BRANCH   8   9
ATOM      9  N   UNL     1      51.539   8.775  10.387  0.00  0.00    +0.000 N 
ATOM     10  C   UNL     1      52.831   8.450  10.059  0.00  0.00    +0.000 C 
ATOM     11  O   UNL     1      53.727   8.459  10.903  0.00  0.00    +0.000 OA
ATOM     12  H   UNL     1      50.817   8.803   9.674  0.00  0.00    +0.000 HD
BRANCH  10  13
ATOM     13  C   UNL     1      53.121   8.092   8.660  0.00  0.00    +0.000 A 
ATOM     14  C   UNL     1      53.071   9.084   7.690  0.00  0.00    +0.000 A 
ATOM     15  S   UNL     1      53.405   8.533   6.112  0.00  0.00    +0.000 S 
ATOM     16  C   UNL     1      53.621   6.940   6.661  0.00  0.00    +0.000 A 
ATOM     17  N   UNL     1      53.909   5.941   5.786  0.00  0.00    +0.000 NA
ATOM     18  C   UNL     1      54.048   4.778   6.329  0.00  0.00    +0.000 A 
ATOM     19  N   UNL     1      53.935   4.527   7.671  0.00  0.00    +0.000 N 
ATOM     20  C   UNL     1      53.643   5.505   8.593  0.00  0.00    +0.000 A 
ATOM     21  O   UNL     1      53.543   5.237   9.788  0.00  0.00    +0.000 OA
ATOM     22  C   UNL     1      53.462   6.831   8.034  0.00  0.00    +0.000 A 
ATOM     23  H   UNL     1      54.062   3.595   8.035  0.00  0.00    +0.000 HD
ENDBRANCH  10  13
ENDBRANCH   8   9
ENDBRANCH   1   8
BRANCH   4  24
ATOM     24  C   UNL     1      47.034   5.733  13.996  0.00  0.00    +0.000 C 
BRANCH  24  25
ATOM     25  N   UNL     1      46.452   4.877  12.997  0.00  0.00    +0.000 N 
ATOM     26  C   UNL     1      45.145   5.031  12.597  0.00  0.00    +0.000 C 
ATOM     27  O   UNL     1      44.398   5.864  13.100  0.00  0.00    +0.000 OA
ATOM     28  H   UNL     1      47.058   4.301  12.421  0.00  0.00    +0.000 HD
BRANCH  26  29
ATOM     29  C   UNL     1      44.755   4.165  11.514  0.00  0.00    +0.000 A 
ATOM     30  C   UNL     1      44.078   2.964  11.507  0.00  0.00    +0.000 A 
ATOM     31  N   UNL     1      43.945   2.441  10.263  0.00  0.00    +0.000 NA
ATOM     32  C   UNL     1      44.525   3.315   9.472  0.00  0.00    +0.000 A 
ATOM     33  N   UNL     1      45.011   4.381  10.176  0.00  0.00    +0.000 N 
ATOM     34  C   UNL     1      45.736   5.491   9.606  0.00  0.00    +0.000 C 
BRANCH  30  35
ATOM     35  N   UNL     1      43.550   2.313  12.550  0.00  0.00    +0.000 N 
ATOM     36  H   UNL     1      43.335   2.836  13.393  0.00  0.00    +0.000 HD
ATOM     37  H   UNL     1      42.805   1.666  12.309  0.00  0.00    +0.000 HD
ENDBRANCH  30  35
ENDBRANCH  26  29
ENDBRANCH  24  25
ENDBRANCH   4  24
TORSDOF 7
ENDMDL
MODEL 8
REMARK VINA RESULT:    -6.632      3.659      9.734
REMARK INTER + INTRA:         -10.087
REMARK INTER:                  -8.867
REMARK INTRA:                  -1.221
REMARK UNBOUND:                -0.936
REMARK  Name = 
REMARK  9 active torsions:
REMARK  status: ('A' for Active; 'I' for Inactive)
REMARK    1  A    between atoms: C_1  and  C_2
REMARK    2  A    between atoms: C_2  and  N_3
REMARK    3  A    between atoms: C_2  and  C_16
REMARK    4  A    between atoms: C_4  and  C_6
REMARK    5  A    between atoms: C_19  and  C_20
REMARK    6  A    between atoms: C_20  and  N_21
REMARK    7  A    between atoms: C_22  and  C_24
REMARK    8  A    between atoms: C_25  and  N_26
REMARK    9  A    between atoms: N_29  and  C_30
REMARK                            x       y       z     vdW  Elec       q    Type
REMARK                         _______ _______ _______ _____ _____    ______ ____
ROOT
ATOM      1  C   UNL     1      49.824   3.356  17.533  0.00  0.00    +0.000 A 
ATOM      2  C   UNL     1      49.993   1.995  17.233  0.00  0.00    +0.000 A 
ATOM      3  C   UNL     1      51.246   1.383  17.346  0.00  0.00    +0.000 A 
ATOM      4  C   UNL     1      52.358   2.113  17.782  0.00  0.00    +0.000 A 
ATOM      5  C   UNL     1      52.194   3.470  18.083  0.00  0.00    +0.000 A 
ATOM      6  C   UNL     1      50.941   4.078  17.977  0.00  0.00    +0.000 A 
ENDROOT
BRANCH   1   8
ATOM      7  C   UNL     1      47.298   3.029  17.720  0.00  0.00    +0.000 C 
ATOM      8  C   UNL     1      48.447   3.987  17.385  0.00  0.00    +0.000 C 
BRANCH   8   9
ATOM      9  N   UNL     1      48.289   4.535  16.047  0.00  0.00    +0.000 N 
ATOM     10  C   UNL     1      48.411   5.877  15.790  0.00  0.00    +0.000 C 
ATOM     11  O   UNL     1      48.716   6.672  16.679  0.00  0.00    +0.000 OA
ATOM     12  H   UNL     1      47.997   3.893  15.316  0.00  0.00    +0.000 HD
BRANCH  10  13
ATOM     13  C   UNL     1      48.159   6.345  14.417  0.00  0.00    +0.000 A 
ATOM     14  C   UNL     1      48.911   7.401  13.920  0.00  0.00    +0.000 A 
ATOM     15  S   UNL     1      48.505   7.857  12.329  0.00  0.00    +0.000 S 
ATOM     16  C   UNL     1      47.298   6.664  12.242  0.00  0.00    +0.000 A 
ATOM     17  N   UNL     1      46.537   6.532  11.124  0.00  0.00    +0.000 NA
ATOM     18  C   UNL     1      45.656   5.589  11.185  0.00  0.00    +0.000 A 
ATOM     19  N   UNL     1      45.478   4.760  12.260  0.00  0.00    +0.000 N 
ATOM     20  C   UNL     1      46.223   4.857  13.412  0.00  0.00    +0.000 A 
ATOM     21  O   UNL     1      46.027   4.098  14.357  0.00  0.00    +0.000 OA
ATOM     22  C   UNL     1      47.219   5.911  13.404  0.00  0.00    +0.000 A 
ATOM     23  H   UNL     1      44.776   4.036  12.243  0.00  0.00    +0.000 HD
ENDBRANCH  10  13
ENDBRANCH   8   9
ENDBRANCH   1   8
BRANCH   4  24
ATOM     24  C   UNL     1      53.711   1.467  17.910  0.00  0.00    +0.000 C 
BRANCH  24  25
ATOM     25  N   UNL     1      53.611   0.031  17.912  0.00  0.00    +0.000 N 
ATOM     26  C   UNL     1      54.460  -0.744  18.668  0.00  0.00    +0.000 C 
ATOM     27  O   UNL     1      55.370  -0.262  19.334  0.00  0.00    +0.000 OA
ATOM     28  H   UNL     1      52.778  -0.411  17.535  0.00  0.00    +0.000 HD
BRANCH  26  29
ATOM     29  C   UNL     1      54.154  -2.151  18.639  0.00  0.00    +0.000 A 
ATOM     30  C   UNL     1      53.372  -2.930  19.466  0.00  0.00    +0.000 A 
ATOM     31  N   UNL     1      53.375  -4.240  19.115  0.00  0.00    +0.000 NA
ATOM     32  C   UNL     1      54.147  -4.297  18.055  0.00  0.00    +0.000 A 
ATOM     33  N   UNL     1      54.625  -3.061  17.716  0.00  0.00    +0.000 N 
ATOM     34  C   UNL     1      55.531  -2.792  16.626  0.00  0.00    +0.000 C 
BRANCH  30  35
ATOM     35  N   UNL     1      52.635  -2.534  20.511  0.00  0.00    +0.000 N 
ATOM     36  H   UNL     1      52.742  -3.020  21.395  0.00  0.00    +0.000 HD
ATOM     37  H   UNL     1      52.594  -1.527  20.639  0.00  0.00    +0.000 HD
ENDBRANCH  30  35
ENDBRANCH  26  29
ENDBRANCH  24  25
ENDBRANCH   4  24
TORSDOF 7
ENDMDL
MODEL 9
REMARK VINA RESULT:    -6.632      5.793      8.024
REMARK INTER + INTRA:         -10.087
REMARK INTER:                  -8.763
REMARK INTRA:                  -1.324
REMARK UNBOUND:                -0.936
REMARK  Name = 
REMARK  9 active torsions:
REMARK  status: ('A' for Active; 'I' for Inactive)
REMARK    1  A    between atoms: C_1  and  C_2
REMARK    2  A    between atoms: C_2  and  N_3
REMARK    3  A    between atoms: C_2  and  C_16
REMARK    4  A    between atoms: C_4  and  C_6
REMARK    5  A    between atoms: C_19  and  C_20
REMARK    6  A    between atoms: C_20  and  N_21
REMARK    7  A    between atoms: C_22  and  C_24
REMARK    8  A    between atoms: C_25  and  N_26
REMARK    9  A    between atoms: N_29  and  C_30
REMARK                            x       y       z     vdW  Elec       q    Type
REMARK                         _______ _______ _______ _____ _____    ______ ____
ROOT
ATOM      1  C   UNL     1      50.262   8.138  12.196  0.00  0.00    +0.000 A 
ATOM      2  C   UNL     1      49.173   7.742  11.403  0.00  0.00    +0.000 A 
ATOM      3  C   UNL     1      48.122   6.994  11.945  0.00  0.00    +0.000 A 
ATOM      4  C   UNL     1      48.124   6.642  13.300  0.00  0.00    +0.000 A 
ATOM      5  C   UNL     1      49.206   7.036  14.094  0.00  0.00    +0.000 A 
ATOM      6  C   UNL     1      50.252   7.788  13.554  0.00  0.00    +0.000 A 
ENDROOT
BRANCH   1   8
ATOM      7  C   UNL     1      51.068  10.429  11.408  0.00  0.00    +0.000 C 
ATOM      8  C   UNL     1      51.393   8.939  11.566  0.00  0.00    +0.000 C 
BRANCH   8   9
ATOM      9  N   UNL     1      51.769   8.354  10.290  0.00  0.00    +0.000 N 
ATOM     10  C   UNL     1      52.930   7.643  10.128  0.00  0.00    +0.000 C 
ATOM     11  O   UNL     1      53.681   7.420  11.078  0.00  0.00    +0.000 OA
ATOM     12  H   UNL     1      51.178   8.566   9.491  0.00  0.00    +0.000 HD
BRANCH  10  13
ATOM     13  C   UNL     1      53.261   7.153   8.779  0.00  0.00    +0.000 A 
ATOM     14  C   UNL     1      53.638   5.826   8.621  0.00  0.00    +0.000 A 
ATOM     15  S   UNL     1      54.015   5.395   7.016  0.00  0.00    +0.000 S 
ATOM     16  C   UNL     1      53.697   6.971   6.466  0.00  0.00    +0.000 A 
ATOM     17  N   UNL     1      53.857   7.291   5.155  0.00  0.00    +0.000 NA
ATOM     18  C   UNL     1      53.584   8.519   4.867  0.00  0.00    +0.000 A 
ATOM     19  N   UNL     1      53.155   9.454   5.772  0.00  0.00    +0.000 N 
ATOM     20  C   UNL     1      52.981   9.177   7.108  0.00  0.00    +0.000 A 
ATOM     21  O   UNL     1      52.601  10.046   7.889  0.00  0.00    +0.000 OA
ATOM     22  C   UNL     1      53.288   7.812   7.490  0.00  0.00    +0.000 A 
ATOM     23  H   UNL     1      52.951  10.398   5.481  0.00  0.00    +0.000 HD
ENDBRANCH  10  13
ENDBRANCH   8   9
ENDBRANCH   1   8
BRANCH   4  24
ATOM     24  C   UNL     1      46.998   5.841  13.896  0.00  0.00    +0.000 C 
BRANCH  24  25
ATOM     25  N   UNL     1      46.414   4.951  12.926  0.00  0.00    +0.000 N 
ATOM     26  C   UNL     1      45.101   5.080  12.536  0.00  0.00    +0.000 C 
ATOM     27  O   UNL     1      44.351   5.919  13.024  0.00  0.00    +0.000 OA
ATOM     28  H   UNL     1      47.020   4.365  12.360  0.00  0.00    +0.000 HD
BRANCH  26  29
ATOM     29  C   UNL     1      44.709   4.180  11.482  0.00  0.00    +0.000 A 
ATOM     30  C   UNL     1      44.025   2.984  11.514  0.00  0.00    +0.000 A 
ATOM     31  N   UNL     1      43.892   2.420  10.288  0.00  0.00    +0.000 NA
ATOM     32  C   UNL     1      44.480   3.262   9.470  0.00  0.00    +0.000 A 
ATOM     33  N   UNL     1      44.971   4.349  10.139  0.00  0.00    +0.000 N 
ATOM     34  C   UNL     1      45.706   5.434   9.534  0.00  0.00    +0.000 C 
BRANCH  30  35
ATOM     35  N   UNL     1      43.489   2.372  12.577  0.00  0.00    +0.000 N 
ATOM     36  H   UNL     1      42.625   1.853  12.458  0.00  0.00    +0.000 HD
ATOM     37  H   UNL     1      44.157   1.863  13.150  0.00  0.00    +0.000 HD
ENDBRANCH  30  35
ENDBRANCH  26  29
ENDBRANCH  24  25
ENDBRANCH   4  24
TORSDOF 7
ENDMDL
