MODEL 1
REMARK VINA RESULT:    -7.916      0.000      0.000
REMARK INTER + INTRA:         -10.235
REMARK INTER:                  -9.767
REMARK INTRA:                  -0.468
REMARK UNBOUND:                -0.468
REMARK  Name = 
REMARK  4 active torsions:
REMARK  status: ('A' for Active; 'I' for Inactive)
REMARK    1  A    between atoms: C_4  and  C_5
REMARK    2  A    between atoms: C_5  and  N_6
REMARK    3  A    between atoms: C_11  and  C_12
REMARK    4  A    between atoms: C_18  and  C_19
REMARK                            x       y       z     vdW  Elec       q    Type
REMARK                         _______ _______ _______ _____ _____    ______ ____
ROOT
ATOM      1  F   UNL     1      41.874   5.688  11.785  0.00  0.00    +0.000 F 
ATOM      2  C   UNL     1      43.137   5.245  11.728  0.00  0.00    +0.000 A 
ATOM      3  C   UNL     1      43.944   5.334  12.853  0.00  0.00    +0.000 A 
ATOM      4  C   UNL     1      45.274   4.901  12.790  0.00  0.00    +0.000 A 
ATOM      5  C   UNL     1      45.748   4.346  11.586  0.00  0.00    +0.000 A 
ATOM      6  C   UNL     1      44.932   4.234  10.438  0.00  0.00    +0.000 A 
ATOM      7  C   UNL     1      43.615   4.713  10.534  0.00  0.00    +0.000 A 
ENDROOT
BRANCH   6   8
ATOM      8  C   UNL     1      45.455   3.651   9.186  0.00  0.00    +0.000 A 
ATOM      9  C   UNL     1      45.857   4.414   8.088  0.00  0.00    +0.000 A 
ATOM     10  N   UNL     1      46.362   3.885   6.945  0.00  0.00    +0.000 NA
ATOM     11  C   UNL     1      46.450   2.538   6.929  0.00  0.00    +0.000 A 
ATOM     12  C   UNL     1      46.045   1.762   8.000  0.00  0.00    +0.000 A 
ATOM     13  N   UNL     1      45.536   2.292   9.137  0.00  0.00    +0.000 NA
ENDBRANCH   6   8
BRANCH   4  14
ATOM     14  C   UNL     1      46.167   5.013  14.007  0.00  0.00    +0.000 C 
BRANCH  14  15
ATOM     15  N   UNL     1      46.595   3.691  14.407  0.00  0.00    +0.000 N 
ATOM     16  C   UNL     1      47.371   3.646  15.552  0.00  0.00    +0.000 A 
ATOM     17  N   UNL     1      48.299   2.685  15.588  0.00  0.00    +0.000 NA
ATOM     18  C   UNL     1      49.036   2.580  16.709  0.00  0.00    +0.000 A 
ATOM     19  C   UNL     1      48.885   3.406  17.794  0.00  0.00    +0.000 A 
ATOM     20  C   UNL     1      47.914   4.382  17.679  0.00  0.00    +0.000 A 
ATOM     21  N   UNL     1      47.163   4.512  16.552  0.00  0.00    +0.000 NA
ATOM     22  H   UNL     1      47.088   3.160  13.698  0.00  0.00    +0.000 HD
BRANCH  20  23
ATOM     23  C   UNL     1      47.667   5.340  18.834  0.00  0.00    +0.000 C 
ATOM     24  F   UNL     1      48.277   6.551  18.665  0.00  0.00    +0.000 F 
ATOM     25  F   UNL     1      46.346   5.624  19.016  0.00  0.00    +0.000 F 
ATOM     26  F   UNL     1      48.123   4.869  20.029  0.00  0.00    +0.000 F 
ENDBRANCH  20  23
ENDBRANCH  14  15
ENDBRANCH   4  14
TORSDOF 4
ENDMDL
MODEL 2
REMARK VINA RESULT:    -7.712      3.785      4.698
REMARK INTER + INTRA:          -9.983
REMARK INTER:                  -9.265
REMARK INTRA:                  -0.718
REMARK UNBOUND:                -0.468
REMARK  Name = 
REMARK  4 active torsions:
REMARK  status: ('A' for Active; 'I' for Inactive)
REMARK    1  A    between atoms: C_4  and  C_5
REMARK    2  A    between atoms: C_5  and  N_6
REMARK    3  A    between atoms: C_11  and  C_12
REMARK    4  A    between atoms: C_18  and  C_19
REMARK                            x       y       z     vdW  Elec       q    Type
REMARK                         _______ _______ _______ _____ _____    ______ ____
ROOT
ATOM      1  F   UNL     1      43.014   2.172  11.680  0.00  0.00    +0.000 F 
ATOM      2  C   UNL     1      43.815   2.997  10.993  0.00  0.00    +0.000 A 
ATOM      3  C   UNL     1      43.959   4.313  11.408  0.00  0.00    +0.000 A 
ATOM      4  C   UNL     1      44.770   5.188  10.677  0.00  0.00    +0.000 A 
ATOM      5  C   UNL     1      45.455   4.693   9.550  0.00  0.00    +0.000 A 
ATOM      6  C   UNL     1      45.330   3.351   9.126  0.00  0.00    +0.000 A 
ATOM      7  C   UNL     1      44.479   2.516   9.869  0.00  0.00    +0.000 A 
ENDROOT
BRANCH   6   8
ATOM      8  C   UNL     1      46.057   2.856   7.938  0.00  0.00    +0.000 A 
ATOM      9  C   UNL     1      46.572   1.563   7.833  0.00  0.00    +0.000 A 
ATOM     10  N   UNL     1      47.218   1.095   6.735  0.00  0.00    +0.000 NA
ATOM     11  C   UNL     1      47.342   1.980   5.724  0.00  0.00    +0.000 A 
ATOM     12  C   UNL     1      46.851   3.271   5.812  0.00  0.00    +0.000 A 
ATOM     13  N   UNL     1      46.211   3.737   6.911  0.00  0.00    +0.000 NA
ENDBRANCH   6   8
BRANCH   4  14
ATOM     14  C   UNL     1      44.917   6.630  11.111  0.00  0.00    +0.000 C 
BRANCH  14  15
ATOM     15  N   UNL     1      45.170   6.677  12.534  0.00  0.00    +0.000 N 
ATOM     16  C   UNL     1      46.506   6.750  12.890  0.00  0.00    +0.000 A 
ATOM     17  N   UNL     1      46.836   6.142  14.034  0.00  0.00    +0.000 NA
ATOM     18  C   UNL     1      48.116   6.238  14.437  0.00  0.00    +0.000 A 
ATOM     19  C   UNL     1      49.082   6.914  13.736  0.00  0.00    +0.000 A 
ATOM     20  C   UNL     1      48.669   7.507  12.558  0.00  0.00    +0.000 A 
ATOM     21  N   UNL     1      47.380   7.416  12.127  0.00  0.00    +0.000 NA
ATOM     22  H   UNL     1      44.764   5.921  13.072  0.00  0.00    +0.000 HD
BRANCH  20  23
ATOM     23  C   UNL     1      49.665   8.287  11.716  0.00  0.00    +0.000 C 
ATOM     24  F   UNL     1      49.108   9.369  11.092  0.00  0.00    +0.000 F 
ATOM     25  F   UNL     1      50.703   8.788  12.445  0.00  0.00    +0.000 F 
ATOM     26  F   UNL     1      50.224   7.544  10.720  0.00  0.00    +0.000 F 
ENDBRANCH  20  23
ENDBRANCH  14  15
ENDBRANCH   4  14
TORSDOF 4
ENDMDL
MODEL 3
REMARK VINA RESULT:    -7.562      2.615      3.631
REMARK INTER + INTRA:          -9.798
REMARK INTER:                  -9.284
REMARK INTRA:                  -0.514
REMARK UNBOUND:                -0.468
REMARK  Name = 
REMARK  4 active torsions:
REMARK  status: ('A' for Active; 'I' for Inactive)
REMARK    1  A    between atoms: C_4  and  C_5
REMARK    2  A    between atoms: C_5  and  N_6
REMARK    3  A    between atoms: C_11  and  C_12
REMARK    4  A    between atoms: C_18  and  C_19
REMARK                            x       y       z     vdW  Elec       q    Type
REMARK                         _______ _______ _______ _____ _____    ______ ____
ROOT
ATOM      1  F   UNL     1      42.923   1.849  11.855  0.00  0.00    +0.000 F 
ATOM      2  C   UNL     1      43.658   2.756  11.197  0.00  0.00    +0.000 A 
ATOM      3  C   UNL     1      43.699   4.065  11.655  0.00  0.00    +0.000 A 
ATOM      4  C   UNL     1      44.440   5.023  10.954  0.00  0.00    +0.000 A 
ATOM      5  C   UNL     1      45.161   4.620   9.814  0.00  0.00    +0.000 A 
ATOM      6  C   UNL     1      45.142   3.287   9.346  0.00  0.00    +0.000 A 
ATOM      7  C   UNL     1      44.357   2.365  10.059  0.00  0.00    +0.000 A 
ENDROOT
BRANCH   6   8
ATOM      8  C   UNL     1      45.905   2.889   8.146  0.00  0.00    +0.000 A 
ATOM      9  C   UNL     1      46.444   1.614   7.962  0.00  0.00    +0.000 A 
ATOM     10  N   UNL     1      47.124   1.236   6.850  0.00  0.00    +0.000 NA
ATOM     11  C   UNL     1      47.257   2.192   5.908  0.00  0.00    +0.000 A 
ATOM     12  C   UNL     1      46.742   3.466   6.075  0.00  0.00    +0.000 A 
ATOM     13  N   UNL     1      46.069   3.843   7.188  0.00  0.00    +0.000 NA
ENDBRANCH   6   8
BRANCH   4  14
ATOM     14  C   UNL     1      44.475   6.458  11.436  0.00  0.00    +0.000 C 
BRANCH  14  15
ATOM     15  N   UNL     1      45.813   6.982  11.277  0.00  0.00    +0.000 N 
ATOM     16  C   UNL     1      46.632   6.845  12.384  0.00  0.00    +0.000 A 
ATOM     17  N   UNL     1      47.530   7.818  12.566  0.00  0.00    +0.000 NA
ATOM     18  C   UNL     1      48.377   7.690  13.603  0.00  0.00    +0.000 A 
ATOM     19  C   UNL     1      48.357   6.629  14.471  0.00  0.00    +0.000 A 
ATOM     20  C   UNL     1      47.394   5.668  14.226  0.00  0.00    +0.000 A 
ATOM     21  N   UNL     1      46.522   5.781  13.188  0.00  0.00    +0.000 NA
ATOM     22  H   UNL     1      45.869   7.951  10.988  0.00  0.00    +0.000 HD
BRANCH  20  23
ATOM     23  C   UNL     1      47.299   4.448  15.128  0.00  0.00    +0.000 C 
ATOM     24  F   UNL     1      47.384   3.268  14.444  0.00  0.00    +0.000 F 
ATOM     25  F   UNL     1      48.293   4.395  16.061  0.00  0.00    +0.000 F 
ATOM     26  F   UNL     1      46.126   4.381  15.819  0.00  0.00    +0.000 F 
ENDBRANCH  20  23
ENDBRANCH  14  15
ENDBRANCH   4  14
TORSDOF 4
ENDMDL
MODEL 4
REMARK VINA RESULT:    -7.242      2.780      3.285
REMARK INTER + INTRA:          -9.403
REMARK INTER:                  -8.772
REMARK INTRA:                  -0.631
REMARK UNBOUND:                -0.468
REMARK  Name = 
REMARK  4 active torsions:
REMARK  status: ('A' for Active; 'I' for Inactive)
REMARK    1  A    between atoms: C_4  and  C_5
REMARK    2  A    between atoms: C_5  and  N_6
REMARK    3  A    between atoms: C_11  and  C_12
REMARK    4  A    between atoms: C_18  and  C_19
REMARK                            x       y       z     vdW  Elec       q    Type
REMARK                         _______ _______ _______ _____ _____    ______ ____
ROOT
ATOM      1  F   UNL     1      41.727   5.439  11.758  0.00  0.00    +0.000 F 
ATOM      2  C   UNL     1      43.022   5.552  11.433  0.00  0.00    +0.000 A 
ATOM      3  C   UNL     1      43.799   6.523  12.049  0.00  0.00    +0.000 A 
ATOM      4  C   UNL     1      45.144   6.666  11.692  0.00  0.00    +0.000 A 
ATOM      5  C   UNL     1      45.688   5.786  10.737  0.00  0.00    +0.000 A 
ATOM      6  C   UNL     1      44.913   4.782  10.114  0.00  0.00    +0.000 A 
ATOM      7  C   UNL     1      43.558   4.696  10.476  0.00  0.00    +0.000 A 
ENDROOT
BRANCH   6   8
ATOM      8  C   UNL     1      45.506   3.873   9.113  0.00  0.00    +0.000 A 
ATOM      9  C   UNL     1      45.483   2.481   9.225  0.00  0.00    +0.000 A 
ATOM     10  N   UNL     1      46.003   1.641   8.295  0.00  0.00    +0.000 NA
ATOM     11  C   UNL     1      46.565   2.245   7.228  0.00  0.00    +0.000 A 
ATOM     12  C   UNL     1      46.610   3.622   7.102  0.00  0.00    +0.000 A 
ATOM     13  N   UNL     1      46.095   4.459   8.034  0.00  0.00    +0.000 NA
ENDBRANCH   6   8
BRANCH   4  14
ATOM     14  C   UNL     1      45.994   7.735  12.344  0.00  0.00    +0.000 C 
BRANCH  14  15
ATOM     15  N   UNL     1      47.353   7.623  11.864  0.00  0.00    +0.000 N 
ATOM     16  C   UNL     1      48.323   7.578  12.851  0.00  0.00    +0.000 A 
ATOM     17  N   UNL     1      49.496   8.136  12.538  0.00  0.00    +0.000 NA
ATOM     18  C   UNL     1      50.478   8.064  13.455  0.00  0.00    +0.000 A 
ATOM     19  C   UNL     1      50.329   7.460  14.678  0.00  0.00    +0.000 A 
ATOM     20  C   UNL     1      49.085   6.915  14.934  0.00  0.00    +0.000 A 
ATOM     21  N   UNL     1      48.075   6.984  14.024  0.00  0.00    +0.000 NA
ATOM     22  H   UNL     1      47.641   8.335  11.203  0.00  0.00    +0.000 HD
BRANCH  20  23
ATOM     23  C   UNL     1      48.827   6.215  16.258  0.00  0.00    +0.000 C 
ATOM     24  F   UNL     1      49.954   5.670  16.805  0.00  0.00    +0.000 F 
ATOM     25  F   UNL     1      48.331   7.051  17.215  0.00  0.00    +0.000 F 
ATOM     26  F   UNL     1      47.940   5.185  16.157  0.00  0.00    +0.000 F 
ENDBRANCH  20  23
ENDBRANCH  14  15
ENDBRANCH   4  14
TORSDOF 4
ENDMDL
MODEL 5
REMARK VINA RESULT:    -7.069      3.970      8.241
REMARK INTER + INTRA:          -9.190
REMARK INTER:                  -8.536
REMARK INTRA:                  -0.655
REMARK UNBOUND:                -0.468
REMARK  Name = 
REMARK  4 active torsions:
REMARK  status: ('A' for Active; 'I' for Inactive)
REMARK    1  A    between atoms: C_4  and  C_5
REMARK    2  A    between atoms: C_5  and  N_6
REMARK    3  A    between atoms: C_11  and  C_12
REMARK    4  A    between atoms: C_18  and  C_19
REMARK                            x       y       z     vdW  Elec       q    Type
REMARK                         _______ _______ _______ _____ _____    ______ ____
ROOT
ATOM      1  F   UNL     1      49.866   8.906  11.164  0.00  0.00    +0.000 F 
ATOM      2  C   UNL     1      49.219   8.239  12.130  0.00  0.00    +0.000 A 
ATOM      3  C   UNL     1      47.869   7.961  11.982  0.00  0.00    +0.000 A 
ATOM      4  C   UNL     1      47.181   7.293  13.001  0.00  0.00    +0.000 A 
ATOM      5  C   UNL     1      47.896   6.882  14.143  0.00  0.00    +0.000 A 
ATOM      6  C   UNL     1      49.275   7.143  14.299  0.00  0.00    +0.000 A 
ATOM      7  C   UNL     1      49.919   7.848  13.267  0.00  0.00    +0.000 A 
ENDROOT
BRANCH   6   8
ATOM      8  C   UNL     1      50.002   6.704  15.507  0.00  0.00    +0.000 A 
ATOM      9  C   UNL     1      51.284   7.147  15.840  0.00  0.00    +0.000 A 
ATOM     10  N   UNL     1      51.946   6.767  16.962  0.00  0.00    +0.000 NA
ATOM     11  C   UNL     1      51.276   5.907  17.758  0.00  0.00    +0.000 A 
ATOM     12  C   UNL     1      50.011   5.445  17.441  0.00  0.00    +0.000 A 
ATOM     13  N   UNL     1      49.355   5.822  16.318  0.00  0.00    +0.000 NA
ENDBRANCH   6   8
BRANCH   4  14
ATOM     14  C   UNL     1      45.702   7.003  12.857  0.00  0.00    +0.000 C 
BRANCH  14  15
ATOM     15  N   UNL     1      45.422   5.684  13.380  0.00  0.00    +0.000 N 
ATOM     16  C   UNL     1      44.900   4.788  12.463  0.00  0.00    +0.000 A 
ATOM     17  N   UNL     1      44.041   3.889  12.953  0.00  0.00    +0.000 NA
ATOM     18  C   UNL     1      43.555   2.970  12.099  0.00  0.00    +0.000 A 
ATOM     19  C   UNL     1      43.891   2.920  10.770  0.00  0.00    +0.000 A 
ATOM     20  C   UNL     1      44.775   3.887  10.333  0.00  0.00    +0.000 A 
ATOM     21  N   UNL     1      45.273   4.832  11.178  0.00  0.00    +0.000 NA
ATOM     22  H   UNL     1      44.816   5.659  14.192  0.00  0.00    +0.000 HD
BRANCH  20  23
ATOM     23  C   UNL     1      45.214   3.907   8.878  0.00  0.00    +0.000 C 
ATOM     24  F   UNL     1      45.954   2.813   8.527  0.00  0.00    +0.000 F 
ATOM     25  F   UNL     1      44.167   3.929   8.005  0.00  0.00    +0.000 F 
ATOM     26  F   UNL     1      45.991   4.983   8.566  0.00  0.00    +0.000 F 
ENDBRANCH  20  23
ENDBRANCH  14  15
ENDBRANCH   4  14
TORSDOF 4
ENDMDL
MODEL 6
REMARK VINA RESULT:    -7.013      2.954      4.123
REMARK INTER + INTRA:          -9.121
REMARK INTER:                  -8.388
REMARK INTRA:                  -0.733
REMARK UNBOUND:                -0.468
REMARK  Name = 
REMARK  4 active torsions:
REMARK  status: ('A' for Active; 'I' for Inactive)
REMARK    1  A    between atoms: C_4  and  C_5
REMARK    2  A    between atoms: C_5  and  N_6
REMARK    3  A    between atoms: C_11  and  C_12
REMARK    4  A    between atoms: C_18  and  C_19
REMARK                            x       y       z     vdW  Elec       q    Type
REMARK                         _______ _______ _______ _____ _____    ______ ____
ROOT
ATOM      1  F   UNL     1      45.501   9.899  12.817  0.00  0.00    +0.000 F 
ATOM      2  C   UNL     1      46.031   8.670  12.870  0.00  0.00    +0.000 A 
ATOM      3  C   UNL     1      47.346   8.510  13.283  0.00  0.00    +0.000 A 
ATOM      4  C   UNL     1      47.915   7.232  13.310  0.00  0.00    +0.000 A 
ATOM      5  C   UNL     1      47.117   6.129  12.951  0.00  0.00    +0.000 A 
ATOM      6  C   UNL     1      45.772   6.275  12.545  0.00  0.00    +0.000 A 
ATOM      7  C   UNL     1      45.251   7.580  12.498  0.00  0.00    +0.000 A 
ENDROOT
BRANCH   6   8
ATOM      8  C   UNL     1      44.956   5.102  12.172  0.00  0.00    +0.000 A 
ATOM      9  C   UNL     1      44.511   4.148  13.089  0.00  0.00    +0.000 A 
ATOM     10  N   UNL     1      43.740   3.082  12.755  0.00  0.00    +0.000 NA
ATOM     11  C   UNL     1      43.423   2.993  11.447  0.00  0.00    +0.000 A 
ATOM     12  C   UNL     1      43.865   3.919  10.519  0.00  0.00    +0.000 A 
ATOM     13  N   UNL     1      44.639   4.979  10.853  0.00  0.00    +0.000 NA
ENDBRANCH   6   8
BRANCH   4  14
ATOM     14  C   UNL     1      49.355   7.050  13.740  0.00  0.00    +0.000 C 
BRANCH  14  15
ATOM     15  N   UNL     1      49.525   7.580  15.075  0.00  0.00    +0.000 N 
ATOM     16  C   UNL     1      48.985   6.805  16.087  0.00  0.00    +0.000 A 
ATOM     17  N   UNL     1      48.512   7.475  17.142  0.00  0.00    +0.000 NA
ATOM     18  C   UNL     1      48.028   6.750  18.167  0.00  0.00    +0.000 A 
ATOM     19  C   UNL     1      47.994   5.379  18.175  0.00  0.00    +0.000 A 
ATOM     20  C   UNL     1      48.491   4.756  17.046  0.00  0.00    +0.000 A 
ATOM     21  N   UNL     1      48.977   5.470  15.994  0.00  0.00    +0.000 NA
ATOM     22  H   UNL     1      49.183   8.524  15.214  0.00  0.00    +0.000 HD
BRANCH  20  23
ATOM     23  C   UNL     1      48.504   3.239  16.965  0.00  0.00    +0.000 C 
ATOM     24  F   UNL     1      49.763   2.710  17.025  0.00  0.00    +0.000 F 
ATOM     25  F   UNL     1      47.816   2.645  17.982  0.00  0.00    +0.000 F 
ATOM     26  F   UNL     1      47.965   2.758  15.810  0.00  0.00    +0.000 F 
ENDBRANCH  20  23
ENDBRANCH  14  15
ENDBRANCH   4  14
TORSDOF 4
ENDMDL
MODEL 7
REMARK VINA RESULT:    -7.002      3.489      8.392
REMARK INTER + INTRA:          -9.106
REMARK INTER:                  -8.461
REMARK INTRA:                  -0.645
REMARK UNBOUND:                -0.468
REMARK  Name = 
REMARK  4 active torsions:
REMARK  status: ('A' for Active; 'I' for Inactive)
REMARK    1  A    between atoms: C_4  and  C_5
REMARK    2  A    between atoms: C_5  and  N_6
REMARK    3  A    between atoms: C_11  and  C_12
REMARK    4  A    between atoms: C_18  and  C_19
REMARK                            x       y       z     vdW  Elec       q    Type
REMARK                         _______ _______ _______ _____ _____    ______ ____
ROOT
ATOM      1  F   UNL     1      49.021   8.633  12.318  0.00  0.00    +0.000 F 
ATOM      2  C   UNL     1      48.222   7.609  12.646  0.00  0.00    +0.000 A 
ATOM      3  C   UNL     1      47.186   7.252  11.795  0.00  0.00    +0.000 A 
ATOM      4  C   UNL     1      46.328   6.203  12.147  0.00  0.00    +0.000 A 
ATOM      5  C   UNL     1      46.568   5.507  13.348  0.00  0.00    +0.000 A 
ATOM      6  C   UNL     1      47.630   5.850  14.215  0.00  0.00    +0.000 A 
ATOM      7  C   UNL     1      48.445   6.931  13.840  0.00  0.00    +0.000 A 
ENDROOT
BRANCH   6   8
ATOM      8  C   UNL     1      47.859   5.106  15.470  0.00  0.00    +0.000 A 
ATOM      9  C   UNL     1      47.046   4.057  15.905  0.00  0.00    +0.000 A 
ATOM     10  N   UNL     1      47.266   3.353  17.044  0.00  0.00    +0.000 NA
ATOM     11  C   UNL     1      48.345   3.741  17.755  0.00  0.00    +0.000 A 
ATOM     12  C   UNL     1      49.157   4.786  17.351  0.00  0.00    +0.000 A 
ATOM     13  N   UNL     1      48.931   5.490  16.216  0.00  0.00    +0.000 NA
ENDBRANCH   6   8
BRANCH   4  14
ATOM     14  C   UNL     1      45.183   5.819  11.235  0.00  0.00    +0.000 C 
BRANCH  14  15
ATOM     15  N   UNL     1      44.838   4.433  11.461  0.00  0.00    +0.000 N 
ATOM     16  C   UNL     1      44.877   3.628  10.335  0.00  0.00    +0.000 A 
ATOM     17  N   UNL     1      43.988   2.630  10.304  0.00  0.00    +0.000 NA
ATOM     18  C   UNL     1      44.033   1.797   9.249  0.00  0.00    +0.000 A 
ATOM     19  C   UNL     1      44.929   1.927   8.219  0.00  0.00    +0.000 A 
ATOM     20  C   UNL     1      45.809   2.988   8.315  0.00  0.00    +0.000 A 
ATOM     21  N   UNL     1      45.777   3.848   9.370  0.00  0.00    +0.000 NA
ATOM     22  H   UNL     1      43.940   4.276  11.903  0.00  0.00    +0.000 HD
BRANCH  20  23
ATOM     23  C   UNL     1      46.847   3.209   7.226  0.00  0.00    +0.000 C 
ATOM     24  F   UNL     1      47.890   2.328   7.294  0.00  0.00    +0.000 F 
ATOM     25  F   UNL     1      46.339   3.069   5.969  0.00  0.00    +0.000 F 
ATOM     26  F   UNL     1      47.416   4.446   7.270  0.00  0.00    +0.000 F 
ENDBRANCH  20  23
ENDBRANCH  14  15
ENDBRANCH   4  14
TORSDOF 4
ENDMDL
MODEL 8
REMARK VINA RESULT:    -6.864      2.614      8.617
REMARK INTER + INTRA:          -8.937
REMARK INTER:                  -8.479
REMARK INTRA:                  -0.457
REMARK UNBOUND:                -0.468
REMARK  Name = 
REMARK  4 active torsions:
REMARK  status: ('A' for Active; 'I' for Inactive)
REMARK    1  A    between atoms: C_4  and  C_5
REMARK    2  A    between atoms: C_5  and  N_6
REMARK    3  A    between atoms: C_11  and  C_12
REMARK    4  A    between atoms: C_18  and  C_19
REMARK                            x       y       z     vdW  Elec       q    Type
REMARK                         _______ _______ _______ _____ _____    ______ ____
ROOT
ATOM      1  F   UNL     1      47.904   5.814  19.736  0.00  0.00    +0.000 F 
ATOM      2  C   UNL     1      48.286   5.025  18.722  0.00  0.00    +0.000 A 
ATOM      3  C   UNL     1      47.475   4.907  17.603  0.00  0.00    +0.000 A 
ATOM      4  C   UNL     1      47.854   4.061  16.556  0.00  0.00    +0.000 A 
ATOM      5  C   UNL     1      49.081   3.375  16.650  0.00  0.00    +0.000 A 
ATOM      6  C   UNL     1      49.925   3.499  17.776  0.00  0.00    +0.000 A 
ATOM      7  C   UNL     1      49.489   4.332  18.821  0.00  0.00    +0.000 A 
ENDROOT
BRANCH   6   8
ATOM      8  C   UNL     1      51.205   2.767  17.853  0.00  0.00    +0.000 A 
ATOM      9  C   UNL     1      52.370   3.306  18.402  0.00  0.00    +0.000 A 
ATOM     10  N   UNL     1      53.542   2.629  18.498  0.00  0.00    +0.000 NA
ATOM     11  C   UNL     1      53.517   1.370  18.014  0.00  0.00    +0.000 A 
ATOM     12  C   UNL     1      52.378   0.820  17.454  0.00  0.00    +0.000 A 
ATOM     13  N   UNL     1      51.211   1.500  17.354  0.00  0.00    +0.000 NA
ENDBRANCH   6   8
BRANCH   4  14
ATOM     14  C   UNL     1      46.965   3.911  15.339  0.00  0.00    +0.000 C 
BRANCH  14  15
ATOM     15  N   UNL     1      46.828   5.195  14.688  0.00  0.00    +0.000 N 
ATOM     16  C   UNL     1      46.268   5.154  13.423  0.00  0.00    +0.000 A 
ATOM     17  N   UNL     1      46.711   6.076  12.562  0.00  0.00    +0.000 NA
ATOM     18  C   UNL     1      46.150   6.098  11.339  0.00  0.00    +0.000 A 
ATOM     19  C   UNL     1      45.167   5.228  10.941  0.00  0.00    +0.000 A 
ATOM     20  C   UNL     1      44.768   4.297  11.881  0.00  0.00    +0.000 A 
ATOM     21  N   UNL     1      45.327   4.251  13.122  0.00  0.00    +0.000 NA
ATOM     22  H   UNL     1      47.680   5.738  14.615  0.00  0.00    +0.000 HD
BRANCH  20  23
ATOM     23  C   UNL     1      43.677   3.297  11.537  0.00  0.00    +0.000 C 
ATOM     24  F   UNL     1      43.449   2.388  12.533  0.00  0.00    +0.000 F 
ATOM     25  F   UNL     1      42.469   3.884  11.303  0.00  0.00    +0.000 F 
ATOM     26  F   UNL     1      43.959   2.554  10.429  0.00  0.00    +0.000 F 
ENDBRANCH  20  23
ENDBRANCH  14  15
ENDBRANCH   4  14
TORSDOF 4
ENDMDL
MODEL 9
REMARK VINA RESULT:    -6.811      3.376      4.500
REMARK INTER + INTRA:          -8.871
REMARK INTER:                  -8.380
REMARK INTRA:                  -0.491
REMARK UNBOUND:                -0.468
REMARK  Name = 
REMARK  4 active torsions:
REMARK  status: ('A' for Active; 'I' for Inactive)
REMARK    1  A    between atoms: C_4  and  C_5
REMARK    2  A    between atoms: C_5  and  N_6
REMARK    3  A    between atoms: C_11  and  C_12
REMARK    4  A    between atoms: C_18  and  C_19
REMARK                            x       y       z     vdW  Elec       q    Type
REMARK                         _______ _______ _______ _____ _____    ______ ____
ROOT
ATOM      1  F   UNL     1      43.064   4.244  11.038  0.00  0.00    +0.000 F 
ATOM      2  C   UNL     1      44.000   5.024  11.597  0.00  0.00    +0.000 A 
ATOM      3  C   UNL     1      44.968   4.453  12.410  0.00  0.00    +0.000 A 
ATOM      4  C   UNL     1      45.929   5.266  13.022  0.00  0.00    +0.000 A 
ATOM      5  C   UNL     1      45.910   6.650  12.761  0.00  0.00    +0.000 A 
ATOM      6  C   UNL     1      44.940   7.242  11.921  0.00  0.00    +0.000 A 
ATOM      7  C   UNL     1      43.972   6.394  11.356  0.00  0.00    +0.000 A 
ENDROOT
BRANCH   6   8
ATOM      8  C   UNL     1      44.939   8.696  11.665  0.00  0.00    +0.000 A 
ATOM      9  C   UNL     1      45.950   9.556  12.099  0.00  0.00    +0.000 A 
ATOM     10  N   UNL     1      45.967  10.889  11.844  0.00  0.00    +0.000 NA
ATOM     11  C   UNL     1      44.919  11.349  11.131  0.00  0.00    +0.000 A 
ATOM     12  C   UNL     1      43.900  10.517  10.702  0.00  0.00    +0.000 A 
ATOM     13  N   UNL     1      43.882   9.188  10.962  0.00  0.00    +0.000 NA
ENDBRANCH   6   8
BRANCH   4  14
ATOM     14  C   UNL     1      46.977   4.655  13.926  0.00  0.00    +0.000 C 
BRANCH  14  15
ATOM     15  N   UNL     1      46.391   4.380  15.219  0.00  0.00    +0.000 N 
ATOM     16  C   UNL     1      47.298   4.128  16.234  0.00  0.00    +0.000 A 
ATOM     17  N   UNL     1      46.897   3.262  17.170  0.00  0.00    +0.000 NA
ATOM     18  C   UNL     1      47.733   3.034  18.198  0.00  0.00    +0.000 A 
ATOM     19  C   UNL     1      48.960   3.633  18.324  0.00  0.00    +0.000 A 
ATOM     20  C   UNL     1      49.311   4.508  17.313  0.00  0.00    +0.000 A 
ATOM     21  N   UNL     1      48.484   4.748  16.259  0.00  0.00    +0.000 NA
ATOM     22  H   UNL     1      45.713   3.628  15.238  0.00  0.00    +0.000 HD
BRANCH  20  23
ATOM     23  C   UNL     1      50.648   5.229  17.369  0.00  0.00    +0.000 C 
ATOM     24  F   UNL     1      50.957   5.688  18.619  0.00  0.00    +0.000 F 
ATOM     25  F   UNL     1      51.697   4.436  17.007  0.00  0.00    +0.000 F 
ATOM     26  F   UNL     1      50.702   6.323  16.558  0.00  0.00    +0.000 F 
ENDBRANCH  20  23
ENDBRANCH  14  15
ENDBRANCH   4  14
TORSDOF 4
ENDMDL
