MODEL 1
REMARK VINA RESULT:    -8.813      0.000      0.000
REMARK INTER + INTRA:         -12.414
REMARK INTER:                 -11.389
REMARK INTRA:                  -1.025
REMARK UNBOUND:                -1.025
REMARK  Name = 
REMARK  5 active torsions:
REMARK  status: ('A' for Active; 'I' for Inactive)
REMARK    1  A    between atoms: C_2  and  C_4
REMARK    2  A    between atoms: C_7  and  N_8
REMARK    3  A    between atoms: N_8  and  C_9
REMARK    4  A    between atoms: C_9  and  C_10
REMARK    5  A    between atoms: C_14  and  C_15
REMARK                            x       y       z     vdW  Elec       q    Type
REMARK                         _______ _______ _______ _____ _____    ______ ____
ROOT
ATOM      1  C   UNL     1      43.688   4.578  11.480  0.00  0.00    +0.000 C 
ENDROOT
BRANCH   1   2
ATOM      2  C   UNL     1      44.994   4.890  12.163  0.00  0.00    +0.000 A 
ATOM      3  C   UNL     1      45.564   3.988  13.061  0.00  0.00    +0.000 A 
ATOM      4  C   UNL     1      46.806   4.283  13.593  0.00  0.00    +0.000 A 
ATOM      5  N   UNL     1      47.500   5.404  13.304  0.00  0.00    +0.000 NA
ATOM      6  C   UNL     1      46.944   6.297  12.446  0.00  0.00    +0.000 A 
ATOM      7  C   UNL     1      45.704   6.057  11.853  0.00  0.00    +0.000 A 
BRANCH   6   8
ATOM      8  C   UNL     1      47.733   7.522  12.198  0.00  0.00    +0.000 A 
ATOM      9  C   UNL     1      49.103   7.472  11.868  0.00  0.00    +0.000 A 
ATOM     10  C   UNL     1      49.838   8.636  11.613  0.00  0.00    +0.000 A 
ATOM     11  C   UNL     1      49.217   9.877  11.679  0.00  0.00    +0.000 A 
ATOM     12  C   UNL     1      47.869   9.945  12.002  0.00  0.00    +0.000 A 
ATOM     13  F   UNL     1      47.267  11.142  12.063  0.00  0.00    +0.000 F 
ATOM     14  C   UNL     1      47.131   8.793  12.256  0.00  0.00    +0.000 A 
ENDBRANCH   6   8
ENDBRANCH   1   2
BRANCH   1  15
ATOM     15  N   UNL     1      43.782   4.787  10.042  0.00  0.00    +0.000 N 
ATOM     16  H   UNL     1      42.890   4.994   9.597  0.00  0.00    +0.000 HD
BRANCH  15  20
ATOM     17  C   UNL     1      46.349   2.297   7.787  0.00  0.00    +0.000 A 
ATOM     18  C   UNL     1      45.462   1.725   8.700  0.00  0.00    +0.000 A 
ATOM     19  C   UNL     1      44.598   2.539   9.441  0.00  0.00    +0.000 A 
ATOM     20  C   UNL     1      44.574   3.930   9.272  0.00  0.00    +0.000 A 
ATOM     21  C   UNL     1      45.490   4.487   8.369  0.00  0.00    +0.000 A 
ATOM     22  C   UNL     1      46.375   3.684   7.635  0.00  0.00    +0.000 A 
BRANCH  17  24
ATOM     23  N   UNL     1      48.411   2.089   6.508  0.00  0.00    +0.000 N 
ATOM     24  C   UNL     1      47.297   1.465   7.001  0.00  0.00    +0.000 C 
ATOM     25  O   UNL     1      47.114   0.268   6.826  0.00  0.00    +0.000 OA
ATOM     26  H   UNL     1      49.096   1.495   6.058  0.00  0.00    +0.000 HD
ATOM     27  H   UNL     1      48.719   2.992   6.839  0.00  0.00    +0.000 HD
ENDBRANCH  17  24
ENDBRANCH  15  20
ENDBRANCH   1  15
TORSDOF 5
ENDMDL
MODEL 2
REMARK VINA RESULT:    -8.609      2.758      3.966
REMARK INTER + INTRA:         -12.150
REMARK INTER:                 -11.423
REMARK INTRA:                  -0.727
REMARK UNBOUND:                -1.025
REMARK  Name = 
REMARK  5 active torsions:
REMARK  status: ('A' for Active; 'I' for Inactive)
REMARK    1  A    between atoms: C_2  and  C_4
REMARK    2  A    between atoms: C_7  and  N_8
REMARK    3  A    between atoms: N_8  and  C_9
REMARK    4  A    between atoms: C_9  and  C_10
REMARK    5  A    between atoms: C_14  and  C_15
REMARK                            x       y       z     vdW  Elec       q    Type
REMARK                         _______ _______ _______ _____ _____    ______ ____
ROOT
ATOM      1  C   UNL     1      43.966   4.745  11.553  0.00  0.00    +0.000 C 
ENDROOT
BRANCH   1   2
ATOM      2  C   UNL     1      45.253   5.301  12.104  0.00  0.00    +0.000 A 
ATOM      3  C   UNL     1      45.962   6.282  11.412  0.00  0.00    +0.000 A 
ATOM      4  C   UNL     1      47.090   6.820  12.004  0.00  0.00    +0.000 A 
ATOM      5  N   UNL     1      47.557   6.445  13.213  0.00  0.00    +0.000 NA
ATOM      6  C   UNL     1      46.884   5.477  13.885  0.00  0.00    +0.000 A 
ATOM      7  C   UNL     1      45.725   4.901  13.361  0.00  0.00    +0.000 A 
BRANCH   6   8
ATOM      8  C   UNL     1      47.463   5.079  15.186  0.00  0.00    +0.000 A 
ATOM      9  C   UNL     1      48.455   5.851  15.827  0.00  0.00    +0.000 A 
ATOM     10  C   UNL     1      48.983   5.480  17.069  0.00  0.00    +0.000 A 
ATOM     11  C   UNL     1      48.528   4.328  17.699  0.00  0.00    +0.000 A 
ATOM     12  C   UNL     1      47.553   3.557  17.084  0.00  0.00    +0.000 A 
ATOM     13  F   UNL     1      47.111   2.447  17.692  0.00  0.00    +0.000 F 
ATOM     14  C   UNL     1      47.022   3.919  15.849  0.00  0.00    +0.000 A 
ENDBRANCH   6   8
ENDBRANCH   1   2
BRANCH   1  15
ATOM     15  N   UNL     1      43.924   4.853  10.101  0.00  0.00    +0.000 N 
ATOM     16  H   UNL     1      42.989   4.998   9.726  0.00  0.00    +0.000 HD
BRANCH  15  20
ATOM     17  C   UNL     1      46.379   2.280   7.814  0.00  0.00    +0.000 A 
ATOM     18  C   UNL     1      45.512   1.740   8.765  0.00  0.00    +0.000 A 
ATOM     19  C   UNL     1      44.685   2.581   9.517  0.00  0.00    +0.000 A 
ATOM     20  C   UNL     1      44.677   3.969   9.323  0.00  0.00    +0.000 A 
ATOM     21  C   UNL     1      45.573   4.495   8.382  0.00  0.00    +0.000 A 
ATOM     22  C   UNL     1      46.422   3.664   7.636  0.00  0.00    +0.000 A 
BRANCH  17  24
ATOM     23  N   UNL     1      48.348   2.032   6.404  0.00  0.00    +0.000 N 
ATOM     24  C   UNL     1      47.288   1.418   7.014  0.00  0.00    +0.000 C 
ATOM     25  O   UNL     1      47.122   0.210   6.929  0.00  0.00    +0.000 OA
ATOM     26  H   UNL     1      49.013   1.424   5.943  0.00  0.00    +0.000 HD
ATOM     27  H   UNL     1      48.656   2.960   6.653  0.00  0.00    +0.000 HD
ENDBRANCH  17  24
ENDBRANCH  15  20
ENDBRANCH   1  15
TORSDOF 5
ENDMDL
MODEL 3
REMARK VINA RESULT:    -8.357      3.863      7.031
REMARK INTER + INTRA:         -11.824
REMARK INTER:                 -10.887
REMARK INTRA:                  -0.938
REMARK UNBOUND:                -1.025
REMARK  Name = 
REMARK  5 active torsions:
REMARK  status: ('A' for Active; 'I' for Inactive)
REMARK    1  A    between atoms: C_2  and  C_4
REMARK    2  A    between atoms: C_7  and  N_8
REMARK    3  A    between atoms: N_8  and  C_9
REMARK    4  A    between atoms: C_9  and  C_10
REMARK    5  A    between atoms: C_14  and  C_15
REMARK                            x       y       z     vdW  Elec       q    Type
REMARK                         _______ _______ _______ _____ _____    ______ ____
ROOT
ATOM      1  C   UNL     1      43.725   6.594  11.398  0.00  0.00    +0.000 C 
ENDROOT
BRANCH   1   2
ATOM      2  C   UNL     1      43.857   5.129  11.076  0.00  0.00    +0.000 A 
ATOM      3  C   UNL     1      43.146   4.171  11.799  0.00  0.00    +0.000 A 
ATOM      4  C   UNL     1      43.235   2.848  11.406  0.00  0.00    +0.000 A 
ATOM      5  N   UNL     1      43.983   2.421  10.367  0.00  0.00    +0.000 NA
ATOM      6  C   UNL     1      44.694   3.343   9.670  0.00  0.00    +0.000 A 
ATOM      7  C   UNL     1      44.637   4.700   9.994  0.00  0.00    +0.000 A 
BRANCH   6   8
ATOM      8  C   UNL     1      45.524   2.813   8.568  0.00  0.00    +0.000 A 
ATOM      9  C   UNL     1      46.015   3.643   7.539  0.00  0.00    +0.000 A 
ATOM     10  C   UNL     1      46.818   3.139   6.510  0.00  0.00    +0.000 A 
ATOM     11  C   UNL     1      47.151   1.789   6.489  0.00  0.00    +0.000 A 
ATOM     12  C   UNL     1      46.677   0.957   7.493  0.00  0.00    +0.000 A 
ATOM     13  F   UNL     1      47.000  -0.344   7.476  0.00  0.00    +0.000 F 
ATOM     14  C   UNL     1      45.879   1.452   8.520  0.00  0.00    +0.000 A 
ENDBRANCH   6   8
ENDBRANCH   1   2
BRANCH   1  15
ATOM     15  N   UNL     1      44.376   6.917  12.659  0.00  0.00    +0.000 N 
ATOM     16  H   UNL     1      43.837   7.547  13.252  0.00  0.00    +0.000 HD
BRANCH  15  20
ATOM     17  C   UNL     1      48.537   7.661  12.562  0.00  0.00    +0.000 A 
ATOM     18  C   UNL     1      47.647   8.684  12.235  0.00  0.00    +0.000 A 
ATOM     19  C   UNL     1      46.267   8.453  12.278  0.00  0.00    +0.000 A 
ATOM     20  C   UNL     1      45.742   7.216  12.674  0.00  0.00    +0.000 A 
ATOM     21  C   UNL     1      46.652   6.193  12.973  0.00  0.00    +0.000 A 
ATOM     22  C   UNL     1      48.037   6.406  12.914  0.00  0.00    +0.000 A 
BRANCH  17  24
ATOM     23  N   UNL     1      50.660   7.375  11.405  0.00  0.00    +0.000 N 
ATOM     24  C   UNL     1      50.008   7.864  12.504  0.00  0.00    +0.000 C 
ATOM     25  O   UNL     1      50.611   8.470  13.379  0.00  0.00    +0.000 OA
ATOM     26  H   UNL     1      51.644   7.602  11.329  0.00  0.00    +0.000 HD
ATOM     27  H   UNL     1      50.176   7.102  10.562  0.00  0.00    +0.000 HD
ENDBRANCH  17  24
ENDBRANCH  15  20
ENDBRANCH   1  15
TORSDOF 5
ENDMDL
MODEL 4
REMARK VINA RESULT:    -7.850      4.003      7.500
REMARK INTER + INTRA:         -11.170
REMARK INTER:                 -10.650
REMARK INTRA:                  -0.520
REMARK UNBOUND:                -1.025
REMARK  Name = 
REMARK  5 active torsions:
REMARK  status: ('A' for Active; 'I' for Inactive)
REMARK    1  A    between atoms: C_2  and  C_4
REMARK    2  A    between atoms: C_7  and  N_8
REMARK    3  A    between atoms: N_8  and  C_9
REMARK    4  A    between atoms: C_9  and  C_10
REMARK    5  A    between atoms: C_14  and  C_15
REMARK                            x       y       z     vdW  Elec       q    Type
REMARK                         _______ _______ _______ _____ _____    ______ ____
ROOT
ATOM      1  C   UNL     1      45.527   7.125  11.605  0.00  0.00    +0.000 C 
ENDROOT
BRANCH   1   2
ATOM      2  C   UNL     1      44.961   5.849  11.039  0.00  0.00    +0.000 A 
ATOM      3  C   UNL     1      43.717   5.373  11.453  0.00  0.00    +0.000 A 
ATOM      4  C   UNL     1      43.205   4.245  10.837  0.00  0.00    +0.000 A 
ATOM      5  N   UNL     1      43.844   3.564   9.863  0.00  0.00    +0.000 NA
ATOM      6  C   UNL     1      45.064   4.008   9.467  0.00  0.00    +0.000 A 
ATOM      7  C   UNL     1      45.635   5.152  10.027  0.00  0.00    +0.000 A 
BRANCH   6   8
ATOM      8  C   UNL     1      45.732   3.202   8.425  0.00  0.00    +0.000 A 
ATOM      9  C   UNL     1      46.235   3.782   7.242  0.00  0.00    +0.000 A 
ATOM     10  C   UNL     1      46.886   3.016   6.269  0.00  0.00    +0.000 A 
ATOM     11  C   UNL     1      47.051   1.649   6.459  0.00  0.00    +0.000 A 
ATOM     12  C   UNL     1      46.563   1.061   7.617  0.00  0.00    +0.000 A 
ATOM     13  F   UNL     1      46.724  -0.257   7.803  0.00  0.00    +0.000 F 
ATOM     14  C   UNL     1      45.915   1.816   8.590  0.00  0.00    +0.000 A 
ENDBRANCH   6   8
ENDBRANCH   1   2
BRANCH   1  15
ATOM     15  N   UNL     1      46.919   6.956  11.996  0.00  0.00    +0.000 N 
ATOM     16  H   UNL     1      47.512   6.584  11.257  0.00  0.00    +0.000 HD
BRANCH  15  20
ATOM     17  C   UNL     1      47.901   5.118  15.676  0.00  0.00    +0.000 A 
ATOM     18  C   UNL     1      48.489   6.337  15.335  0.00  0.00    +0.000 A 
ATOM     19  C   UNL     1      48.161   6.961  14.127  0.00  0.00    +0.000 A 
ATOM     20  C   UNL     1      47.222   6.407  13.246  0.00  0.00    +0.000 A 
ATOM     21  C   UNL     1      46.661   5.170  13.593  0.00  0.00    +0.000 A 
ATOM     22  C   UNL     1      46.997   4.525  14.792  0.00  0.00    +0.000 A 
BRANCH  17  24
ATOM     23  N   UNL     1      47.233   4.231  17.843  0.00  0.00    +0.000 N 
ATOM     24  C   UNL     1      48.244   4.416  16.940  0.00  0.00    +0.000 C 
ATOM     25  O   UNL     1      49.370   3.990  17.155  0.00  0.00    +0.000 OA
ATOM     26  H   UNL     1      47.455   3.669  18.655  0.00  0.00    +0.000 HD
ATOM     27  H   UNL     1      46.259   4.339  17.598  0.00  0.00    +0.000 HD
ENDBRANCH  17  24
ENDBRANCH  15  20
ENDBRANCH   1  15
TORSDOF 5
ENDMDL
MODEL 5
REMARK VINA RESULT:    -7.383      3.899      7.139
REMARK INTER + INTRA:         -10.565
REMARK INTER:                  -9.792
REMARK INTRA:                  -0.773
REMARK UNBOUND:                -1.025
REMARK  Name = 
REMARK  5 active torsions:
REMARK  status: ('A' for Active; 'I' for Inactive)
REMARK    1  A    between atoms: C_2  and  C_4
REMARK    2  A    between atoms: C_7  and  N_8
REMARK    3  A    between atoms: N_8  and  C_9
REMARK    4  A    between atoms: C_9  and  C_10
REMARK    5  A    between atoms: C_14  and  C_15
REMARK                            x       y       z     vdW  Elec       q    Type
REMARK                         _______ _______ _______ _____ _____    ______ ____
ROOT
ATOM      1  C   UNL     1      45.252   6.983  12.738  0.00  0.00    +0.000 C 
ENDROOT
BRANCH   1   2
ATOM      2  C   UNL     1      44.650   5.822  11.990  0.00  0.00    +0.000 A 
ATOM      3  C   UNL     1      43.373   5.356  12.302  0.00  0.00    +0.000 A 
ATOM      4  C   UNL     1      42.833   4.346  11.528  0.00  0.00    +0.000 A 
ATOM      5  N   UNL     1      43.473   3.771  10.489  0.00  0.00    +0.000 NA
ATOM      6  C   UNL     1      44.724   4.204  10.190  0.00  0.00    +0.000 A 
ATOM      7  C   UNL     1      45.327   5.235  10.913  0.00  0.00    +0.000 A 
BRANCH   6   8
ATOM      8  C   UNL     1      45.391   3.512   9.067  0.00  0.00    +0.000 A 
ATOM      9  C   UNL     1      45.975   4.220   7.997  0.00  0.00    +0.000 A 
ATOM     10  C   UNL     1      46.624   3.559   6.947  0.00  0.00    +0.000 A 
ATOM     11  C   UNL     1      46.704   2.171   6.947  0.00  0.00    +0.000 A 
ATOM     12  C   UNL     1      46.135   1.458   7.992  0.00  0.00    +0.000 A 
ATOM     13  F   UNL     1      46.214   0.119   7.995  0.00  0.00    +0.000 F 
ATOM     14  C   UNL     1      45.489   2.108   9.040  0.00  0.00    +0.000 A 
ENDBRANCH   6   8
ENDBRANCH   1   2
BRANCH   1  15
ATOM     15  N   UNL     1      46.395   6.561  13.534  0.00  0.00    +0.000 N 
ATOM     16  H   UNL     1      46.235   6.602  14.539  0.00  0.00    +0.000 HD
BRANCH  15  20
ATOM     17  C   UNL     1      50.190   8.066  12.432  0.00  0.00    +0.000 A 
ATOM     18  C   UNL     1      50.007   7.523  13.705  0.00  0.00    +0.000 A 
ATOM     19  C   UNL     1      48.759   7.008  14.074  0.00  0.00    +0.000 A 
ATOM     20  C   UNL     1      47.678   6.995  13.184  0.00  0.00    +0.000 A 
ATOM     21  C   UNL     1      47.873   7.569  11.920  0.00  0.00    +0.000 A 
ATOM     22  C   UNL     1      49.113   8.106  11.544  0.00  0.00    +0.000 A 
BRANCH  17  24
ATOM     23  N   UNL     1      51.988   8.248  10.801  0.00  0.00    +0.000 N 
ATOM     24  C   UNL     1      51.494   8.643  12.014  0.00  0.00    +0.000 C 
ATOM     25  O   UNL     1      52.090   9.459  12.704  0.00  0.00    +0.000 OA
ATOM     26  H   UNL     1      52.826   8.718  10.483  0.00  0.00    +0.000 HD
ATOM     27  H   UNL     1      51.418   7.786  10.107  0.00  0.00    +0.000 HD
ENDBRANCH  17  24
ENDBRANCH  15  20
ENDBRANCH   1  15
TORSDOF 5
ENDMDL
MODEL 6
REMARK VINA RESULT:    -6.634      4.760      7.974
REMARK INTER + INTRA:          -9.598
REMARK INTER:                  -8.787
REMARK INTRA:                  -0.811
REMARK UNBOUND:                -1.025
REMARK  Name = 
REMARK  5 active torsions:
REMARK  status: ('A' for Active; 'I' for Inactive)
REMARK    1  A    between atoms: C_2  and  C_4
REMARK    2  A    between atoms: C_7  and  N_8
REMARK    3  A    between atoms: N_8  and  C_9
REMARK    4  A    between atoms: C_9  and  C_10
REMARK    5  A    between atoms: C_14  and  C_15
REMARK                            x       y       z     vdW  Elec       q    Type
REMARK                         _______ _______ _______ _____ _____    ______ ____
ROOT
ATOM      1  C   UNL     1      48.558   6.661  15.831  0.00  0.00    +0.000 C 
ENDROOT
BRANCH   1   2
ATOM      2  C   UNL     1      48.086   6.706  14.401  0.00  0.00    +0.000 A 
ATOM      3  C   UNL     1      48.700   7.547  13.473  0.00  0.00    +0.000 A 
ATOM      4  C   UNL     1      48.286   7.486  12.154  0.00  0.00    +0.000 A 
ATOM      5  N   UNL     1      47.310   6.667  11.710  0.00  0.00    +0.000 NA
ATOM      6  C   UNL     1      46.693   5.860  12.610  0.00  0.00    +0.000 A 
ATOM      7  C   UNL     1      47.071   5.851  13.954  0.00  0.00    +0.000 A 
BRANCH   6   8
ATOM      8  C   UNL     1      45.607   5.013  12.073  0.00  0.00    +0.000 A 
ATOM      9  C   UNL     1      44.873   4.134  12.895  0.00  0.00    +0.000 A 
ATOM     10  C   UNL     1      43.830   3.351  12.385  0.00  0.00    +0.000 A 
ATOM     11  C   UNL     1      43.498   3.433  11.037  0.00  0.00    +0.000 A 
ATOM     12  C   UNL     1      44.210   4.293  10.214  0.00  0.00    +0.000 A 
ATOM     13  F   UNL     1      43.889   4.376   8.914  0.00  0.00    +0.000 F 
ATOM     14  C   UNL     1      45.246   5.076  10.714  0.00  0.00    +0.000 A 
ENDBRANCH   6   8
ENDBRANCH   1   2
BRANCH   1  15
ATOM     15  N   UNL     1      48.134   5.432  16.487  0.00  0.00    +0.000 N 
ATOM     16  H   UNL     1      47.422   5.570  17.201  0.00  0.00    +0.000 HD
BRANCH  15  20
ATOM     17  C   UNL     1      51.018   2.493  17.449  0.00  0.00    +0.000 A 
ATOM     18  C   UNL     1      51.350   3.845  17.554  0.00  0.00    +0.000 A 
ATOM     19  C   UNL     1      50.399   4.826  17.252  0.00  0.00    +0.000 A 
ATOM     20  C   UNL     1      49.093   4.489  16.870  0.00  0.00    +0.000 A 
ATOM     21  C   UNL     1      48.787   3.127  16.746  0.00  0.00    +0.000 A 
ATOM     22  C   UNL     1      49.737   2.135  17.026  0.00  0.00    +0.000 A 
BRANCH  17  24
ATOM     23  N   UNL     1      51.519   0.211  18.134  0.00  0.00    +0.000 N 
ATOM     24  C   UNL     1      52.011   1.426  17.739  0.00  0.00    +0.000 C 
ATOM     25  O   UNL     1      53.212   1.607  17.601  0.00  0.00    +0.000 OA
ATOM     26  H   UNL     1      52.196  -0.535  18.235  0.00  0.00    +0.000 HD
ATOM     27  H   UNL     1      50.550  -0.048  18.016  0.00  0.00    +0.000 HD
ENDBRANCH  17  24
ENDBRANCH  15  20
ENDBRANCH   1  15
TORSDOF 5
ENDMDL
MODEL 7
REMARK VINA RESULT:    -6.093      4.047      6.018
REMARK INTER + INTRA:          -8.898
REMARK INTER:                  -8.109
REMARK INTRA:                  -0.789
REMARK UNBOUND:                -1.025
REMARK  Name = 
REMARK  5 active torsions:
REMARK  status: ('A' for Active; 'I' for Inactive)
REMARK    1  A    between atoms: C_2  and  C_4
REMARK    2  A    between atoms: C_7  and  N_8
REMARK    3  A    between atoms: N_8  and  C_9
REMARK    4  A    between atoms: C_9  and  C_10
REMARK    5  A    between atoms: C_14  and  C_15
REMARK                            x       y       z     vdW  Elec       q    Type
REMARK                         _______ _______ _______ _____ _____    ______ ____
ROOT
ATOM      1  C   UNL     1      48.146   7.622  12.459  0.00  0.00    +0.000 C 
ENDROOT
BRANCH   1   2
ATOM      2  C   UNL     1      48.874   7.586  13.777  0.00  0.00    +0.000 A 
ATOM      3  C   UNL     1      49.786   8.586  14.117  0.00  0.00    +0.000 A 
ATOM      4  C   UNL     1      50.360   8.553  15.375  0.00  0.00    +0.000 A 
ATOM      5  N   UNL     1      50.101   7.601  16.295  0.00  0.00    +0.000 NA
ATOM      6  C   UNL     1      49.230   6.614  15.966  0.00  0.00    +0.000 A 
ATOM      7  C   UNL     1      48.595   6.592  14.723  0.00  0.00    +0.000 A 
BRANCH   6   8
ATOM      8  C   UNL     1      49.015   5.578  16.999  0.00  0.00    +0.000 A 
ATOM      9  C   UNL     1      49.683   5.615  18.240  0.00  0.00    +0.000 A 
ATOM     10  C   UNL     1      49.459   4.643  19.223  0.00  0.00    +0.000 A 
ATOM     11  C   UNL     1      48.557   3.612  18.984  0.00  0.00    +0.000 A 
ATOM     12  C   UNL     1      47.890   3.561  17.768  0.00  0.00    +0.000 A 
ATOM     13  F   UNL     1      47.017   2.569  17.538  0.00  0.00    +0.000 F 
ATOM     14  C   UNL     1      48.107   4.524  16.787  0.00  0.00    +0.000 A 
ENDBRANCH   6   8
ENDBRANCH   1   2
BRANCH   1  15
ATOM     15  N   UNL     1      46.704   7.598  12.653  0.00  0.00    +0.000 N 
ATOM     16  H   UNL     1      46.401   7.986  13.544  0.00  0.00    +0.000 HD
BRANCH  15  20
ATOM     17  C   UNL     1      44.659   4.105  11.429  0.00  0.00    +0.000 A 
ATOM     18  C   UNL     1      45.089   4.224  12.752  0.00  0.00    +0.000 A 
ATOM     19  C   UNL     1      45.754   5.382  13.171  0.00  0.00    +0.000 A 
ATOM     20  C   UNL     1      45.979   6.456  12.299  0.00  0.00    +0.000 A 
ATOM     21  C   UNL     1      45.563   6.306  10.968  0.00  0.00    +0.000 A 
ATOM     22  C   UNL     1      44.914   5.143  10.531  0.00  0.00    +0.000 A 
BRANCH  17  24
ATOM     23  N   UNL     1      44.555   2.211   9.903  0.00  0.00    +0.000 N 
ATOM     24  C   UNL     1      43.971   2.880  10.944  0.00  0.00    +0.000 C 
ATOM     25  O   UNL     1      42.948   2.464  11.468  0.00  0.00    +0.000 OA
ATOM     26  H   UNL     1      44.132   1.328   9.644  0.00  0.00    +0.000 HD
ATOM     27  H   UNL     1      45.510   2.375   9.618  0.00  0.00    +0.000 HD
ENDBRANCH  17  24
ENDBRANCH  15  20
ENDBRANCH   1  15
TORSDOF 5
ENDMDL
