MODEL 1
REMARK VINA RESULT:    -7.760      0.000      0.000
REMARK INTER + INTRA:         -10.216
REMARK INTER:                  -9.802
REMARK INTRA:                  -0.414
REMARK UNBOUND:                -0.414
REMARK  Name = 
REMARK  5 active torsions:
REMARK  status: ('A' for Active; 'I' for Inactive)
REMARK    1  A    between atoms: N_1  and  C_2
REMARK    2  A    between atoms: C_2  and  C_3
REMARK    3  A    between atoms: C_3  and  C_5
REMARK    4  A    between atoms: C_9  and  C_10
REMARK    5  A    between atoms: C_10  and  N_11
REMARK                            x       y       z     vdW  Elec       q    Type
REMARK                         _______ _______ _______ _____ _____    ______ ____
ROOT
ATOM      1  C   UNL     1      46.983   5.187  14.320  0.00  0.00    +0.000 A 
ATOM      2  C   UNL     1      47.856   6.261  14.121  0.00  0.00    +0.000 A 
ATOM      3  C   UNL     1      47.511   7.290  13.243  0.00  0.00    +0.000 A 
ATOM      4  C   UNL     1      46.302   7.249  12.548  0.00  0.00    +0.000 A 
ATOM      5  C   UNL     1      45.416   6.177  12.723  0.00  0.00    +0.000 A 
ATOM      6  C   UNL     1      45.764   5.155  13.622  0.00  0.00    +0.000 A 
ENDROOT
BRANCH   1   7
ATOM      7  C   UNL     1      47.318   4.039  15.223  0.00  0.00    +0.000 C 
ATOM      8  O   UNL     1      47.636   2.961  14.720  0.00  0.00    +0.000 OA
BRANCH   7   9
ATOM      9  C   UNL     1      47.309   4.287  16.734  0.00  0.00    +0.000 C 
BRANCH   9  10
ATOM     10  N   UNL     1      46.637   3.196  17.446  0.00  0.00    +0.000 NA
ATOM     11  H   UNL     1      46.241   2.535  16.781  0.00  0.00    +0.000 HD
ATOM     12  H   UNL     1      45.858   3.589  17.982  0.00  0.00    +0.000 HD
ENDBRANCH   9  10
ENDBRANCH   7   9
ENDBRANCH   1   7
BRANCH   5  13
ATOM     13  C   UNL     1      44.144   6.085  11.915  0.00  0.00    +0.000 C 
BRANCH  13  14
ATOM     14  N   UNL     1      44.038   4.794  11.257  0.00  0.00    +0.000 N 
ATOM     15  C   UNL     1      43.282   3.744  11.705  0.00  0.00    +0.000 A 
ATOM     16  N   UNL     1      43.406   2.690  10.932  0.00  0.00    +0.000 NA
ATOM     17  C   UNL     1      44.263   3.076   9.929  0.00  0.00    +0.000 A 
ATOM     18  C   UNL     1      44.745   2.342   8.847  0.00  0.00    +0.000 A 
ATOM     19  C   UNL     1      45.594   3.023   7.990  0.00  0.00    +0.000 A 
ATOM     20  N   UNL     1      45.968   4.317   8.137  0.00  0.00    +0.000 NA
ATOM     21  C   UNL     1      45.503   5.026   9.191  0.00  0.00    +0.000 A 
ATOM     22  C   UNL     1      44.656   4.400  10.094  0.00  0.00    +0.000 A 
ENDBRANCH  13  14
ENDBRANCH   5  13
TORSDOF 5
ENDMDL
MODEL 2
REMARK VINA RESULT:    -7.603      1.995      3.637
REMARK INTER + INTRA:         -10.017
REMARK INTER:                  -9.741
REMARK INTRA:                  -0.276
REMARK UNBOUND:                -0.414
REMARK  Name = 
REMARK  5 active torsions:
REMARK  status: ('A' for Active; 'I' for Inactive)
REMARK    1  A    between atoms: N_1  and  C_2
REMARK    2  A    between atoms: C_2  and  C_3
REMARK    3  A    between atoms: C_3  and  C_5
REMARK    4  A    between atoms: C_9  and  C_10
REMARK    5  A    between atoms: C_10  and  N_11
REMARK                            x       y       z     vdW  Elec       q    Type
REMARK                         _______ _______ _______ _____ _____    ______ ____
ROOT
ATOM      1  C   UNL     1      45.222   4.589  13.078  0.00  0.00    +0.000 A 
ATOM      2  C   UNL     1      44.061   5.345  13.268  0.00  0.00    +0.000 A 
ATOM      3  C   UNL     1      42.954   5.150  12.440  0.00  0.00    +0.000 A 
ATOM      4  C   UNL     1      43.002   4.211  11.409  0.00  0.00    +0.000 A 
ATOM      5  C   UNL     1      44.158   3.450  11.192  0.00  0.00    +0.000 A 
ATOM      6  C   UNL     1      45.260   3.641  12.042  0.00  0.00    +0.000 A 
ENDROOT
BRANCH   1   7
ATOM      7  C   UNL     1      46.450   4.782  13.914  0.00  0.00    +0.000 C 
ATOM      8  O   UNL     1      46.581   4.114  14.940  0.00  0.00    +0.000 OA
BRANCH   7   9
ATOM      9  C   UNL     1      47.516   5.760  13.412  0.00  0.00    +0.000 C 
BRANCH   9  10
ATOM     10  N   UNL     1      48.434   6.143  14.489  0.00  0.00    +0.000 NA
ATOM     11  H   UNL     1      48.764   5.314  14.979  0.00  0.00    +0.000 HD
ATOM     12  H   UNL     1      47.920   6.710  15.168  0.00  0.00    +0.000 HD
ENDBRANCH   9  10
ENDBRANCH   7   9
ENDBRANCH   1   7
BRANCH   5  13
ATOM     13  C   UNL     1      44.245   2.490  10.030  0.00  0.00    +0.000 C 
BRANCH  13  14
ATOM     14  N   UNL     1      45.112   3.012   8.987  0.00  0.00    +0.000 N 
ATOM     15  C   UNL     1      45.226   4.335   8.650  0.00  0.00    +0.000 A 
ATOM     16  N   UNL     1      46.054   4.512   7.647  0.00  0.00    +0.000 NA
ATOM     17  C   UNL     1      46.513   3.255   7.331  0.00  0.00    +0.000 A 
ATOM     18  C   UNL     1      47.407   2.865   6.336  0.00  0.00    +0.000 A 
ATOM     19  C   UNL     1      47.685   1.509   6.277  0.00  0.00    +0.000 A 
ATOM     20  N   UNL     1      47.158   0.573   7.104  0.00  0.00    +0.000 NA
ATOM     21  C   UNL     1      46.288   0.955   8.066  0.00  0.00    +0.000 A 
ATOM     22  C   UNL     1      45.957   2.298   8.173  0.00  0.00    +0.000 A 
ENDBRANCH  13  14
ENDBRANCH   5  13
TORSDOF 5
ENDMDL
MODEL 3
REMARK VINA RESULT:    -7.342      2.042      3.262
REMARK INTER + INTRA:          -9.688
REMARK INTER:                  -9.118
REMARK INTRA:                  -0.570
REMARK UNBOUND:                -0.414
REMARK  Name = 
REMARK  5 active torsions:
REMARK  status: ('A' for Active; 'I' for Inactive)
REMARK    1  A    between atoms: N_1  and  C_2
REMARK    2  A    between atoms: C_2  and  C_3
REMARK    3  A    between atoms: C_3  and  C_5
REMARK    4  A    between atoms: C_9  and  C_10
REMARK    5  A    between atoms: C_10  and  N_11
REMARK                            x       y       z     vdW  Elec       q    Type
REMARK                         _______ _______ _______ _____ _____    ______ ____
ROOT
ATOM      1  C   UNL     1      45.445   5.256  12.580  0.00  0.00    +0.000 A 
ATOM      2  C   UNL     1      44.223   5.335  13.256  0.00  0.00    +0.000 A 
ATOM      3  C   UNL     1      43.029   5.095  12.573  0.00  0.00    +0.000 A 
ATOM      4  C   UNL     1      43.043   4.789  11.212  0.00  0.00    +0.000 A 
ATOM      5  C   UNL     1      44.255   4.716  10.512  0.00  0.00    +0.000 A 
ATOM      6  C   UNL     1      45.452   4.941  11.211  0.00  0.00    +0.000 A 
ENDROOT
BRANCH   1   7
ATOM      7  C   UNL     1      46.753   5.538  13.254  0.00  0.00    +0.000 C 
ATOM      8  O   UNL     1      47.448   6.466  12.839  0.00  0.00    +0.000 OA
BRANCH   7   9
ATOM      9  C   UNL     1      47.130   4.694  14.474  0.00  0.00    +0.000 C 
BRANCH   9  10
ATOM     10  N   UNL     1      47.242   3.274  14.123  0.00  0.00    +0.000 NA
ATOM     11  H   UNL     1      46.390   2.959  13.665  0.00  0.00    +0.000 HD
ATOM     12  H   UNL     1      47.340   2.733  14.985  0.00  0.00    +0.000 HD
ENDBRANCH   9  10
ENDBRANCH   7   9
ENDBRANCH   1   7
BRANCH   5  13
ATOM     13  C   UNL     1      44.273   4.465   9.023  0.00  0.00    +0.000 C 
BRANCH  13  14
ATOM     14  N   UNL     1      44.902   3.191   8.718  0.00  0.00    +0.000 N 
ATOM     15  C   UNL     1      44.480   1.975   9.185  0.00  0.00    +0.000 A 
ATOM     16  N   UNL     1      45.260   1.000   8.780  0.00  0.00    +0.000 NA
ATOM     17  C   UNL     1      46.219   1.603   8.001  0.00  0.00    +0.000 A 
ATOM     18  C   UNL     1      47.299   1.035   7.330  0.00  0.00    +0.000 A 
ATOM     19  C   UNL     1      48.088   1.915   6.608  0.00  0.00    +0.000 A 
ATOM     20  N   UNL     1      47.875   3.251   6.518  0.00  0.00    +0.000 NA
ATOM     21  C   UNL     1      46.828   3.801   7.174  0.00  0.00    +0.000 A 
ATOM     22  C   UNL     1      46.004   2.975   7.925  0.00  0.00    +0.000 A 
ENDBRANCH  13  14
ENDBRANCH   5  13
TORSDOF 5
ENDMDL
MODEL 4
REMARK VINA RESULT:    -7.194      2.628      6.505
REMARK INTER + INTRA:          -9.501
REMARK INTER:                  -9.092
REMARK INTRA:                  -0.408
REMARK UNBOUND:                -0.414
REMARK  Name = 
REMARK  5 active torsions:
REMARK  status: ('A' for Active; 'I' for Inactive)
REMARK    1  A    between atoms: N_1  and  C_2
REMARK    2  A    between atoms: C_2  and  C_3
REMARK    3  A    between atoms: C_3  and  C_5
REMARK    4  A    between atoms: C_9  and  C_10
REMARK    5  A    between atoms: C_10  and  N_11
REMARK                            x       y       z     vdW  Elec       q    Type
REMARK                         _______ _______ _______ _____ _____    ______ ____
ROOT
ATOM      1  C   UNL     1      45.813   3.099   8.127  0.00  0.00    +0.000 A 
ATOM      2  C   UNL     1      45.408   1.827   8.546  0.00  0.00    +0.000 A 
ATOM      3  C   UNL     1      44.493   1.692   9.592  0.00  0.00    +0.000 A 
ATOM      4  C   UNL     1      43.985   2.822  10.235  0.00  0.00    +0.000 A 
ATOM      5  C   UNL     1      44.384   4.105   9.840  0.00  0.00    +0.000 A 
ATOM      6  C   UNL     1      45.292   4.231   8.775  0.00  0.00    +0.000 A 
ENDROOT
BRANCH   1   7
ATOM      7  C   UNL     1      46.817   3.300   7.035  0.00  0.00    +0.000 C 
ATOM      8  O   UNL     1      46.741   4.312   6.336  0.00  0.00    +0.000 OA
BRANCH   7   9
ATOM      9  C   UNL     1      47.934   2.264   6.884  0.00  0.00    +0.000 C 
BRANCH   9  10
ATOM     10  N   UNL     1      48.421   2.205   5.503  0.00  0.00    +0.000 NA
ATOM     11  H   UNL     1      49.437   2.138   5.493  0.00  0.00    +0.000 HD
ATOM     12  H   UNL     1      48.173   3.080   5.033  0.00  0.00    +0.000 HD
ENDBRANCH   9  10
ENDBRANCH   7   9
ENDBRANCH   1   7
BRANCH   5  13
ATOM     13  C   UNL     1      43.902   5.328  10.583  0.00  0.00    +0.000 C 
BRANCH  13  14
ATOM     14  N   UNL     1      44.979   5.928  11.352  0.00  0.00    +0.000 N 
ATOM     15  C   UNL     1      45.527   7.159  11.108  0.00  0.00    +0.000 A 
ATOM     16  N   UNL     1      46.510   7.427  11.936  0.00  0.00    +0.000 NA
ATOM     17  C   UNL     1      46.592   6.335  12.766  0.00  0.00    +0.000 A 
ATOM     18  C   UNL     1      47.469   6.090  13.820  0.00  0.00    +0.000 A 
ATOM     19  C   UNL     1      47.289   4.887  14.484  0.00  0.00    +0.000 A 
ATOM     20  N   UNL     1      46.341   3.968  14.179  0.00  0.00    +0.000 NA
ATOM     21  C   UNL     1      45.494   4.207  13.151  0.00  0.00    +0.000 A 
ATOM     22  C   UNL     1      45.627   5.389  12.438  0.00  0.00    +0.000 A 
ENDBRANCH  13  14
ENDBRANCH   5  13
TORSDOF 5
ENDMDL
MODEL 5
REMARK VINA RESULT:    -6.405      2.415      3.402
REMARK INTER + INTRA:          -8.505
REMARK INTER:                  -8.017
REMARK INTRA:                  -0.488
REMARK UNBOUND:                -0.414
REMARK  Name = 
REMARK  5 active torsions:
REMARK  status: ('A' for Active; 'I' for Inactive)
REMARK    1  A    between atoms: N_1  and  C_2
REMARK    2  A    between atoms: C_2  and  C_3
REMARK    3  A    between atoms: C_3  and  C_5
REMARK    4  A    between atoms: C_9  and  C_10
REMARK    5  A    between atoms: C_10  and  N_11
REMARK                            x       y       z     vdW  Elec       q    Type
REMARK                         _______ _______ _______ _____ _____    ______ ____
ROOT
ATOM      1  C   UNL     1      47.938   7.448  12.588  0.00  0.00    +0.000 A 
ATOM      2  C   UNL     1      48.305   6.599  13.637  0.00  0.00    +0.000 A 
ATOM      3  C   UNL     1      47.427   5.606  14.075  0.00  0.00    +0.000 A 
ATOM      4  C   UNL     1      46.173   5.460  13.481  0.00  0.00    +0.000 A 
ATOM      5  C   UNL     1      45.779   6.306  12.436  0.00  0.00    +0.000 A 
ATOM      6  C   UNL     1      46.677   7.291  11.990  0.00  0.00    +0.000 A 
ENDROOT
BRANCH   1   7
ATOM      7  C   UNL     1      48.825   8.552  12.102  0.00  0.00    +0.000 C 
ATOM      8  O   UNL     1      48.309   9.573  11.646  0.00  0.00    +0.000 OA
BRANCH   7   9
ATOM      9  C   UNL     1      50.339   8.379  12.258  0.00  0.00    +0.000 C 
BRANCH   9  10
ATOM     10  N   UNL     1      50.868   7.424  11.280  0.00  0.00    +0.000 NA
ATOM     11  H   UNL     1      51.806   7.698  10.995  0.00  0.00    +0.000 HD
ATOM     12  H   UNL     1      50.278   7.455  10.444  0.00  0.00    +0.000 HD
ENDBRANCH   9  10
ENDBRANCH   7   9
ENDBRANCH   1   7
BRANCH   5  13
ATOM     13  C   UNL     1      44.395   6.207  11.842  0.00  0.00    +0.000 C 
BRANCH  13  14
ATOM     14  N   UNL     1      44.182   4.905  11.232  0.00  0.00    +0.000 N 
ATOM     15  C   UNL     1      43.376   3.921  11.742  0.00  0.00    +0.000 A 
ATOM     16  N   UNL     1      43.404   2.837  11.002  0.00  0.00    +0.000 NA
ATOM     17  C   UNL     1      44.248   3.134   9.958  0.00  0.00    +0.000 A 
ATOM     18  C   UNL     1      44.641   2.336   8.886  0.00  0.00    +0.000 A 
ATOM     19  C   UNL     1      45.500   2.932   7.977  0.00  0.00    +0.000 A 
ATOM     20  N   UNL     1      45.962   4.203   8.067  0.00  0.00    +0.000 NA
ATOM     21  C   UNL     1      45.582   4.974   9.111  0.00  0.00    +0.000 A 
ATOM     22  C   UNL     1      44.730   4.434  10.064  0.00  0.00    +0.000 A 
ENDBRANCH  13  14
ENDBRANCH   5  13
TORSDOF 5
ENDMDL
MODEL 6
REMARK VINA RESULT:    -6.278      2.834      4.190
REMARK INTER + INTRA:          -8.344
REMARK INTER:                  -7.939
REMARK INTRA:                  -0.405
REMARK UNBOUND:                -0.414
REMARK  Name = 
REMARK  5 active torsions:
REMARK  status: ('A' for Active; 'I' for Inactive)
REMARK    1  A    between atoms: N_1  and  C_2
REMARK    2  A    between atoms: C_2  and  C_3
REMARK    3  A    between atoms: C_3  and  C_5
REMARK    4  A    between atoms: C_9  and  C_10
REMARK    5  A    between atoms: C_10  and  N_11
REMARK                            x       y       z     vdW  Elec       q    Type
REMARK                         _______ _______ _______ _____ _____    ______ ____
ROOT
ATOM      1  C   UNL     1      46.001   6.232  12.570  0.00  0.00    +0.000 A 
ATOM      2  C   UNL     1      46.089   5.270  13.581  0.00  0.00    +0.000 A 
ATOM      3  C   UNL     1      45.666   3.961  13.342  0.00  0.00    +0.000 A 
ATOM      4  C   UNL     1      45.140   3.605  12.100  0.00  0.00    +0.000 A 
ATOM      5  C   UNL     1      45.032   4.555  11.075  0.00  0.00    +0.000 A 
ATOM      6  C   UNL     1      45.477   5.865  11.319  0.00  0.00    +0.000 A 
ENDROOT
BRANCH   1   7
ATOM      7  C   UNL     1      46.407   7.657  12.783  0.00  0.00    +0.000 C 
ATOM      8  O   UNL     1      47.606   7.935  12.816  0.00  0.00    +0.000 OA
BRANCH   7   9
ATOM      9  C   UNL     1      45.302   8.712  12.885  0.00  0.00    +0.000 C 
BRANCH   9  10
ATOM     10  N   UNL     1      45.148   9.443  11.623  0.00  0.00    +0.000 NA
ATOM     11  H   UNL     1      44.551  10.256  11.760  0.00  0.00    +0.000 HD
ATOM     12  H   UNL     1      44.676   8.833  10.950  0.00  0.00    +0.000 HD
ENDBRANCH   9  10
ENDBRANCH   7   9
ENDBRANCH   1   7
BRANCH   5  13
ATOM     13  C   UNL     1      44.391   4.198   9.756  0.00  0.00    +0.000 C 
BRANCH  13  14
ATOM     14  N   UNL     1      45.398   3.922   8.745  0.00  0.00    +0.000 N 
ATOM     15  C   UNL     1      46.064   4.873   8.020  0.00  0.00    +0.000 A 
ATOM     16  N   UNL     1      46.889   4.334   7.152  0.00  0.00    +0.000 NA
ATOM     17  C   UNL     1      46.769   2.977   7.333  0.00  0.00    +0.000 A 
ATOM     18  C   UNL     1      47.411   1.936   6.666  0.00  0.00    +0.000 A 
ATOM     19  C   UNL     1      47.085   0.658   7.092  0.00  0.00    +0.000 A 
ATOM     20  N   UNL     1      46.210   0.373   8.086  0.00  0.00    +0.000 NA
ATOM     21  C   UNL     1      45.584   1.386   8.729  0.00  0.00    +0.000 A 
ATOM     22  C   UNL     1      45.858   2.690   8.344  0.00  0.00    +0.000 A 
ENDBRANCH  13  14
ENDBRANCH   5  13
TORSDOF 5
ENDMDL
MODEL 7
REMARK VINA RESULT:    -6.270      2.548      6.195
REMARK INTER + INTRA:          -8.333
REMARK INTER:                  -7.801
REMARK INTRA:                  -0.532
REMARK UNBOUND:                -0.414
REMARK  Name = 
REMARK  5 active torsions:
REMARK  status: ('A' for Active; 'I' for Inactive)
REMARK    1  A    between atoms: N_1  and  C_2
REMARK    2  A    between atoms: C_2  and  C_3
REMARK    3  A    between atoms: C_3  and  C_5
REMARK    4  A    between atoms: C_9  and  C_10
REMARK    5  A    between atoms: C_10  and  N_11
REMARK                            x       y       z     vdW  Elec       q    Type
REMARK                         _______ _______ _______ _____ _____    ______ ____
ROOT
ATOM      1  C   UNL     1      45.008   3.854   9.657  0.00  0.00    +0.000 A 
ATOM      2  C   UNL     1      44.218   2.731   9.922  0.00  0.00    +0.000 A 
ATOM      3  C   UNL     1      43.533   2.627  11.134  0.00  0.00    +0.000 A 
ATOM      4  C   UNL     1      43.641   3.634  12.094  0.00  0.00    +0.000 A 
ATOM      5  C   UNL     1      44.436   4.763  11.855  0.00  0.00    +0.000 A 
ATOM      6  C   UNL     1      45.107   4.867  10.625  0.00  0.00    +0.000 A 
ENDROOT
BRANCH   1   7
ATOM      7  C   UNL     1      45.792   4.001   8.389  0.00  0.00    +0.000 C 
ATOM      8  O   UNL     1      46.284   5.097   8.118  0.00  0.00    +0.000 OA
BRANCH   7   9
ATOM      9  C   UNL     1      45.996   2.756   7.522  0.00  0.00    +0.000 C 
BRANCH   9  10
ATOM     10  N   UNL     1      47.415   2.550   7.214  0.00  0.00    +0.000 NA
ATOM     11  H   UNL     1      47.824   1.893   7.875  0.00  0.00    +0.000 HD
ATOM     12  H   UNL     1      47.906   3.441   7.332  0.00  0.00    +0.000 HD
ENDBRANCH   9  10
ENDBRANCH   7   9
ENDBRANCH   1   7
BRANCH   5  13
ATOM     13  C   UNL     1      44.622   5.816  12.920  0.00  0.00    +0.000 C 
BRANCH  13  14
ATOM     14  N   UNL     1      46.004   5.866  13.367  0.00  0.00    +0.000 N 
ATOM     15  C   UNL     1      46.619   4.908  14.128  0.00  0.00    +0.000 A 
ATOM     16  N   UNL     1      47.858   5.235  14.414  0.00  0.00    +0.000 NA
ATOM     17  C   UNL     1      48.065   6.446  13.797  0.00  0.00    +0.000 A 
ATOM     18  C   UNL     1      49.204   7.248  13.784  0.00  0.00    +0.000 A 
ATOM     19  C   UNL     1      49.104   8.420  13.051  0.00  0.00    +0.000 A 
ATOM     20  N   UNL     1      48.002   8.816  12.369  0.00  0.00    +0.000 NA
ATOM     21  C   UNL     1      46.896   8.037  12.387  0.00  0.00    +0.000 A 
ATOM     22  C   UNL     1      46.925   6.854  13.112  0.00  0.00    +0.000 A 
ENDBRANCH  13  14
ENDBRANCH   5  13
TORSDOF 5
ENDMDL
MODEL 8
REMARK VINA RESULT:    -5.903      2.535      6.488
REMARK INTER + INTRA:          -7.870
REMARK INTER:                  -7.706
REMARK INTRA:                  -0.165
REMARK UNBOUND:                -0.414
REMARK  Name = 
REMARK  5 active torsions:
REMARK  status: ('A' for Active; 'I' for Inactive)
REMARK    1  A    between atoms: N_1  and  C_2
REMARK    2  A    between atoms: C_2  and  C_3
REMARK    3  A    between atoms: C_3  and  C_5
REMARK    4  A    between atoms: C_9  and  C_10
REMARK    5  A    between atoms: C_10  and  N_11
REMARK                            x       y       z     vdW  Elec       q    Type
REMARK                         _______ _______ _______ _____ _____    ______ ____
ROOT
ATOM      1  C   UNL     1      44.775   4.878  10.173  0.00  0.00    +0.000 A 
ATOM      2  C   UNL     1      43.489   5.026  10.702  0.00  0.00    +0.000 A 
ATOM      3  C   UNL     1      43.303   5.690  11.916  0.00  0.00    +0.000 A 
ATOM      4  C   UNL     1      44.397   6.198  12.617  0.00  0.00    +0.000 A 
ATOM      5  C   UNL     1      45.696   6.052  12.112  0.00  0.00    +0.000 A 
ATOM      6  C   UNL     1      45.871   5.399  10.881  0.00  0.00    +0.000 A 
ENDROOT
BRANCH   1   7
ATOM      7  C   UNL     1      45.036   4.145   8.893  0.00  0.00    +0.000 C 
ATOM      8  O   UNL     1      45.702   4.698   8.017  0.00  0.00    +0.000 OA
BRANCH   7   9
ATOM      9  C   UNL     1      44.511   2.713   8.765  0.00  0.00    +0.000 C 
BRANCH   9  10
ATOM     10  N   UNL     1      45.547   1.735   9.112  0.00  0.00    +0.000 NA
ATOM     11  H   UNL     1      46.129   1.539   8.300  0.00  0.00    +0.000 HD
ATOM     12  H   UNL     1      45.091   0.858   9.375  0.00  0.00    +0.000 HD
ENDBRANCH   9  10
ENDBRANCH   7   9
ENDBRANCH   1   7
BRANCH   5  13
ATOM     13  C   UNL     1      46.890   6.528  12.903  0.00  0.00    +0.000 C 
BRANCH  13  14
ATOM     14  N   UNL     1      47.212   5.596  13.971  0.00  0.00    +0.000 N 
ATOM     15  C   UNL     1      46.800   4.291  14.026  0.00  0.00    +0.000 A 
ATOM     16  N   UNL     1      47.207   3.698  15.124  0.00  0.00    +0.000 NA
ATOM     17  C   UNL     1      47.930   4.650  15.803  0.00  0.00    +0.000 A 
ATOM     18  C   UNL     1      48.578   4.556  17.032  0.00  0.00    +0.000 A 
ATOM     19  C   UNL     1      49.243   5.699  17.449  0.00  0.00    +0.000 A 
ATOM     20  N   UNL     1      49.299   6.860  16.752  0.00  0.00    +0.000 NA
ATOM     21  C   UNL     1      48.665   6.949  15.561  0.00  0.00    +0.000 A 
ATOM     22  C   UNL     1      47.971   5.843  15.090  0.00  0.00    +0.000 A 
ENDBRANCH  13  14
ENDBRANCH   5  13
TORSDOF 5
ENDMDL
MODEL 9
REMARK VINA RESULT:    -5.885      1.931      2.160
REMARK INTER + INTRA:          -7.847
REMARK INTER:                  -7.349
REMARK INTRA:                  -0.498
REMARK UNBOUND:                -0.414
REMARK  Name = 
REMARK  5 active torsions:
REMARK  status: ('A' for Active; 'I' for Inactive)
REMARK    1  A    between atoms: N_1  and  C_2
REMARK    2  A    between atoms: C_2  and  C_3
REMARK    3  A    between atoms: C_3  and  C_5
REMARK    4  A    between atoms: C_9  and  C_10
REMARK    5  A    between atoms: C_10  and  N_11
REMARK                            x       y       z     vdW  Elec       q    Type
REMARK                         _______ _______ _______ _____ _____    ______ ____
ROOT
ATOM      1  C   UNL     1      48.339   6.796  14.045  0.00  0.00    +0.000 A 
ATOM      2  C   UNL     1      49.316   7.160  13.113  0.00  0.00    +0.000 A 
ATOM      3  C   UNL     1      48.958   7.416  11.788  0.00  0.00    +0.000 A 
ATOM      4  C   UNL     1      47.629   7.299  11.380  0.00  0.00    +0.000 A 
ATOM      5  C   UNL     1      46.635   6.925  12.294  0.00  0.00    +0.000 A 
ATOM      6  C   UNL     1      47.002   6.686  13.629  0.00  0.00    +0.000 A 
ENDROOT
BRANCH   1   7
ATOM      7  C   UNL     1      48.672   6.475  15.470  0.00  0.00    +0.000 C 
ATOM      8  O   UNL     1      48.668   5.297  15.830  0.00  0.00    +0.000 OA
BRANCH   7   9
ATOM      9  C   UNL     1      49.065   7.630  16.394  0.00  0.00    +0.000 C 
BRANCH   9  10
ATOM     10  N   UNL     1      48.011   8.648  16.449  0.00  0.00    +0.000 NA
ATOM     11  H   UNL     1      47.359   8.437  17.201  0.00  0.00    +0.000 HD
ATOM     12  H   UNL     1      47.482   8.616  15.574  0.00  0.00    +0.000 HD
ENDBRANCH   9  10
ENDBRANCH   7   9
ENDBRANCH   1   7
BRANCH   5  13
ATOM     13  C   UNL     1      45.209   6.718  11.844  0.00  0.00    +0.000 C 
BRANCH  13  14
ATOM     14  N   UNL     1      44.967   5.326  11.505  0.00  0.00    +0.000 N 
ATOM     15  C   UNL     1      44.451   4.388  12.359  0.00  0.00    +0.000 A 
ATOM     16  N   UNL     1      44.378   3.204  11.795  0.00  0.00    +0.000 NA
ATOM     17  C   UNL     1      44.848   3.383  10.516  0.00  0.00    +0.000 A 
ATOM     18  C   UNL     1      44.997   2.452   9.491  0.00  0.00    +0.000 A 
ATOM     19  C   UNL     1      45.490   2.949   8.295  0.00  0.00    +0.000 A 
ATOM     20  N   UNL     1      45.823   4.243   8.072  0.00  0.00    +0.000 NA
ATOM     21  C   UNL     1      45.681   5.145   9.071  0.00  0.00    +0.000 A 
ATOM     22  C   UNL     1      45.202   4.711  10.299  0.00  0.00    +0.000 A 
ENDBRANCH  13  14
ENDBRANCH   5  13
TORSDOF 5
ENDMDL
