MODEL 1
REMARK VINA RESULT:    -8.345      0.000      0.000
REMARK INTER + INTRA:         -13.481
REMARK INTER:                 -12.004
REMARK INTRA:                  -1.477
REMARK UNBOUND:                -1.477
REMARK  Name = 
REMARK  8 active torsions:
REMARK  status: ('A' for Active; 'I' for Inactive)
REMARK    1  A    between atoms: C_2  and  C_21
REMARK    2  A    between atoms: N_3  and  C_4
REMARK    3  A    between atoms: C_4  and  C_5
REMARK    4  A    between atoms: C_8  and  C_9
REMARK    5  A    between atoms: C_9  and  C_10
REMARK    6  A    between atoms: C_10  and  C_11
REMARK    7  A    between atoms: C_11  and  O_12
REMARK    8  A    between atoms: C_11  and  C_13
REMARK                            x       y       z     vdW  Elec       q    Type
REMARK                         _______ _______ _______ _____ _____    ______ ____
ROOT
ATOM      1  C   UNL     1      46.536   7.542  12.465  0.00  0.00    +0.000 A 
ATOM      2  C   UNL     1      46.939   6.740  11.398  0.00  0.00    +0.000 A 
ATOM      3  C   UNL     1      46.027   5.870  10.805  0.00  0.00    +0.000 A 
ATOM      4  C   UNL     1      44.717   5.838  11.278  0.00  0.00    +0.000 A 
ATOM      5  N   UNL     1      44.298   6.616  12.306  0.00  0.00    +0.000 NA
ATOM      6  C   UNL     1      45.208   7.448  12.864  0.00  0.00    +0.000 A 
ENDROOT
BRANCH   1   7
ATOM      7  C   UNL     1      47.473   8.533  13.096  0.00  0.00    +0.000 C 
BRANCH   7  10
ATOM      8  O   UNL     1      49.725   6.982  13.949  0.00  0.00    +0.000 OA
ATOM      9  C   UNL     1      48.842   7.296  14.732  0.00  0.00    +0.000 C 
ATOM     10  N   UNL     1      47.784   8.119  14.436  0.00  0.00    +0.000 N 
ATOM     11  H   UNL     1      47.026   8.175  15.101  0.00  0.00    +0.000 HD
BRANCH   9  12
ATOM     12  C   UNL     1      48.666   6.672  16.044  0.00  0.00    +0.000 A 
ATOM     13  C   UNL     1      49.142   7.242  17.212  0.00  0.00    +0.000 A 
ATOM     14  S   UNL     1      49.318   6.075  18.458  0.00  0.00    +0.000 S 
ATOM     15  C   UNL     1      48.640   4.847  17.486  0.00  0.00    +0.000 A 
ATOM     16  N   UNL     1      48.623   3.539  17.856  0.00  0.00    +0.000 NA
ATOM     17  C   UNL     1      48.039   2.756  17.008  0.00  0.00    +0.000 A 
ATOM     18  N   UNL     1      47.416   3.166  15.853  0.00  0.00    +0.000 N 
ATOM     19  C   UNL     1      47.385   4.473  15.448  0.00  0.00    +0.000 A 
ATOM     20  O   UNL     1      46.751   4.850  14.467  0.00  0.00    +0.000 OA
ATOM     21  C   UNL     1      48.154   5.360  16.302  0.00  0.00    +0.000 A 
ATOM     22  H   UNL     1      46.914   2.513  15.271  0.00  0.00    +0.000 HD
ENDBRANCH   9  12
ENDBRANCH   7  10
ENDBRANCH   1   7
BRANCH   4  23
ATOM     23  C   UNL     1      43.703   4.913  10.654  0.00  0.00    +0.000 C 
BRANCH  23  24
ATOM     24  C   UNL     1      44.165   4.259   9.346  0.00  0.00    +0.000 C 
BRANCH  24  25
ATOM     25  C   UNL     1      44.511   2.770   9.480  0.00  0.00    +0.000 C 
BRANCH  25  26
ATOM     26  C   UNL     1      45.629   2.414   8.508  0.00  0.00    +0.000 A 
ATOM     27  N   UNL     1      45.998   1.122   8.409  0.00  0.00    +0.000 NA
ATOM     28  C   UNL     1      46.990   0.851   7.539  0.00  0.00    +0.000 A 
ATOM     29  C   UNL     1      47.609   1.804   6.769  0.00  0.00    +0.000 A 
ATOM     30  C   UNL     1      47.153   3.089   6.935  0.00  0.00    +0.000 A 
ATOM     31  N   UNL     1      46.168   3.428   7.792  0.00  0.00    +0.000 NA
ENDBRANCH  25  26
BRANCH  25  32
ATOM     32  O   UNL     1      44.923   2.458  10.817  0.00  0.00    +0.000 OA
ATOM     33  H   UNL     1      44.256   2.892  11.385  0.00  0.00    +0.000 HD
ENDBRANCH  25  32
ENDBRANCH  24  25
ENDBRANCH  23  24
ENDBRANCH   4  23
TORSDOF 8
ENDMDL
MODEL 2
REMARK VINA RESULT:    -7.756      1.766      2.092
REMARK INTER + INTRA:         -12.634
REMARK INTER:                 -11.706
REMARK INTRA:                  -0.928
REMARK UNBOUND:                -1.477
REMARK  Name = 
REMARK  8 active torsions:
REMARK  status: ('A' for Active; 'I' for Inactive)
REMARK    1  A    between atoms: C_2  and  C_21
REMARK    2  A    between atoms: N_3  and  C_4
REMARK    3  A    between atoms: C_4  and  C_5
REMARK    4  A    between atoms: C_8  and  C_9
REMARK    5  A    between atoms: C_9  and  C_10
REMARK    6  A    between atoms: C_10  and  C_11
REMARK    7  A    between atoms: C_11  and  O_12
REMARK    8  A    between atoms: C_11  and  C_13
REMARK                            x       y       z     vdW  Elec       q    Type
REMARK                         _______ _______ _______ _____ _____    ______ ____
ROOT
ATOM      1  C   UNL     1      46.524   5.955  13.320  0.00  0.00    +0.000 A 
ATOM      2  C   UNL     1      46.660   4.572  13.442  0.00  0.00    +0.000 A 
ATOM      3  C   UNL     1      45.737   3.730  12.825  0.00  0.00    +0.000 A 
ATOM      4  C   UNL     1      44.707   4.291  12.074  0.00  0.00    +0.000 A 
ATOM      5  N   UNL     1      44.560   5.631  11.930  0.00  0.00    +0.000 NA
ATOM      6  C   UNL     1      45.469   6.423  12.544  0.00  0.00    +0.000 A 
ENDROOT
BRANCH   1   7
ATOM      7  C   UNL     1      47.527   6.896  13.923  0.00  0.00    +0.000 C 
BRANCH   7  10
ATOM      8  O   UNL     1      48.600   8.209  16.232  0.00  0.00    +0.000 OA
ATOM      9  C   UNL     1      48.714   7.003  16.082  0.00  0.00    +0.000 C 
ATOM     10  N   UNL     1      48.146   6.279  15.063  0.00  0.00    +0.000 N 
ATOM     11  H   UNL     1      48.444   5.322  14.937  0.00  0.00    +0.000 HD
BRANCH   9  12
ATOM     12  C   UNL     1      49.649   6.179  16.849  0.00  0.00    +0.000 A 
ATOM     13  C   UNL     1      50.882   6.643  17.270  0.00  0.00    +0.000 A 
ATOM     14  S   UNL     1      51.963   5.352  17.607  0.00  0.00    +0.000 S 
ATOM     15  C   UNL     1      50.751   4.185  17.319  0.00  0.00    +0.000 A 
ATOM     16  N   UNL     1      51.010   2.852  17.271  0.00  0.00    +0.000 NA
ATOM     17  C   UNL     1      49.964   2.115  17.076  0.00  0.00    +0.000 A 
ATOM     18  N   UNL     1      48.675   2.583  16.985  0.00  0.00    +0.000 N 
ATOM     19  C   UNL     1      48.360   3.913  17.051  0.00  0.00    +0.000 A 
ATOM     20  O   UNL     1      47.203   4.322  17.062  0.00  0.00    +0.000 OA
ATOM     21  C   UNL     1      49.522   4.779  17.126  0.00  0.00    +0.000 A 
ATOM     22  H   UNL     1      47.894   1.949  16.907  0.00  0.00    +0.000 HD
ENDBRANCH   9  12
ENDBRANCH   7  10
ENDBRANCH   1   7
BRANCH   4  23
ATOM     23  C   UNL     1      43.695   3.408  11.388  0.00  0.00    +0.000 C 
BRANCH  23  24
ATOM     24  C   UNL     1      44.193   2.772  10.084  0.00  0.00    +0.000 C 
BRANCH  24  25
ATOM     25  C   UNL     1      44.800   3.773   9.092  0.00  0.00    +0.000 C 
BRANCH  25  26
ATOM     26  C   UNL     1      45.688   3.036   8.098  0.00  0.00    +0.000 A 
ATOM     27  N   UNL     1      46.064   3.684   6.978  0.00  0.00    +0.000 NA
ATOM     28  C   UNL     1      46.848   2.996   6.127  0.00  0.00    +0.000 A 
ATOM     29  C   UNL     1      47.274   1.710   6.352  0.00  0.00    +0.000 A 
ATOM     30  C   UNL     1      46.846   1.142   7.527  0.00  0.00    +0.000 A 
ATOM     31  N   UNL     1      46.056   1.774   8.419  0.00  0.00    +0.000 NA
ENDBRANCH  25  26
BRANCH  25  32
ATOM     32  O   UNL     1      43.772   4.478   8.383  0.00  0.00    +0.000 OA
ATOM     33  H   UNL     1      43.871   5.407   8.671  0.00  0.00    +0.000 HD
ENDBRANCH  25  32
ENDBRANCH  24  25
ENDBRANCH  23  24
ENDBRANCH   4  23
TORSDOF 8
ENDMDL
MODEL 3
REMARK VINA RESULT:    -7.667      1.723      2.453
REMARK INTER + INTRA:         -12.505
REMARK INTER:                 -11.300
REMARK INTRA:                  -1.206
REMARK UNBOUND:                -1.477
REMARK  Name = 
REMARK  8 active torsions:
REMARK  status: ('A' for Active; 'I' for Inactive)
REMARK    1  A    between atoms: C_2  and  C_21
REMARK    2  A    between atoms: N_3  and  C_4
REMARK    3  A    between atoms: C_4  and  C_5
REMARK    4  A    between atoms: C_8  and  C_9
REMARK    5  A    between atoms: C_9  and  C_10
REMARK    6  A    between atoms: C_10  and  C_11
REMARK    7  A    between atoms: C_11  and  O_12
REMARK    8  A    between atoms: C_11  and  C_13
REMARK                            x       y       z     vdW  Elec       q    Type
REMARK                         _______ _______ _______ _____ _____    ______ ____
ROOT
ATOM      1  C   UNL     1      46.579   7.339  12.726  0.00  0.00    +0.000 A 
ATOM      2  C   UNL     1      45.483   7.949  12.116  0.00  0.00    +0.000 A 
ATOM      3  C   UNL     1      44.539   7.168  11.451  0.00  0.00    +0.000 A 
ATOM      4  C   UNL     1      44.700   5.785  11.431  0.00  0.00    +0.000 A 
ATOM      5  N   UNL     1      45.750   5.167  12.026  0.00  0.00    +0.000 NA
ATOM      6  C   UNL     1      46.651   5.952  12.661  0.00  0.00    +0.000 A 
ENDROOT
BRANCH   1   7
ATOM      7  C   UNL     1      47.588   8.138  13.500  0.00  0.00    +0.000 C 
BRANCH   7  10
ATOM      8  O   UNL     1      49.919   6.913  14.628  0.00  0.00    +0.000 OA
ATOM      9  C   UNL     1      48.862   6.941  15.240  0.00  0.00    +0.000 C 
ATOM     10  N   UNL     1      47.728   7.593  14.821  0.00  0.00    +0.000 N 
ATOM     11  H   UNL     1      46.866   7.409  15.315  0.00  0.00    +0.000 HD
BRANCH   9  12
ATOM     12  C   UNL     1      48.583   6.107  16.409  0.00  0.00    +0.000 A 
ATOM     13  C   UNL     1      48.100   4.814  16.306  0.00  0.00    +0.000 A 
ATOM     14  S   UNL     1      47.334   4.307  17.756  0.00  0.00    +0.000 S 
ATOM     15  C   UNL     1      47.760   5.754  18.556  0.00  0.00    +0.000 A 
ATOM     16  N   UNL     1      47.294   6.077  19.791  0.00  0.00    +0.000 NA
ATOM     17  C   UNL     1      47.750   7.196  20.253  0.00  0.00    +0.000 A 
ATOM     18  N   UNL     1      48.675   7.993  19.623  0.00  0.00    +0.000 N 
ATOM     19  C   UNL     1      49.193   7.699  18.390  0.00  0.00    +0.000 A 
ATOM     20  O   UNL     1      50.085   8.361  17.869  0.00  0.00    +0.000 OA
ATOM     21  C   UNL     1      48.597   6.526  17.778  0.00  0.00    +0.000 A 
ATOM     22  H   UNL     1      49.046   8.817  20.071  0.00  0.00    +0.000 HD
ENDBRANCH   9  12
ENDBRANCH   7  10
ENDBRANCH   1   7
BRANCH   4  23
ATOM     23  C   UNL     1      43.694   4.910  10.726  0.00  0.00    +0.000 C 
BRANCH  23  24
ATOM     24  C   UNL     1      44.184   4.328   9.395  0.00  0.00    +0.000 C 
BRANCH  24  25
ATOM     25  C   UNL     1      44.503   2.828   9.448  0.00  0.00    +0.000 C 
BRANCH  25  26
ATOM     26  C   UNL     1      45.545   2.486   8.391  0.00  0.00    +0.000 A 
ATOM     27  N   UNL     1      46.073   1.247   8.394  0.00  0.00    +0.000 NA
ATOM     28  C   UNL     1      46.990   0.988   7.443  0.00  0.00    +0.000 A 
ATOM     29  C   UNL     1      47.386   1.901   6.497  0.00  0.00    +0.000 A 
ATOM     30  C   UNL     1      46.780   3.131   6.571  0.00  0.00    +0.000 A 
ATOM     31  N   UNL     1      45.860   3.457   7.501  0.00  0.00    +0.000 NA
ENDBRANCH  25  26
BRANCH  25  32
ATOM     32  O   UNL     1      44.996   2.455  10.742  0.00  0.00    +0.000 OA
ATOM     33  H   UNL     1      45.770   3.034  10.884  0.00  0.00    +0.000 HD
ENDBRANCH  25  32
ENDBRANCH  24  25
ENDBRANCH  23  24
ENDBRANCH   4  23
TORSDOF 8
ENDMDL
MODEL 4
REMARK VINA RESULT:    -7.124      1.993      3.376
REMARK INTER + INTRA:         -11.725
REMARK INTER:                 -10.487
REMARK INTRA:                  -1.237
REMARK UNBOUND:                -1.477
REMARK  Name = 
REMARK  8 active torsions:
REMARK  status: ('A' for Active; 'I' for Inactive)
REMARK    1  A    between atoms: C_2  and  C_21
REMARK    2  A    between atoms: N_3  and  C_4
REMARK    3  A    between atoms: C_4  and  C_5
REMARK    4  A    between atoms: C_8  and  C_9
REMARK    5  A    between atoms: C_9  and  C_10
REMARK    6  A    between atoms: C_10  and  C_11
REMARK    7  A    between atoms: C_11  and  O_12
REMARK    8  A    between atoms: C_11  and  C_13
REMARK                            x       y       z     vdW  Elec       q    Type
REMARK                         _______ _______ _______ _____ _____    ______ ____
ROOT
ATOM      1  C   UNL     1      46.697   4.533  14.139  0.00  0.00    +0.000 A 
ATOM      2  C   UNL     1      46.943   5.832  13.695  0.00  0.00    +0.000 A 
ATOM      3  C   UNL     1      46.412   6.259  12.479  0.00  0.00    +0.000 A 
ATOM      4  C   UNL     1      45.621   5.381  11.741  0.00  0.00    +0.000 A 
ATOM      5  N   UNL     1      45.358   4.118  12.157  0.00  0.00    +0.000 NA
ATOM      6  C   UNL     1      45.890   3.731  13.340  0.00  0.00    +0.000 A 
ENDROOT
BRANCH   1   7
ATOM      7  C   UNL     1      47.204   4.052  15.468  0.00  0.00    +0.000 C 
BRANCH   7  10
ATOM      8  O   UNL     1      49.739   4.218  16.791  0.00  0.00    +0.000 OA
ATOM      9  C   UNL     1      48.913   5.111  16.897  0.00  0.00    +0.000 C 
ATOM     10  N   UNL     1      47.719   5.162  16.221  0.00  0.00    +0.000 N 
ATOM     11  H   UNL     1      47.039   5.850  16.510  0.00  0.00    +0.000 HD
BRANCH   9  12
ATOM     12  C   UNL     1      48.976   6.153  17.922  0.00  0.00    +0.000 A 
ATOM     13  C   UNL     1      49.174   5.871  19.263  0.00  0.00    +0.000 A 
ATOM     14  S   UNL     1      48.634   7.157  20.264  0.00  0.00    +0.000 S 
ATOM     15  C   UNL     1      48.263   8.132  18.914  0.00  0.00    +0.000 A 
ATOM     16  N   UNL     1      47.609   9.319  19.021  0.00  0.00    +0.000 NA
ATOM     17  C   UNL     1      47.445   9.936  17.896  0.00  0.00    +0.000 A 
ATOM     18  N   UNL     1      47.926   9.507  16.682  0.00  0.00    +0.000 N 
ATOM     19  C   UNL     1      48.611   8.332  16.526  0.00  0.00    +0.000 A 
ATOM     20  O   UNL     1      49.119   7.995  15.461  0.00  0.00    +0.000 OA
ATOM     21  C   UNL     1      48.689   7.544  17.742  0.00  0.00    +0.000 A 
ATOM     22  H   UNL     1      47.828  10.072  15.852  0.00  0.00    +0.000 HD
ENDBRANCH   9  12
ENDBRANCH   7  10
ENDBRANCH   1   7
BRANCH   4  23
ATOM     23  C   UNL     1      45.026   5.813  10.425  0.00  0.00    +0.000 C 
BRANCH  23  24
ATOM     24  C   UNL     1      45.711   5.211   9.193  0.00  0.00    +0.000 C 
BRANCH  24  25
ATOM     25  C   UNL     1      44.885   4.131   8.482  0.00  0.00    +0.000 C 
BRANCH  25  26
ATOM     26  C   UNL     1      45.815   3.158   7.770  0.00  0.00    +0.000 A 
ATOM     27  N   UNL     1      46.433   3.574   6.647  0.00  0.00    +0.000 NA
ATOM     28  C   UNL     1      47.246   2.682   6.050  0.00  0.00    +0.000 A 
ATOM     29  C   UNL     1      47.470   1.415   6.528  0.00  0.00    +0.000 A 
ATOM     30  C   UNL     1      46.803   1.091   7.684  0.00  0.00    +0.000 A 
ATOM     31  N   UNL     1      45.971   1.935   8.329  0.00  0.00    +0.000 NA
ENDBRANCH  25  26
BRANCH  25  32
ATOM     32  O   UNL     1      44.068   3.414   9.417  0.00  0.00    +0.000 OA
ATOM     33  H   UNL     1      43.555   4.108   9.875  0.00  0.00    +0.000 HD
ENDBRANCH  25  32
ENDBRANCH  24  25
ENDBRANCH  23  24
ENDBRANCH   4  23
TORSDOF 8
ENDMDL
MODEL 5
REMARK VINA RESULT:    -6.575      3.438      8.529
REMARK INTER + INTRA:         -10.934
REMARK INTER:                  -9.998
REMARK INTRA:                  -0.936
REMARK UNBOUND:                -1.477
REMARK  Name = 
REMARK  8 active torsions:
REMARK  status: ('A' for Active; 'I' for Inactive)
REMARK    1  A    between atoms: C_2  and  C_21
REMARK    2  A    between atoms: N_3  and  C_4
REMARK    3  A    between atoms: C_4  and  C_5
REMARK    4  A    between atoms: C_8  and  C_9
REMARK    5  A    between atoms: C_9  and  C_10
REMARK    6  A    between atoms: C_10  and  C_11
REMARK    7  A    between atoms: C_11  and  O_12
REMARK    8  A    between atoms: C_11  and  C_13
REMARK                            x       y       z     vdW  Elec       q    Type
REMARK                         _______ _______ _______ _____ _____    ______ ____
ROOT
ATOM      1  C   UNL     1      47.771   5.993  14.480  0.00  0.00    +0.000 A 
ATOM      2  C   UNL     1      47.153   4.824  14.922  0.00  0.00    +0.000 A 
ATOM      3  C   UNL     1      47.521   4.268  16.146  0.00  0.00    +0.000 A 
ATOM      4  C   UNL     1      48.486   4.910  16.917  0.00  0.00    +0.000 A 
ATOM      5  N   UNL     1      49.093   6.054  16.515  0.00  0.00    +0.000 NA
ATOM      6  C   UNL     1      48.718   6.568  15.320  0.00  0.00    +0.000 A 
ENDROOT
BRANCH   1   7
ATOM      7  C   UNL     1      47.366   6.654  13.193  0.00  0.00    +0.000 C 
BRANCH   7  10
ATOM      8  O   UNL     1      45.566   7.270  11.052  0.00  0.00    +0.000 OA
ATOM      9  C   UNL     1      45.723   6.120  11.433  0.00  0.00    +0.000 C 
ATOM     10  N   UNL     1      46.636   5.723  12.380  0.00  0.00    +0.000 N 
ATOM     11  H   UNL     1      46.564   4.784  12.743  0.00  0.00    +0.000 HD
BRANCH   9  12
ATOM     12  C   UNL     1      44.815   5.025  11.093  0.00  0.00    +0.000 A 
ATOM     13  C   UNL     1      43.793   4.614  11.930  0.00  0.00    +0.000 A 
ATOM     14  S   UNL     1      43.292   3.010  11.576  0.00  0.00    +0.000 S 
ATOM     15  C   UNL     1      44.340   2.916  10.233  0.00  0.00    +0.000 A 
ATOM     16  N   UNL     1      44.553   1.764   9.544  0.00  0.00    +0.000 NA
ATOM     17  C   UNL     1      45.353   1.889   8.535  0.00  0.00    +0.000 A 
ATOM     18  N   UNL     1      45.914   3.071   8.114  0.00  0.00    +0.000 N 
ATOM     19  C   UNL     1      45.712   4.262   8.759  0.00  0.00    +0.000 A 
ATOM     20  O   UNL     1      46.137   5.330   8.330  0.00  0.00    +0.000 OA
ATOM     21  C   UNL     1      44.935   4.134   9.978  0.00  0.00    +0.000 A 
ATOM     22  H   UNL     1      46.472   3.115   7.275  0.00  0.00    +0.000 HD
ENDBRANCH   9  12
ENDBRANCH   7  10
ENDBRANCH   1   7
BRANCH   4  23
ATOM     23  C   UNL     1      48.902   4.339  18.249  0.00  0.00    +0.000 C 
BRANCH  23  24
ATOM     24  C   UNL     1      49.421   2.898  18.185  0.00  0.00    +0.000 C 
BRANCH  24  25
ATOM     25  C   UNL     1      50.542   2.682  17.159  0.00  0.00    +0.000 C 
BRANCH  25  26
ATOM     26  C   UNL     1      51.874   2.523  17.879  0.00  0.00    +0.000 A 
ATOM     27  N   UNL     1      52.616   1.431  17.611  0.00  0.00    +0.000 NA
ATOM     28  C   UNL     1      53.786   1.329  18.270  0.00  0.00    +0.000 A 
ATOM     29  C   UNL     1      54.241   2.267  19.164  0.00  0.00    +0.000 A 
ATOM     30  C   UNL     1      53.418   3.348  19.359  0.00  0.00    +0.000 A 
ATOM     31  N   UNL     1      52.232   3.508  18.736  0.00  0.00    +0.000 NA
ENDBRANCH  25  26
BRANCH  25  32
ATOM     32  O   UNL     1      50.288   1.519  16.361  0.00  0.00    +0.000 OA
ATOM     33  H   UNL     1      49.497   1.751  15.835  0.00  0.00    +0.000 HD
ENDBRANCH  25  32
ENDBRANCH  24  25
ENDBRANCH  23  24
ENDBRANCH   4  23
TORSDOF 8
ENDMDL
MODEL 6
REMARK VINA RESULT:    -6.540      2.419      3.305
REMARK INTER + INTRA:         -10.885
REMARK INTER:                  -9.920
REMARK INTRA:                  -0.965
REMARK UNBOUND:                -1.477
REMARK  Name = 
REMARK  8 active torsions:
REMARK  status: ('A' for Active; 'I' for Inactive)
REMARK    1  A    between atoms: C_2  and  C_21
REMARK    2  A    between atoms: N_3  and  C_4
REMARK    3  A    between atoms: C_4  and  C_5
REMARK    4  A    between atoms: C_8  and  C_9
REMARK    5  A    between atoms: C_9  and  C_10
REMARK    6  A    between atoms: C_10  and  C_11
REMARK    7  A    between atoms: C_11  and  O_12
REMARK    8  A    between atoms: C_11  and  C_13
REMARK                            x       y       z     vdW  Elec       q    Type
REMARK                         _______ _______ _______ _____ _____    ______ ____
ROOT
ATOM      1  C   UNL     1      46.475   4.649  14.113  0.00  0.00    +0.000 A 
ATOM      2  C   UNL     1      46.730   5.944  13.661  0.00  0.00    +0.000 A 
ATOM      3  C   UNL     1      46.258   6.345  12.413  0.00  0.00    +0.000 A 
ATOM      4  C   UNL     1      45.517   5.446  11.650  0.00  0.00    +0.000 A 
ATOM      5  N   UNL     1      45.246   4.187  12.072  0.00  0.00    +0.000 NA
ATOM      6  C   UNL     1      45.720   3.825  13.287  0.00  0.00    +0.000 A 
ENDROOT
BRANCH   1   7
ATOM      7  C   UNL     1      46.918   4.195  15.475  0.00  0.00    +0.000 C 
BRANCH   7  10
ATOM      8  O   UNL     1      49.502   3.745  16.626  0.00  0.00    +0.000 OA
ATOM      9  C   UNL     1      48.978   4.848  16.664  0.00  0.00    +0.000 C 
ATOM     10  N   UNL     1      47.793   5.177  16.052  0.00  0.00    +0.000 N 
ATOM     11  H   UNL     1      47.366   6.061  16.289  0.00  0.00    +0.000 HD
BRANCH   9  12
ATOM     12  C   UNL     1      49.427   5.926  17.544  0.00  0.00    +0.000 A 
ATOM     13  C   UNL     1      49.684   7.207  17.086  0.00  0.00    +0.000 A 
ATOM     14  S   UNL     1      50.716   8.066  18.155  0.00  0.00    +0.000 S 
ATOM     15  C   UNL     1      50.711   6.785  19.284  0.00  0.00    +0.000 A 
ATOM     16  N   UNL     1      51.516   6.765  20.379  0.00  0.00    +0.000 NA
ATOM     17  C   UNL     1      51.351   5.731  21.138  0.00  0.00    +0.000 A 
ATOM     18  N   UNL     1      50.415   4.745  20.938  0.00  0.00    +0.000 N 
ATOM     19  C   UNL     1      49.566   4.732  19.865  0.00  0.00    +0.000 A 
ATOM     20  O   UNL     1      48.670   3.902  19.736  0.00  0.00    +0.000 OA
ATOM     21  C   UNL     1      49.819   5.800  18.916  0.00  0.00    +0.000 A 
ATOM     22  H   UNL     1      50.287   4.002  21.609  0.00  0.00    +0.000 HD
ENDBRANCH   9  12
ENDBRANCH   7  10
ENDBRANCH   1   7
BRANCH   4  23
ATOM     23  C   UNL     1      44.986   5.851  10.298  0.00  0.00    +0.000 C 
BRANCH  23  24
ATOM     24  C   UNL     1      45.699   5.187   9.114  0.00  0.00    +0.000 C 
BRANCH  24  25
ATOM     25  C   UNL     1      44.888   4.071   8.442  0.00  0.00    +0.000 C 
BRANCH  25  26
ATOM     26  C   UNL     1      45.829   3.124   7.707  0.00  0.00    +0.000 A 
ATOM     27  N   UNL     1      46.412   3.559   6.573  0.00  0.00    +0.000 NA
ATOM     28  C   UNL     1      47.236   2.691   5.956  0.00  0.00    +0.000 A 
ATOM     29  C   UNL     1      47.503   1.429   6.426  0.00  0.00    +0.000 A 
ATOM     30  C   UNL     1      46.868   1.084   7.595  0.00  0.00    +0.000 A 
ATOM     31  N   UNL     1      46.028   1.904   8.259  0.00  0.00    +0.000 NA
ENDBRANCH  25  26
BRANCH  25  32
ATOM     32  O   UNL     1      44.130   3.334   9.410  0.00  0.00    +0.000 OA
ATOM     33  H   UNL     1      44.206   3.860  10.230  0.00  0.00    +0.000 HD
ENDBRANCH  25  32
ENDBRANCH  24  25
ENDBRANCH  23  24
ENDBRANCH   4  23
TORSDOF 8
ENDMDL
MODEL 7
REMARK VINA RESULT:    -6.408      3.170      7.716
REMARK INTER + INTRA:         -10.695
REMARK INTER:                  -9.297
REMARK INTRA:                  -1.398
REMARK UNBOUND:                -1.477
REMARK  Name = 
REMARK  8 active torsions:
REMARK  status: ('A' for Active; 'I' for Inactive)
REMARK    1  A    between atoms: C_2  and  C_21
REMARK    2  A    between atoms: N_3  and  C_4
REMARK    3  A    between atoms: C_4  and  C_5
REMARK    4  A    between atoms: C_8  and  C_9
REMARK    5  A    between atoms: C_9  and  C_10
REMARK    6  A    between atoms: C_10  and  C_11
REMARK    7  A    between atoms: C_11  and  O_12
REMARK    8  A    between atoms: C_11  and  C_13
REMARK                            x       y       z     vdW  Elec       q    Type
REMARK                         _______ _______ _______ _____ _____    ______ ____
ROOT
ATOM      1  C   UNL     1      47.781   8.198  13.745  0.00  0.00    +0.000 A 
ATOM      2  C   UNL     1      47.918   6.898  14.233  0.00  0.00    +0.000 A 
ATOM      3  C   UNL     1      48.884   6.620  15.198  0.00  0.00    +0.000 A 
ATOM      4  C   UNL     1      49.680   7.657  15.676  0.00  0.00    +0.000 A 
ATOM      5  N   UNL     1      49.559   8.931  15.227  0.00  0.00    +0.000 NA
ATOM      6  C   UNL     1      48.615   9.169  14.287  0.00  0.00    +0.000 A 
ENDROOT
BRANCH   1   7
ATOM      7  C   UNL     1      46.717   8.551  12.746  0.00  0.00    +0.000 C 
BRANCH   7  10
ATOM      8  O   UNL     1      44.338   7.823  11.327  0.00  0.00    +0.000 OA
ATOM      9  C   UNL     1      45.354   7.151  11.242  0.00  0.00    +0.000 C 
ATOM     10  N   UNL     1      46.563   7.479  11.803  0.00  0.00    +0.000 N 
ATOM     11  H   UNL     1      47.286   6.774  11.817  0.00  0.00    +0.000 HD
BRANCH   9  12
ATOM     12  C   UNL     1      45.379   5.790  10.707  0.00  0.00    +0.000 A 
ATOM     13  C   UNL     1      45.742   5.506   9.402  0.00  0.00    +0.000 A 
ATOM     14  S   UNL     1      45.138   3.981   8.895  0.00  0.00    +0.000 S 
ATOM     15  C   UNL     1      44.512   3.647  10.447  0.00  0.00    +0.000 A 
ATOM     16  N   UNL     1      43.721   2.572  10.706  0.00  0.00    +0.000 NA
ATOM     17  C   UNL     1      43.367   2.461  11.945  0.00  0.00    +0.000 A 
ATOM     18  N   UNL     1      43.779   3.289  12.962  0.00  0.00    +0.000 N 
ATOM     19  C   UNL     1      44.594   4.370  12.757  0.00  0.00    +0.000 A 
ATOM     20  O   UNL     1      45.036   5.053  13.676  0.00  0.00    +0.000 OA
ATOM     21  C   UNL     1      44.895   4.609  11.357  0.00  0.00    +0.000 A 
ATOM     22  H   UNL     1      43.527   3.104  13.921  0.00  0.00    +0.000 HD
ENDBRANCH   9  12
ENDBRANCH   7  10
ENDBRANCH   1   7
BRANCH   4  23
ATOM     23  C   UNL     1      50.730   7.391  16.725  0.00  0.00    +0.000 C 
BRANCH  23  24
ATOM     24  C   UNL     1      51.385   6.008  16.628  0.00  0.00    +0.000 C 
BRANCH  24  25
ATOM     25  C   UNL     1      51.133   5.110  17.847  0.00  0.00    +0.000 C 
BRANCH  25  26
ATOM     26  C   UNL     1      49.829   4.344  17.659  0.00  0.00    +0.000 A 
ATOM     27  N   UNL     1      49.867   3.180  16.982  0.00  0.00    +0.000 NA
ATOM     28  C   UNL     1      48.693   2.536  16.839  0.00  0.00    +0.000 A 
ATOM     29  C   UNL     1      47.504   2.997  17.348  0.00  0.00    +0.000 A 
ATOM     30  C   UNL     1      47.573   4.186  18.032  0.00  0.00    +0.000 A 
ATOM     31  N   UNL     1      48.715   4.883  18.206  0.00  0.00    +0.000 NA
ENDBRANCH  25  26
BRANCH  25  32
ATOM     32  O   UNL     1      52.210   4.182  18.030  0.00  0.00    +0.000 OA
ATOM     33  H   UNL     1      52.299   4.101  19.000  0.00  0.00    +0.000 HD
ENDBRANCH  25  32
ENDBRANCH  24  25
ENDBRANCH  23  24
ENDBRANCH   4  23
TORSDOF 8
ENDMDL
MODEL 8
REMARK VINA RESULT:    -6.395      3.631      5.438
REMARK INTER + INTRA:         -10.676
REMARK INTER:                  -9.991
REMARK INTRA:                  -0.685
REMARK UNBOUND:                -1.477
REMARK  Name = 
REMARK  8 active torsions:
REMARK  status: ('A' for Active; 'I' for Inactive)
REMARK    1  A    between atoms: C_2  and  C_21
REMARK    2  A    between atoms: N_3  and  C_4
REMARK    3  A    between atoms: C_4  and  C_5
REMARK    4  A    between atoms: C_8  and  C_9
REMARK    5  A    between atoms: C_9  and  C_10
REMARK    6  A    between atoms: C_10  and  C_11
REMARK    7  A    between atoms: C_11  and  O_12
REMARK    8  A    between atoms: C_11  and  C_13
REMARK                            x       y       z     vdW  Elec       q    Type
REMARK                         _______ _______ _______ _____ _____    ______ ____
ROOT
ATOM      1  C   UNL     1      48.217   4.266  16.748  0.00  0.00    +0.000 A 
ATOM      2  C   UNL     1      47.242   3.686  15.938  0.00  0.00    +0.000 A 
ATOM      3  C   UNL     1      46.844   4.329  14.767  0.00  0.00    +0.000 A 
ATOM      4  C   UNL     1      47.450   5.533  14.418  0.00  0.00    +0.000 A 
ATOM      5  N   UNL     1      48.408   6.112  15.184  0.00  0.00    +0.000 NA
ATOM      6  C   UNL     1      48.771   5.465  16.316  0.00  0.00    +0.000 A 
ENDROOT
BRANCH   1   7
ATOM      7  C   UNL     1      48.713   3.579  17.988  0.00  0.00    +0.000 C 
BRANCH   7  10
ATOM      8  O   UNL     1      50.047   1.685  16.304  0.00  0.00    +0.000 OA
ATOM      9  C   UNL     1      50.668   2.357  17.112  0.00  0.00    +0.000 C 
ATOM     10  N   UNL     1      50.128   3.356  17.885  0.00  0.00    +0.000 N 
ATOM     11  H   UNL     1      50.688   3.728  18.638  0.00  0.00    +0.000 HD
BRANCH   9  12
ATOM     12  C   UNL     1      52.036   2.055  17.532  0.00  0.00    +0.000 A 
ATOM     13  C   UNL     1      52.528   0.763  17.604  0.00  0.00    +0.000 A 
ATOM     14  S   UNL     1      53.891   0.663  18.643  0.00  0.00    +0.000 S 
ATOM     15  C   UNL     1      53.903   2.351  18.889  0.00  0.00    +0.000 A 
ATOM     16  N   UNL     1      54.710   2.957  19.799  0.00  0.00    +0.000 NA
ATOM     17  C   UNL     1      54.607   4.247  19.823  0.00  0.00    +0.000 A 
ATOM     18  N   UNL     1      53.816   4.992  18.981  0.00  0.00    +0.000 N 
ATOM     19  C   UNL     1      53.004   4.431  18.033  0.00  0.00    +0.000 A 
ATOM     20  O   UNL     1      52.369   5.099  17.222  0.00  0.00    +0.000 OA
ATOM     21  C   UNL     1      52.986   2.980  18.073  0.00  0.00    +0.000 A 
ATOM     22  H   UNL     1      53.837   6.000  19.002  0.00  0.00    +0.000 HD
ENDBRANCH   9  12
ENDBRANCH   7  10
ENDBRANCH   1   7
BRANCH   4  23
ATOM     23  C   UNL     1      47.048   6.252  13.155  0.00  0.00    +0.000 C 
BRANCH  23  24
ATOM     24  C   UNL     1      45.829   5.650  12.447  0.00  0.00    +0.000 C 
BRANCH  24  25
ATOM     25  C   UNL     1      45.661   6.108  10.992  0.00  0.00    +0.000 C 
BRANCH  25  26
ATOM     26  C   UNL     1      45.335   4.909  10.110  0.00  0.00    +0.000 A 
ATOM     27  N   UNL     1      45.692   4.958   8.812  0.00  0.00    +0.000 NA
ATOM     28  C   UNL     1      45.385   3.878   8.069  0.00  0.00    +0.000 A 
ATOM     29  C   UNL     1      44.754   2.764   8.567  0.00  0.00    +0.000 A 
ATOM     30  C   UNL     1      44.443   2.808   9.904  0.00  0.00    +0.000 A 
ATOM     31  N   UNL     1      44.717   3.860  10.702  0.00  0.00    +0.000 NA
ENDBRANCH  25  26
BRANCH  25  32
ATOM     32  O   UNL     1      44.615   7.082  10.879  0.00  0.00    +0.000 OA
ATOM     33  H   UNL     1      43.973   6.679  10.262  0.00  0.00    +0.000 HD
ENDBRANCH  25  32
ENDBRANCH  24  25
ENDBRANCH  23  24
ENDBRANCH   4  23
TORSDOF 8
ENDMDL
MODEL 9
REMARK VINA RESULT:    -6.376      3.338      4.559
REMARK INTER + INTRA:         -10.648
REMARK INTER:                  -9.343
REMARK INTRA:                  -1.305
REMARK UNBOUND:                -1.477
REMARK  Name = 
REMARK  8 active torsions:
REMARK  status: ('A' for Active; 'I' for Inactive)
REMARK    1  A    between atoms: C_2  and  C_21
REMARK    2  A    between atoms: N_3  and  C_4
REMARK    3  A    between atoms: C_4  and  C_5
REMARK    4  A    between atoms: C_8  and  C_9
REMARK    5  A    between atoms: C_9  and  C_10
REMARK    6  A    between atoms: C_10  and  C_11
REMARK    7  A    between atoms: C_11  and  O_12
REMARK    8  A    between atoms: C_11  and  C_13
REMARK                            x       y       z     vdW  Elec       q    Type
REMARK                         _______ _______ _______ _____ _____    ______ ____
ROOT
ATOM      1  C   UNL     1      45.657   8.472  12.134  0.00  0.00    +0.000 A 
ATOM      2  C   UNL     1      44.549   7.963  11.458  0.00  0.00    +0.000 A 
ATOM      3  C   UNL     1      44.143   6.649  11.685  0.00  0.00    +0.000 A 
ATOM      4  C   UNL     1      44.844   5.876  12.607  0.00  0.00    +0.000 A 
ATOM      5  N   UNL     1      45.917   6.351  13.285  0.00  0.00    +0.000 NA
ATOM      6  C   UNL     1      46.290   7.628  13.041  0.00  0.00    +0.000 A 
ENDROOT
BRANCH   1   7
ATOM      7  C   UNL     1      46.094   9.898  11.959  0.00  0.00    +0.000 C 
BRANCH   7  10
ATOM      8  O   UNL     1      48.305  11.399  10.928  0.00  0.00    +0.000 OA
ATOM      9  C   UNL     1      48.406  10.755  11.961  0.00  0.00    +0.000 C 
ATOM     10  N   UNL     1      47.374  10.092  12.579  0.00  0.00    +0.000 N 
ATOM     11  H   UNL     1      47.601   9.454  13.328  0.00  0.00    +0.000 HD
BRANCH   9  12
ATOM     12  C   UNL     1      49.688  10.418  12.581  0.00  0.00    +0.000 A 
ATOM     13  C   UNL     1      50.315  11.244  13.498  0.00  0.00    +0.000 A 
ATOM     14  S   UNL     1      51.995  10.910  13.604  0.00  0.00    +0.000 S 
ATOM     15  C   UNL     1      51.860   9.587  12.534  0.00  0.00    +0.000 A 
ATOM     16  N   UNL     1      52.940   8.923  12.044  0.00  0.00    +0.000 NA
ATOM     17  C   UNL     1      52.645   7.927  11.273  0.00  0.00    +0.000 A 
ATOM     18  N   UNL     1      51.370   7.495  10.994  0.00  0.00    +0.000 N 
ATOM     19  C   UNL     1      50.251   8.114  11.481  0.00  0.00    +0.000 A 
ATOM     20  O   UNL     1      49.119   7.674  11.307  0.00  0.00    +0.000 OA
ATOM     21  C   UNL     1      50.541   9.321  12.233  0.00  0.00    +0.000 A 
ATOM     22  H   UNL     1      51.209   6.665  10.444  0.00  0.00    +0.000 HD
ENDBRANCH   9  12
ENDBRANCH   7  10
ENDBRANCH   1   7
BRANCH   4  23
ATOM     23  C   UNL     1      44.427   4.453  12.882  0.00  0.00    +0.000 C 
BRANCH  23  24
ATOM     24  C   UNL     1      45.043   3.419  11.932  0.00  0.00    +0.000 C 
BRANCH  24  25
ATOM     25  C   UNL     1      44.168   3.088  10.716  0.00  0.00    +0.000 C 
BRANCH  25  26
ATOM     26  C   UNL     1      45.037   2.997   9.467  0.00  0.00    +0.000 A 
ATOM     27  N   UNL     1      45.327   4.137   8.809  0.00  0.00    +0.000 NA
ATOM     28  C   UNL     1      46.096   4.011   7.712  0.00  0.00    +0.000 A 
ATOM     29  C   UNL     1      46.589   2.812   7.260  0.00  0.00    +0.000 A 
ATOM     30  C   UNL     1      46.247   1.711   8.006  0.00  0.00    +0.000 A 
ATOM     31  N   UNL     1      45.476   1.767   9.111  0.00  0.00    +0.000 NA
ENDBRANCH  25  26
BRANCH  25  32
ATOM     32  O   UNL     1      43.476   1.847  10.906  0.00  0.00    +0.000 OA
ATOM     33  H   UNL     1      44.187   1.187  11.027  0.00  0.00    +0.000 HD
ENDBRANCH  25  32
ENDBRANCH  24  25
ENDBRANCH  23  24
ENDBRANCH   4  23
TORSDOF 8
ENDMDL
