MODEL 1
REMARK VINA RESULT:    -7.368      0.000      0.000
REMARK INTER + INTRA:         -10.569
REMARK INTER:                  -9.952
REMARK INTRA:                  -0.617
REMARK UNBOUND:                -0.617
REMARK  Name = 
REMARK  6 active torsions:
REMARK  status: ('A' for Active; 'I' for Inactive)
REMARK    1  A    between atoms: C_2  and  C_3
REMARK    2  A    between atoms: C_6  and  C_7
REMARK    3  A    between atoms: C_7  and  C_8
REMARK    4  A    between atoms: C_12  and  C_13
REMARK    5  A    between atoms: C_16  and  O_17
REMARK    6  A    between atoms: O_17  and  C_18
REMARK                            x       y       z     vdW  Elec       q    Type
REMARK                         _______ _______ _______ _____ _____    ______ ____
ROOT
ATOM      1  C   UNL     1      48.382   5.785  15.786  0.00  0.00    +0.000 A 
ATOM      2  C   UNL     1      49.268   6.799  15.416  0.00  0.00    +0.000 A 
ATOM      3  C   UNL     1      49.261   7.275  14.112  0.00  0.00    +0.000 A 
ATOM      4  C   UNL     1      48.359   6.742  13.201  0.00  0.00    +0.000 A 
ATOM      5  C   UNL     1      47.464   5.764  13.627  0.00  0.00    +0.000 A 
ATOM      6  N   UNL     1      47.462   5.305  14.906  0.00  0.00    +0.000 NA
ENDROOT
BRANCH   5   7
ATOM      7  C   UNL     1      46.499   5.112  12.721  0.00  0.00    +0.000 A 
ATOM      8  C   UNL     1      46.069   5.725  11.530  0.00  0.00    +0.000 A 
ATOM      9  C   UNL     1      45.174   5.090  10.659  0.00  0.00    +0.000 A 
ATOM     10  C   UNL     1      44.704   3.811  10.953  0.00  0.00    +0.000 A 
ATOM     11  C   UNL     1      45.096   3.197  12.140  0.00  0.00    +0.000 A 
ATOM     12  C   UNL     1      45.990   3.834  13.008  0.00  0.00    +0.000 A 
BRANCH  10  13
ATOM     13  O   UNL     1      43.851   3.082  10.174  0.00  0.00    +0.000 OA
BRANCH  13  14
ATOM     14  C   UNL     1      44.451   2.414   9.077  0.00  0.00    +0.000 C 
ATOM     15  F   UNL     1      44.486   3.289   8.040  0.00  0.00    +0.000 F 
ATOM     16  F   UNL     1      45.739   2.130   9.393  0.00  0.00    +0.000 F 
ENDBRANCH  13  14
ENDBRANCH  10  13
ENDBRANCH   5   7
BRANCH   1  17
ATOM     17  C   UNL     1      48.537   5.079  17.131  0.00  0.00    +0.000 C 
ATOM     18  C   UNL     1      48.128   5.857  18.384  0.00  0.00    +0.000 C 
ATOM     19  C   UNL     1      47.231   4.776  17.875  0.00  0.00    +0.000 C 
BRANCH  17  23
ATOM     20  C   UNL     1      51.641   2.122  17.533  0.00  0.00    +0.000 A 
ATOM     21  C   UNL     1      51.873   3.410  18.004  0.00  0.00    +0.000 A 
ATOM     22  C   UNL     1      50.879   4.382  17.857  0.00  0.00    +0.000 A 
ATOM     23  C   UNL     1      49.662   4.053  17.250  0.00  0.00    +0.000 A 
ATOM     24  N   UNL     1      49.439   2.795  16.783  0.00  0.00    +0.000 NA
ATOM     25  C   UNL     1      50.418   1.868  16.933  0.00  0.00    +0.000 A 
BRANCH  20  27
ATOM     26  N   UNL     1      53.410   0.246  17.768  0.00  0.00    +0.000 NA
ATOM     27  C   UNL     1      52.619   1.088  17.664  0.00  0.00    +0.000 C 
ENDBRANCH  20  27
ENDBRANCH  17  23
ENDBRANCH   1  17
TORSDOF 6
ENDMDL
MODEL 2
REMARK VINA RESULT:    -7.230      4.220      8.179
REMARK INTER + INTRA:         -10.383
REMARK INTER:                  -9.902
REMARK INTRA:                  -0.481
REMARK UNBOUND:                -0.617
REMARK  Name = 
REMARK  6 active torsions:
REMARK  status: ('A' for Active; 'I' for Inactive)
REMARK    1  A    between atoms: C_2  and  C_3
REMARK    2  A    between atoms: C_6  and  C_7
REMARK    3  A    between atoms: C_7  and  C_8
REMARK    4  A    between atoms: C_12  and  C_13
REMARK    5  A    between atoms: C_16  and  O_17
REMARK    6  A    between atoms: O_17  and  C_18
REMARK                            x       y       z     vdW  Elec       q    Type
REMARK                         _______ _______ _______ _____ _____    ______ ____
ROOT
ATOM      1  C   UNL     1      45.417   5.705  11.770  0.00  0.00    +0.000 A 
ATOM      2  C   UNL     1      45.410   7.068  11.468  0.00  0.00    +0.000 A 
ATOM      3  C   UNL     1      46.071   7.961  12.300  0.00  0.00    +0.000 A 
ATOM      4  C   UNL     1      46.742   7.476  13.416  0.00  0.00    +0.000 A 
ATOM      5  C   UNL     1      46.760   6.104  13.652  0.00  0.00    +0.000 A 
ATOM      6  N   UNL     1      46.124   5.229  12.832  0.00  0.00    +0.000 NA
ENDROOT
BRANCH   5   7
ATOM      7  C   UNL     1      47.413   5.504  14.832  0.00  0.00    +0.000 A 
ATOM      8  C   UNL     1      47.116   4.197  15.258  0.00  0.00    +0.000 A 
ATOM      9  C   UNL     1      47.758   3.621  16.363  0.00  0.00    +0.000 A 
ATOM     10  C   UNL     1      48.732   4.339  17.056  0.00  0.00    +0.000 A 
ATOM     11  C   UNL     1      49.021   5.645  16.667  0.00  0.00    +0.000 A 
ATOM     12  C   UNL     1      48.378   6.216  15.564  0.00  0.00    +0.000 A 
BRANCH  10  13
ATOM     13  O   UNL     1      49.442   3.879  18.128  0.00  0.00    +0.000 OA
BRANCH  13  14
ATOM     14  C   UNL     1      50.659   3.225  17.816  0.00  0.00    +0.000 C 
ATOM     15  F   UNL     1      50.356   2.161  17.028  0.00  0.00    +0.000 F 
ATOM     16  F   UNL     1      51.422   4.060  17.068  0.00  0.00    +0.000 F 
ENDBRANCH  13  14
ENDBRANCH  10  13
ENDBRANCH   5   7
BRANCH   1  17
ATOM     17  C   UNL     1      44.502   4.742  11.017  0.00  0.00    +0.000 C 
ATOM     18  C   UNL     1      43.401   4.047  11.821  0.00  0.00    +0.000 C 
ATOM     19  C   UNL     1      43.035   5.171  10.908  0.00  0.00    +0.000 C 
BRANCH  17  23
ATOM     20  C   UNL     1      46.279   2.610   7.725  0.00  0.00    +0.000 A 
ATOM     21  C   UNL     1      46.309   4.001   7.722  0.00  0.00    +0.000 A 
ATOM     22  C   UNL     1      45.714   4.701   8.775  0.00  0.00    +0.000 A 
ATOM     23  C   UNL     1      45.105   4.004   9.824  0.00  0.00    +0.000 A 
ATOM     24  N   UNL     1      45.070   2.644   9.823  0.00  0.00    +0.000 NA
ATOM     25  C   UNL     1      45.651   1.984   8.790  0.00  0.00    +0.000 A 
BRANCH  20  27
ATOM     26  N   UNL     1      47.365   1.219   5.830  0.00  0.00    +0.000 NA
ATOM     27  C   UNL     1      46.878   1.844   6.678  0.00  0.00    +0.000 C 
ENDBRANCH  20  27
ENDBRANCH  17  23
ENDBRANCH   1  17
TORSDOF 6
ENDMDL
MODEL 3
REMARK VINA RESULT:    -6.715      1.074      1.640
REMARK INTER + INTRA:          -9.688
REMARK INTER:                  -9.047
REMARK INTRA:                  -0.641
REMARK UNBOUND:                -0.617
REMARK  Name = 
REMARK  6 active torsions:
REMARK  status: ('A' for Active; 'I' for Inactive)
REMARK    1  A    between atoms: C_2  and  C_3
REMARK    2  A    between atoms: C_6  and  C_7
REMARK    3  A    between atoms: C_7  and  C_8
REMARK    4  A    between atoms: C_12  and  C_13
REMARK    5  A    between atoms: C_16  and  O_17
REMARK    6  A    between atoms: O_17  and  C_18
REMARK                            x       y       z     vdW  Elec       q    Type
REMARK                         _______ _______ _______ _____ _____    ______ ____
ROOT
ATOM      1  C   UNL     1      49.201   6.690  15.560  0.00  0.00    +0.000 A 
ATOM      2  C   UNL     1      50.152   7.494  14.928  0.00  0.00    +0.000 A 
ATOM      3  C   UNL     1      50.090   7.684  13.555  0.00  0.00    +0.000 A 
ATOM      4  C   UNL     1      49.068   7.080  12.833  0.00  0.00    +0.000 A 
ATOM      5  C   UNL     1      48.115   6.325  13.512  0.00  0.00    +0.000 A 
ATOM      6  N   UNL     1      48.169   6.147  14.857  0.00  0.00    +0.000 NA
ENDROOT
BRANCH   5   7
ATOM      7  C   UNL     1      47.020   5.614  12.825  0.00  0.00    +0.000 A 
ATOM      8  C   UNL     1      46.495   4.406  13.318  0.00  0.00    +0.000 A 
ATOM      9  C   UNL     1      45.436   3.749  12.677  0.00  0.00    +0.000 A 
ATOM     10  C   UNL     1      44.862   4.302  11.533  0.00  0.00    +0.000 A 
ATOM     11  C   UNL     1      45.384   5.484  11.013  0.00  0.00    +0.000 A 
ATOM     12  C   UNL     1      46.441   6.137  11.655  0.00  0.00    +0.000 A 
BRANCH  10  13
ATOM     13  O   UNL     1      43.814   3.771  10.836  0.00  0.00    +0.000 OA
BRANCH  13  14
ATOM     14  C   UNL     1      44.169   2.978   9.717  0.00  0.00    +0.000 C 
ATOM     15  F   UNL     1      44.237   3.803   8.642  0.00  0.00    +0.000 F 
ATOM     16  F   UNL     1      45.418   2.486   9.910  0.00  0.00    +0.000 F 
ENDBRANCH  13  14
ENDBRANCH  10  13
ENDBRANCH   5   7
BRANCH   1  17
ATOM     17  C   UNL     1      49.390   6.268  17.015  0.00  0.00    +0.000 C 
ATOM     18  C   UNL     1      49.583   7.381  18.048  0.00  0.00    +0.000 C 
ATOM     19  C   UNL     1      48.267   6.677  17.975  0.00  0.00    +0.000 C 
BRANCH  17  23
ATOM     20  C   UNL     1      51.359   2.487  17.618  0.00  0.00    +0.000 A 
ATOM     21  C   UNL     1      49.983   2.506  17.421  0.00  0.00    +0.000 A 
ATOM     22  C   UNL     1      49.332   3.730  17.247  0.00  0.00    +0.000 A 
ATOM     23  C   UNL     1      50.066   4.922  17.263  0.00  0.00    +0.000 A 
ATOM     24  N   UNL     1      51.411   4.903  17.463  0.00  0.00    +0.000 NA
ATOM     25  C   UNL     1      52.023   3.705  17.632  0.00  0.00    +0.000 A 
BRANCH  20  27
ATOM     26  N   UNL     1      52.656   0.269  17.936  0.00  0.00    +0.000 NA
ATOM     27  C   UNL     1      52.076   1.264  17.793  0.00  0.00    +0.000 C 
ENDBRANCH  20  27
ENDBRANCH  17  23
ENDBRANCH   1  17
TORSDOF 6
ENDMDL
MODEL 4
REMARK VINA RESULT:    -6.460      3.126      4.629
REMARK INTER + INTRA:          -9.344
REMARK INTER:                  -8.792
REMARK INTRA:                  -0.551
REMARK UNBOUND:                -0.617
REMARK  Name = 
REMARK  6 active torsions:
REMARK  status: ('A' for Active; 'I' for Inactive)
REMARK    1  A    between atoms: C_2  and  C_3
REMARK    2  A    between atoms: C_6  and  C_7
REMARK    3  A    between atoms: C_7  and  C_8
REMARK    4  A    between atoms: C_12  and  C_13
REMARK    5  A    between atoms: C_16  and  O_17
REMARK    6  A    between atoms: O_17  and  C_18
REMARK                            x       y       z     vdW  Elec       q    Type
REMARK                         _______ _______ _______ _____ _____    ______ ____
ROOT
ATOM      1  C   UNL     1      47.012   7.773  12.703  0.00  0.00    +0.000 A 
ATOM      2  C   UNL     1      46.014   8.745  12.799  0.00  0.00    +0.000 A 
ATOM      3  C   UNL     1      44.818   8.573  12.117  0.00  0.00    +0.000 A 
ATOM      4  C   UNL     1      44.630   7.423  11.359  0.00  0.00    +0.000 A 
ATOM      5  C   UNL     1      45.635   6.461  11.330  0.00  0.00    +0.000 A 
ATOM      6  N   UNL     1      46.801   6.623  12.006  0.00  0.00    +0.000 NA
ENDROOT
BRANCH   5   7
ATOM      7  C   UNL     1      45.540   5.229  10.522  0.00  0.00    +0.000 A 
ATOM      8  C   UNL     1      45.030   4.031  11.053  0.00  0.00    +0.000 A 
ATOM      9  C   UNL     1      44.916   2.872  10.273  0.00  0.00    +0.000 A 
ATOM     10  C   UNL     1      45.293   2.894   8.931  0.00  0.00    +0.000 A 
ATOM     11  C   UNL     1      45.826   4.064   8.393  0.00  0.00    +0.000 A 
ATOM     12  C   UNL     1      45.938   5.219   9.174  0.00  0.00    +0.000 A 
BRANCH  10  13
ATOM     13  O   UNL     1      45.207   1.841   8.066  0.00  0.00    +0.000 OA
BRANCH  13  14
ATOM     14  C   UNL     1      46.433   1.191   7.776  0.00  0.00    +0.000 C 
ATOM     15  F   UNL     1      46.243  -0.138   7.971  0.00  0.00    +0.000 F 
ATOM     16  F   UNL     1      46.712   1.358   6.459  0.00  0.00    +0.000 F 
ENDBRANCH  13  14
ENDBRANCH  10  13
ENDBRANCH   5   7
BRANCH   1  17
ATOM     17  C   UNL     1      48.415   8.052  13.236  0.00  0.00    +0.000 C 
ATOM     18  C   UNL     1      49.584   7.869  12.266  0.00  0.00    +0.000 C 
ATOM     19  C   UNL     1      49.136   9.252  12.612  0.00  0.00    +0.000 C 
BRANCH  17  23
ATOM     20  C   UNL     1      49.015   7.220  17.418  0.00  0.00    +0.000 A 
ATOM     21  C   UNL     1      48.561   8.479  17.041  0.00  0.00    +0.000 A 
ATOM     22  C   UNL     1      48.385   8.765  15.684  0.00  0.00    +0.000 A 
ATOM     23  C   UNL     1      48.657   7.787  14.721  0.00  0.00    +0.000 A 
ATOM     24  N   UNL     1      49.107   6.558  15.091  0.00  0.00    +0.000 NA
ATOM     25  C   UNL     1      49.273   6.302  16.413  0.00  0.00    +0.000 A 
BRANCH  20  27
ATOM     26  N   UNL     1      49.359   6.590  19.906  0.00  0.00    +0.000 NA
ATOM     27  C   UNL     1      49.204   6.871  18.791  0.00  0.00    +0.000 C 
ENDBRANCH  20  27
ENDBRANCH  17  23
ENDBRANCH   1  17
TORSDOF 6
ENDMDL
MODEL 5
REMARK VINA RESULT:    -6.275      5.058      8.369
REMARK INTER + INTRA:          -9.093
REMARK INTER:                  -8.482
REMARK INTRA:                  -0.611
REMARK UNBOUND:                -0.617
REMARK  Name = 
REMARK  6 active torsions:
REMARK  status: ('A' for Active; 'I' for Inactive)
REMARK    1  A    between atoms: C_2  and  C_3
REMARK    2  A    between atoms: C_6  and  C_7
REMARK    3  A    between atoms: C_7  and  C_8
REMARK    4  A    between atoms: C_12  and  C_13
REMARK    5  A    between atoms: C_16  and  O_17
REMARK    6  A    between atoms: O_17  and  C_18
REMARK                            x       y       z     vdW  Elec       q    Type
REMARK                         _______ _______ _______ _____ _____    ______ ____
ROOT
ATOM      1  C   UNL     1      44.809   6.457  11.558  0.00  0.00    +0.000 A 
ATOM      2  C   UNL     1      44.231   7.637  11.086  0.00  0.00    +0.000 A 
ATOM      3  C   UNL     1      44.697   8.863  11.543  0.00  0.00    +0.000 A 
ATOM      4  C   UNL     1      45.745   8.891  12.454  0.00  0.00    +0.000 A 
ATOM      5  C   UNL     1      46.321   7.690  12.861  0.00  0.00    +0.000 A 
ATOM      6  N   UNL     1      45.873   6.492  12.406  0.00  0.00    +0.000 NA
ENDROOT
BRANCH   5   7
ATOM      7  C   UNL     1      47.409   7.621  13.855  0.00  0.00    +0.000 A 
ATOM      8  C   UNL     1      47.915   6.393  14.316  0.00  0.00    +0.000 A 
ATOM      9  C   UNL     1      48.968   6.332  15.240  0.00  0.00    +0.000 A 
ATOM     10  C   UNL     1      49.553   7.507  15.708  0.00  0.00    +0.000 A 
ATOM     11  C   UNL     1      49.049   8.735  15.284  0.00  0.00    +0.000 A 
ATOM     12  C   UNL     1      47.999   8.792  14.363  0.00  0.00    +0.000 A 
BRANCH  10  13
ATOM     13  O   UNL     1      50.597   7.577  16.587  0.00  0.00    +0.000 OA
BRANCH  13  14
ATOM     14  C   UNL     1      51.749   6.837  16.222  0.00  0.00    +0.000 C 
ATOM     15  F   UNL     1      52.229   7.376  15.072  0.00  0.00    +0.000 F 
ATOM     16  F   UNL     1      52.703   7.022  17.168  0.00  0.00    +0.000 F 
ENDBRANCH  13  14
ENDBRANCH  10  13
ENDBRANCH   5   7
BRANCH   1  17
ATOM     17  C   UNL     1      44.158   5.108  11.264  0.00  0.00    +0.000 C 
ATOM     18  C   UNL     1      43.466   4.394  12.427  0.00  0.00    +0.000 C 
ATOM     19  C   UNL     1      42.631   5.067  11.387  0.00  0.00    +0.000 C 
BRANCH  17  23
ATOM     20  C   UNL     1      46.020   2.664   8.248  0.00  0.00    +0.000 A 
ATOM     21  C   UNL     1      46.096   4.048   8.134  0.00  0.00    +0.000 A 
ATOM     22  C   UNL     1      45.475   4.848   9.097  0.00  0.00    +0.000 A 
ATOM     23  C   UNL     1      44.793   4.257  10.166  0.00  0.00    +0.000 A 
ATOM     24  N   UNL     1      44.714   2.904  10.272  0.00  0.00    +0.000 NA
ATOM     25  C   UNL     1      45.321   2.144   9.327  0.00  0.00    +0.000 A 
BRANCH  20  27
ATOM     26  N   UNL     1      47.152   1.094   6.528  0.00  0.00    +0.000 NA
ATOM     27  C   UNL     1      46.644   1.797   7.298  0.00  0.00    +0.000 C 
ENDBRANCH  20  27
ENDBRANCH  17  23
ENDBRANCH   1  17
TORSDOF 6
ENDMDL
MODEL 6
REMARK VINA RESULT:    -6.039      4.562      7.990
REMARK INTER + INTRA:          -8.775
REMARK INTER:                  -8.136
REMARK INTRA:                  -0.638
REMARK UNBOUND:                -0.617
REMARK  Name = 
REMARK  6 active torsions:
REMARK  status: ('A' for Active; 'I' for Inactive)
REMARK    1  A    between atoms: C_2  and  C_3
REMARK    2  A    between atoms: C_6  and  C_7
REMARK    3  A    between atoms: C_7  and  C_8
REMARK    4  A    between atoms: C_12  and  C_13
REMARK    5  A    between atoms: C_16  and  O_17
REMARK    6  A    between atoms: O_17  and  C_18
REMARK                            x       y       z     vdW  Elec       q    Type
REMARK                         _______ _______ _______ _____ _____    ______ ____
ROOT
ATOM      1  C   UNL     1      48.778   7.620  14.547  0.00  0.00    +0.000 A 
ATOM      2  C   UNL     1      48.419   8.755  15.276  0.00  0.00    +0.000 A 
ATOM      3  C   UNL     1      48.755   8.844  16.621  0.00  0.00    +0.000 A 
ATOM      4  C   UNL     1      49.458   7.802  17.213  0.00  0.00    +0.000 A 
ATOM      5  C   UNL     1      49.835   6.711  16.434  0.00  0.00    +0.000 A 
ATOM      6  N   UNL     1      49.517   6.629  15.117  0.00  0.00    +0.000 NA
ENDROOT
BRANCH   5   7
ATOM      7  C   UNL     1      50.547   5.542  16.986  0.00  0.00    +0.000 A 
ATOM      8  C   UNL     1      49.872   4.357  17.329  0.00  0.00    +0.000 A 
ATOM      9  C   UNL     1      50.556   3.240  17.827  0.00  0.00    +0.000 A 
ATOM     10  C   UNL     1      51.942   3.279  17.973  0.00  0.00    +0.000 A 
ATOM     11  C   UNL     1      52.627   4.452  17.665  0.00  0.00    +0.000 A 
ATOM     12  C   UNL     1      51.940   5.566  17.168  0.00  0.00    +0.000 A 
BRANCH  10  13
ATOM     13  O   UNL     1      52.721   2.251  18.423  0.00  0.00    +0.000 OA
BRANCH  13  14
ATOM     14  C   UNL     1      52.689   1.074  17.633  0.00  0.00    +0.000 C 
ATOM     15  F   UNL     1      53.883   0.450  17.790  0.00  0.00    +0.000 F 
ATOM     16  F   UNL     1      51.743   0.240  18.133  0.00  0.00    +0.000 F 
ENDBRANCH  13  14
ENDBRANCH  10  13
ENDBRANCH   5   7
BRANCH   1  17
ATOM     17  C   UNL     1      48.212   7.391  13.148  0.00  0.00    +0.000 C 
ATOM     18  C   UNL     1      48.221   8.579  12.183  0.00  0.00    +0.000 C 
ATOM     19  C   UNL     1      49.222   7.484  11.999  0.00  0.00    +0.000 C 
BRANCH  17  23
ATOM     20  C   UNL     1      45.134   4.413  12.700  0.00  0.00    +0.000 A 
ATOM     21  C   UNL     1      44.884   5.710  12.265  0.00  0.00    +0.000 A 
ATOM     22  C   UNL     1      45.870   6.688  12.427  0.00  0.00    +0.000 A 
ATOM     23  C   UNL     1      47.096   6.357  13.014  0.00  0.00    +0.000 A 
ATOM     24  N   UNL     1      47.337   5.090  13.445  0.00  0.00    +0.000 NA
ATOM     25  C   UNL     1      46.367   4.156  13.281  0.00  0.00    +0.000 A 
BRANCH  20  27
ATOM     26  N   UNL     1      43.383   2.525  12.433  0.00  0.00    +0.000 NA
ATOM     27  C   UNL     1      44.167   3.372  12.552  0.00  0.00    +0.000 C 
ENDBRANCH  20  27
ENDBRANCH  17  23
ENDBRANCH   1  17
TORSDOF 6
ENDMDL
MODEL 7
REMARK VINA RESULT:    -6.024      5.462      8.589
REMARK INTER + INTRA:          -8.754
REMARK INTER:                  -8.553
REMARK INTRA:                  -0.201
REMARK UNBOUND:                -0.617
REMARK  Name = 
REMARK  6 active torsions:
REMARK  status: ('A' for Active; 'I' for Inactive)
REMARK    1  A    between atoms: C_2  and  C_3
REMARK    2  A    between atoms: C_6  and  C_7
REMARK    3  A    between atoms: C_7  and  C_8
REMARK    4  A    between atoms: C_12  and  C_13
REMARK    5  A    between atoms: C_16  and  O_17
REMARK    6  A    between atoms: O_17  and  C_18
REMARK                            x       y       z     vdW  Elec       q    Type
REMARK                         _______ _______ _______ _____ _____    ______ ____
ROOT
ATOM      1  C   UNL     1      45.008   5.725  11.036  0.00  0.00    +0.000 A 
ATOM      2  C   UNL     1      43.937   6.617  11.109  0.00  0.00    +0.000 A 
ATOM      3  C   UNL     1      44.134   7.886  11.636  0.00  0.00    +0.000 A 
ATOM      4  C   UNL     1      45.403   8.251  12.068  0.00  0.00    +0.000 A 
ATOM      5  C   UNL     1      46.451   7.344  11.932  0.00  0.00    +0.000 A 
ATOM      6  N   UNL     1      46.262   6.106  11.406  0.00  0.00    +0.000 NA
ENDROOT
BRANCH   5   7
ATOM      7  C   UNL     1      47.821   7.628  12.400  0.00  0.00    +0.000 A 
ATOM      8  C   UNL     1      48.331   7.069  13.585  0.00  0.00    +0.000 A 
ATOM      9  C   UNL     1      49.643   7.320  14.011  0.00  0.00    +0.000 A 
ATOM     10  C   UNL     1      50.483   8.125  13.243  0.00  0.00    +0.000 A 
ATOM     11  C   UNL     1      49.989   8.710  12.079  0.00  0.00    +0.000 A 
ATOM     12  C   UNL     1      48.680   8.458  11.657  0.00  0.00    +0.000 A 
BRANCH  10  13
ATOM     13  O   UNL     1      51.783   8.422  13.539  0.00  0.00    +0.000 OA
BRANCH  13  14
ATOM     14  C   UNL     1      52.579   8.827  12.438  0.00  0.00    +0.000 C 
ATOM     15  F   UNL     1      53.664   9.471  12.938  0.00  0.00    +0.000 F 
ATOM     16  F   UNL     1      53.040   7.719  11.804  0.00  0.00    +0.000 F 
ENDBRANCH  13  14
ENDBRANCH  10  13
ENDBRANCH   5   7
BRANCH   1  17
ATOM     17  C   UNL     1      44.768   4.256  10.694  0.00  0.00    +0.000 C 
ATOM     18  C   UNL     1      44.482   3.303  11.857  0.00  0.00    +0.000 C 
ATOM     19  C   UNL     1      43.355   3.733  10.976  0.00  0.00    +0.000 C 
BRANCH  17  23
ATOM     20  C   UNL     1      46.707   2.751   7.157  0.00  0.00    +0.000 A 
ATOM     21  C   UNL     1      46.225   1.847   8.097  0.00  0.00    +0.000 A 
ATOM     22  C   UNL     1      45.615   2.327   9.259  0.00  0.00    +0.000 A 
ATOM     23  C   UNL     1      45.484   3.705   9.464  0.00  0.00    +0.000 A 
ATOM     24  N   UNL     1      45.962   4.589   8.547  0.00  0.00    +0.000 NA
ATOM     25  C   UNL     1      46.553   4.102   7.427  0.00  0.00    +0.000 A 
BRANCH  20  27
ATOM     26  N   UNL     1      47.838   1.964   4.965  0.00  0.00    +0.000 NA
ATOM     27  C   UNL     1      47.332   2.316   5.948  0.00  0.00    +0.000 C 
ENDBRANCH  20  27
ENDBRANCH  17  23
ENDBRANCH   1  17
TORSDOF 6
ENDMDL
MODEL 8
REMARK VINA RESULT:    -5.854      4.439      8.172
REMARK INTER + INTRA:          -8.524
REMARK INTER:                  -8.015
REMARK INTRA:                  -0.509
REMARK UNBOUND:                -0.617
REMARK  Name = 
REMARK  6 active torsions:
REMARK  status: ('A' for Active; 'I' for Inactive)
REMARK    1  A    between atoms: C_2  and  C_3
REMARK    2  A    between atoms: C_6  and  C_7
REMARK    3  A    between atoms: C_7  and  C_8
REMARK    4  A    between atoms: C_12  and  C_13
REMARK    5  A    between atoms: C_16  and  O_17
REMARK    6  A    between atoms: O_17  and  C_18
REMARK                            x       y       z     vdW  Elec       q    Type
REMARK                         _______ _______ _______ _____ _____    ______ ____
ROOT
ATOM      1  C   UNL     1      48.699   5.796  16.539  0.00  0.00    +0.000 A 
ATOM      2  C   UNL     1      47.764   5.955  17.563  0.00  0.00    +0.000 A 
ATOM      3  C   UNL     1      47.873   5.194  18.719  0.00  0.00    +0.000 A 
ATOM      4  C   UNL     1      48.926   4.295  18.842  0.00  0.00    +0.000 A 
ATOM      5  C   UNL     1      49.860   4.204  17.814  0.00  0.00    +0.000 A 
ATOM      6  N   UNL     1      49.761   4.956  16.687  0.00  0.00    +0.000 NA
ENDROOT
BRANCH   5   7
ATOM      7  C   UNL     1      50.986   3.250  17.838  0.00  0.00    +0.000 A 
ATOM      8  C   UNL     1      52.241   3.598  18.368  0.00  0.00    +0.000 A 
ATOM      9  C   UNL     1      53.299   2.679  18.414  0.00  0.00    +0.000 A 
ATOM     10  C   UNL     1      53.114   1.379  17.948  0.00  0.00    +0.000 A 
ATOM     11  C   UNL     1      51.887   1.021  17.395  0.00  0.00    +0.000 A 
ATOM     12  C   UNL     1      50.833   1.941  17.350  0.00  0.00    +0.000 A 
BRANCH  10  13
ATOM     13  O   UNL     1      54.057   0.391  17.962  0.00  0.00    +0.000 OA
BRANCH  13  14
ATOM     14  C   UNL     1      54.869   0.309  16.802  0.00  0.00    +0.000 C 
ATOM     15  F   UNL     1      54.209  -0.462  15.901  0.00  0.00    +0.000 F 
ATOM     16  F   UNL     1      54.973   1.546  16.256  0.00  0.00    +0.000 F 
ENDBRANCH  13  14
ENDBRANCH  10  13
ENDBRANCH   5   7
BRANCH   1  17
ATOM     17  C   UNL     1      48.463   6.433  15.172  0.00  0.00    +0.000 C 
ATOM     18  C   UNL     1      48.596   7.954  15.074  0.00  0.00    +0.000 C 
ATOM     19  C   UNL     1      49.687   7.092  14.527  0.00  0.00    +0.000 C 
BRANCH  17  23
ATOM     20  C   UNL     1      45.773   4.396  12.497  0.00  0.00    +0.000 A 
ATOM     21  C   UNL     1      45.816   5.786  12.479  0.00  0.00    +0.000 A 
ATOM     22  C   UNL     1      46.670   6.456  13.360  0.00  0.00    +0.000 A 
ATOM     23  C   UNL     1      47.477   5.729  14.242  0.00  0.00    +0.000 A 
ATOM     24  N   UNL     1      47.429   4.370  14.263  0.00  0.00    +0.000 NA
ATOM     25  C   UNL     1      46.592   3.739  13.402  0.00  0.00    +0.000 A 
BRANCH  20  27
ATOM     26  N   UNL     1      44.234   3.063  10.897  0.00  0.00    +0.000 NA
ATOM     27  C   UNL     1      44.925   3.660  11.613  0.00  0.00    +0.000 C 
ENDBRANCH  20  27
ENDBRANCH  17  23
ENDBRANCH   1  17
TORSDOF 6
ENDMDL
MODEL 9
REMARK VINA RESULT:    -5.718      2.091      2.884
REMARK INTER + INTRA:          -8.341
REMARK INTER:                  -7.605
REMARK INTRA:                  -0.736
REMARK UNBOUND:                -0.617
REMARK  Name = 
REMARK  6 active torsions:
REMARK  status: ('A' for Active; 'I' for Inactive)
REMARK    1  A    between atoms: C_2  and  C_3
REMARK    2  A    between atoms: C_6  and  C_7
REMARK    3  A    between atoms: C_7  and  C_8
REMARK    4  A    between atoms: C_12  and  C_13
REMARK    5  A    between atoms: C_16  and  O_17
REMARK    6  A    between atoms: O_17  and  C_18
REMARK                            x       y       z     vdW  Elec       q    Type
REMARK                         _______ _______ _______ _____ _____    ______ ____
ROOT
ATOM      1  C   UNL     1      49.859   8.093  14.389  0.00  0.00    +0.000 A 
ATOM      2  C   UNL     1      50.482   8.627  13.259  0.00  0.00    +0.000 A 
ATOM      3  C   UNL     1      49.963   8.365  11.999  0.00  0.00    +0.000 A 
ATOM      4  C   UNL     1      48.818   7.585  11.886  0.00  0.00    +0.000 A 
ATOM      5  C   UNL     1      48.205   7.113  13.044  0.00  0.00    +0.000 A 
ATOM      6  N   UNL     1      48.706   7.378  14.278  0.00  0.00    +0.000 NA
ENDROOT
BRANCH   5   7
ATOM      7  C   UNL     1      47.012   6.246  13.020  0.00  0.00    +0.000 A 
ATOM      8  C   UNL     1      45.793   6.677  12.466  0.00  0.00    +0.000 A 
ATOM      9  C   UNL     1      44.670   5.839  12.420  0.00  0.00    +0.000 A 
ATOM     10  C   UNL     1      44.750   4.538  12.913  0.00  0.00    +0.000 A 
ATOM     11  C   UNL     1      45.940   4.099  13.490  0.00  0.00    +0.000 A 
ATOM     12  C   UNL     1      47.059   4.938  13.534  0.00  0.00    +0.000 A 
BRANCH  10  13
ATOM     13  O   UNL     1      43.736   3.622  12.902  0.00  0.00    +0.000 OA
BRANCH  13  14
ATOM     14  C   UNL     1      43.357   3.150  11.621  0.00  0.00    +0.000 C 
ATOM     15  F   UNL     1      44.481   3.096  10.861  0.00  0.00    +0.000 F 
ATOM     16  F   UNL     1      42.906   1.877  11.742  0.00  0.00    +0.000 F 
ENDBRANCH  13  14
ENDBRANCH  10  13
ENDBRANCH   5   7
BRANCH   1  17
ATOM     17  C   UNL     1      50.544   8.159  15.752  0.00  0.00    +0.000 C 
ATOM     18  C   UNL     1      51.267   9.459  16.112  0.00  0.00    +0.000 C 
ATOM     19  C   UNL     1      49.947   9.162  16.746  0.00  0.00    +0.000 C 
BRANCH  17  23
ATOM     20  C   UNL     1      52.011   4.488  17.457  0.00  0.00    +0.000 A 
ATOM     21  C   UNL     1      52.926   5.431  17.001  0.00  0.00    +0.000 A 
ATOM     22  C   UNL     1      52.458   6.616  16.426  0.00  0.00    +0.000 A 
ATOM     23  C   UNL     1      51.082   6.848  16.320  0.00  0.00    +0.000 A 
ATOM     24  N   UNL     1      50.189   5.922  16.760  0.00  0.00    +0.000 NA
ATOM     25  C   UNL     1      50.663   4.778  17.313  0.00  0.00    +0.000 A 
BRANCH  20  27
ATOM     26  N   UNL     1      52.778   2.268  18.548  0.00  0.00    +0.000 NA
ATOM     27  C   UNL     1      52.434   3.263  18.061  0.00  0.00    +0.000 C 
ENDBRANCH  20  27
ENDBRANCH  17  23
ENDBRANCH   1  17
TORSDOF 6
ENDMDL
