MODEL 1
REMARK VINA RESULT:    -7.287      0.000      0.000
REMARK INTER + INTRA:          -9.837
REMARK INTER:                  -8.992
REMARK INTRA:                  -0.845
REMARK UNBOUND:                -0.845
REMARK  Name = 
REMARK  5 active torsions:
REMARK  status: ('A' for Active; 'I' for Inactive)
REMARK    1  A    between atoms: C_1  and  C_2
REMARK    2  A    between atoms: C_4  and  N_5
REMARK    3  A    between atoms: C_4  and  C_15
REMARK    4  A    between atoms: C_9  and  C_10
REMARK    5  A    between atoms: C_20  and  C_21
REMARK                            x       y       z     vdW  Elec       q    Type
REMARK                         _______ _______ _______ _____ _____    ______ ____
ROOT
ATOM      1  C   UNL     1      43.062   5.154  13.256  0.00  0.00    +0.000 C 
ATOM      2  C   UNL     1      43.157   4.639  11.865  0.00  0.00    +0.000 C 
ATOM      3  C   UNL     1      42.725   5.493  10.719  0.00  0.00    +0.000 C 
ATOM      4  C   UNL     1      44.188   5.039  10.806  0.00  0.00    +0.000 C 
ENDROOT
BRANCH   4   5
ATOM      5  N   UNL     1      45.156   6.159  10.851  0.00  0.00    +0.000 N 
ATOM      6  C   UNL     1      46.194   6.244  11.796  0.00  0.00    +0.000 A 
ATOM      7  C   UNL     1      47.183   7.217  11.619  0.00  0.00    +0.000 A 
ATOM      8  C   UNL     1      48.202   7.352  12.566  0.00  0.00    +0.000 A 
ATOM      9  C   UNL     1      48.221   6.506  13.677  0.00  0.00    +0.000 A 
ATOM     10  C   UNL     1      47.219   5.553  13.762  0.00  0.00    +0.000 A 
ATOM     11  N   UNL     1      46.241   5.392  12.833  0.00  0.00    +0.000 NA
ATOM     12  H   UNL     1      44.783   7.079  10.653  0.00  0.00    +0.000 HD
BRANCH   9  13
ATOM     13  C   UNL     1      49.274   6.669  14.708  0.00  0.00    +0.000 C 
ATOM     14  N   UNL     1      50.379   7.418  14.413  0.00  0.00    +0.000 N 
ATOM     15  O   UNL     1      49.158   6.148  15.811  0.00  0.00    +0.000 OA
ATOM     16  H   UNL     1      50.565   7.902  13.549  0.00  0.00    +0.000 HD
ATOM     17  H   UNL     1      51.066   7.513  15.152  0.00  0.00    +0.000 HD
ENDBRANCH   9  13
ENDBRANCH   4   5
BRANCH   4  18
ATOM     18  C   UNL     1      44.692   3.866   9.953  0.00  0.00    +0.000 A 
ATOM     19  C   UNL     1      44.239   2.544  10.105  0.00  0.00    +0.000 A 
ATOM     20  C   UNL     1      44.730   1.512   9.300  0.00  0.00    +0.000 A 
ATOM     21  C   UNL     1      45.662   1.788   8.306  0.00  0.00    +0.000 A 
ATOM     22  F   UNL     1      46.091   0.779   7.536  0.00  0.00    +0.000 F 
ATOM     23  C   UNL     1      46.130   3.079   8.107  0.00  0.00    +0.000 A 
ATOM     24  C   UNL     1      45.656   4.098   8.951  0.00  0.00    +0.000 A 
BRANCH  23  25
ATOM     25  C   UNL     1      47.087   3.413   7.003  0.00  0.00    +0.000 C 
ATOM     26  F   UNL     1      46.618   3.195   5.744  0.00  0.00    +0.000 F 
ATOM     27  F   UNL     1      47.459   4.725   7.031  0.00  0.00    +0.000 F 
ATOM     28  F   UNL     1      48.247   2.704   7.091  0.00  0.00    +0.000 F 
ENDBRANCH  23  25
ENDBRANCH   4  18
TORSDOF 4
ENDMDL
MODEL 2
REMARK VINA RESULT:    -6.575      4.106      6.478
REMARK INTER + INTRA:          -8.958
REMARK INTER:                  -7.842
REMARK INTRA:                  -1.116
REMARK UNBOUND:                -0.845
REMARK  Name = 
REMARK  5 active torsions:
REMARK  status: ('A' for Active; 'I' for Inactive)
REMARK    1  A    between atoms: C_1  and  C_2
REMARK    2  A    between atoms: C_4  and  N_5
REMARK    3  A    between atoms: C_4  and  C_15
REMARK    4  A    between atoms: C_9  and  C_10
REMARK    5  A    between atoms: C_20  and  C_21
REMARK                            x       y       z     vdW  Elec       q    Type
REMARK                         _______ _______ _______ _____ _____    ______ ____
ROOT
ATOM      1  C   UNL     1      42.027   5.746  11.499  0.00  0.00    +0.000 C 
ATOM      2  C   UNL     1      43.109   5.616  12.509  0.00  0.00    +0.000 C 
ATOM      3  C   UNL     1      43.060   4.522  13.523  0.00  0.00    +0.000 C 
ATOM      4  C   UNL     1      44.227   4.570  12.529  0.00  0.00    +0.000 C 
ENDROOT
BRANCH   4   5
ATOM      5  N   UNL     1      44.351   3.351  11.699  0.00  0.00    +0.000 N 
ATOM      6  C   UNL     1      44.935   3.345  10.419  0.00  0.00    +0.000 A 
ATOM      7  C   UNL     1      45.205   2.114   9.812  0.00  0.00    +0.000 A 
ATOM      8  C   UNL     1      45.745   2.080   8.523  0.00  0.00    +0.000 A 
ATOM      9  C   UNL     1      46.014   3.279   7.860  0.00  0.00    +0.000 A 
ATOM     10  C   UNL     1      45.741   4.453   8.544  0.00  0.00    +0.000 A 
ATOM     11  N   UNL     1      45.245   4.500   9.808  0.00  0.00    +0.000 NA
ATOM     12  H   UNL     1      43.571   2.706  11.733  0.00  0.00    +0.000 HD
BRANCH   9  13
ATOM     13  C   UNL     1      46.548   3.252   6.477  0.00  0.00    +0.000 C 
ATOM     14  N   UNL     1      46.933   2.056   5.940  0.00  0.00    +0.000 N 
ATOM     15  O   UNL     1      46.638   4.282   5.820  0.00  0.00    +0.000 OA
ATOM     16  H   UNL     1      46.885   1.153   6.385  0.00  0.00    +0.000 HD
ATOM     17  H   UNL     1      47.280   2.083   4.988  0.00  0.00    +0.000 HD
ENDBRANCH   9  13
ENDBRANCH   4   5
BRANCH   4  18
ATOM     18  C   UNL     1      45.593   5.126  12.958  0.00  0.00    +0.000 A 
ATOM     19  C   UNL     1      46.534   4.389  13.697  0.00  0.00    +0.000 A 
ATOM     20  C   UNL     1      47.765   4.941  14.060  0.00  0.00    +0.000 A 
ATOM     21  C   UNL     1      48.093   6.233  13.664  0.00  0.00    +0.000 A 
ATOM     22  F   UNL     1      49.291   6.722  14.007  0.00  0.00    +0.000 F 
ATOM     23  C   UNL     1      47.204   6.997  12.920  0.00  0.00    +0.000 A 
ATOM     24  C   UNL     1      45.954   6.440  12.598  0.00  0.00    +0.000 A 
BRANCH  23  25
ATOM     25  C   UNL     1      47.557   8.367  12.427  0.00  0.00    +0.000 C 
ATOM     26  F   UNL     1      48.025   9.222  13.377  0.00  0.00    +0.000 F 
ATOM     27  F   UNL     1      48.522   8.328  11.465  0.00  0.00    +0.000 F 
ATOM     28  F   UNL     1      46.496   9.001  11.853  0.00  0.00    +0.000 F 
ENDBRANCH  23  25
ENDBRANCH   4  18
TORSDOF 4
ENDMDL
MODEL 3
REMARK VINA RESULT:    -6.528      1.912      2.774
REMARK INTER + INTRA:          -8.900
REMARK INTER:                  -8.501
REMARK INTRA:                  -0.399
REMARK UNBOUND:                -0.845
REMARK  Name = 
REMARK  5 active torsions:
REMARK  status: ('A' for Active; 'I' for Inactive)
REMARK    1  A    between atoms: C_1  and  C_2
REMARK    2  A    between atoms: C_4  and  N_5
REMARK    3  A    between atoms: C_4  and  C_15
REMARK    4  A    between atoms: C_9  and  C_10
REMARK    5  A    between atoms: C_20  and  C_21
REMARK                            x       y       z     vdW  Elec       q    Type
REMARK                         _______ _______ _______ _____ _____    ______ ____
ROOT
ATOM      1  C   UNL     1      44.759   3.230  13.080  0.00  0.00    +0.000 C 
ATOM      2  C   UNL     1      44.673   3.001  11.614  0.00  0.00    +0.000 C 
ATOM      3  C   UNL     1      43.360   3.118  10.913  0.00  0.00    +0.000 C 
ATOM      4  C   UNL     1      44.503   4.065  10.527  0.00  0.00    +0.000 C 
ENDROOT
BRANCH   4   5
ATOM      5  N   UNL     1      44.170   5.499  10.695  0.00  0.00    +0.000 N 
ATOM      6  C   UNL     1      44.995   6.407  11.384  0.00  0.00    +0.000 A 
ATOM      7  C   UNL     1      44.705   7.772  11.298  0.00  0.00    +0.000 A 
ATOM      8  C   UNL     1      45.482   8.692  12.008  0.00  0.00    +0.000 A 
ATOM      9  C   UNL     1      46.544   8.234  12.790  0.00  0.00    +0.000 A 
ATOM     10  C   UNL     1      46.778   6.868  12.799  0.00  0.00    +0.000 A 
ATOM     11  N   UNL     1      46.049   5.967  12.090  0.00  0.00    +0.000 NA
ATOM     12  H   UNL     1      43.195   5.714  10.860  0.00  0.00    +0.000 HD
BRANCH   9  13
ATOM     13  C   UNL     1      47.348   9.199  13.579  0.00  0.00    +0.000 C 
ATOM     14  N   UNL     1      47.447   9.026  14.931  0.00  0.00    +0.000 N 
ATOM     15  O   UNL     1      47.921  10.132  13.031  0.00  0.00    +0.000 OA
ATOM     16  H   UNL     1      47.033   8.287  15.476  0.00  0.00    +0.000 HD
ATOM     17  H   UNL     1      48.017   9.701  15.428  0.00  0.00    +0.000 HD
ENDBRANCH   9  13
ENDBRANCH   4   5
BRANCH   4  18
ATOM     18  C   UNL     1      45.338   3.806   9.264  0.00  0.00    +0.000 A 
ATOM     19  C   UNL     1      45.855   4.829   8.451  0.00  0.00    +0.000 A 
ATOM     20  C   UNL     1      46.612   4.538   7.312  0.00  0.00    +0.000 A 
ATOM     21  C   UNL     1      46.890   3.217   6.980  0.00  0.00    +0.000 A 
ATOM     22  F   UNL     1      47.640   2.976   5.897  0.00  0.00    +0.000 F 
ATOM     23  C   UNL     1      46.414   2.171   7.759  0.00  0.00    +0.000 A 
ATOM     24  C   UNL     1      45.622   2.480   8.878  0.00  0.00    +0.000 A 
BRANCH  23  25
ATOM     25  C   UNL     1      46.753   0.743   7.459  0.00  0.00    +0.000 C 
ATOM     26  F   UNL     1      46.624   0.378   6.154  0.00  0.00    +0.000 F 
ATOM     27  F   UNL     1      48.041   0.444   7.794  0.00  0.00    +0.000 F 
ATOM     28  F   UNL     1      45.982  -0.132   8.164  0.00  0.00    +0.000 F 
ENDBRANCH  23  25
ENDBRANCH   4  18
TORSDOF 4
ENDMDL
MODEL 4
REMARK VINA RESULT:    -6.517      4.644      7.040
REMARK INTER + INTRA:          -8.886
REMARK INTER:                  -8.165
REMARK INTRA:                  -0.720
REMARK UNBOUND:                -0.845
REMARK  Name = 
REMARK  5 active torsions:
REMARK  status: ('A' for Active; 'I' for Inactive)
REMARK    1  A    between atoms: C_1  and  C_2
REMARK    2  A    between atoms: C_4  and  N_5
REMARK    3  A    between atoms: C_4  and  C_15
REMARK    4  A    between atoms: C_9  and  C_10
REMARK    5  A    between atoms: C_20  and  C_21
REMARK                            x       y       z     vdW  Elec       q    Type
REMARK                         _______ _______ _______ _____ _____    ______ ____
ROOT
ATOM      1  C   UNL     1      42.631   6.337  11.047  0.00  0.00    +0.000 C 
ATOM      2  C   UNL     1      43.443   6.069  12.263  0.00  0.00    +0.000 C 
ATOM      3  C   UNL     1      42.997   5.041  13.249  0.00  0.00    +0.000 C 
ATOM      4  C   UNL     1      44.334   4.851  12.522  0.00  0.00    +0.000 C 
ENDROOT
BRANCH   4   5
ATOM      5  N   UNL     1      44.413   3.595  11.742  0.00  0.00    +0.000 N 
ATOM      6  C   UNL     1      44.987   3.517  10.460  0.00  0.00    +0.000 A 
ATOM      7  C   UNL     1      45.213   2.254   9.903  0.00  0.00    +0.000 A 
ATOM      8  C   UNL     1      45.742   2.149   8.613  0.00  0.00    +0.000 A 
ATOM      9  C   UNL     1      46.044   3.311   7.900  0.00  0.00    +0.000 A 
ATOM     10  C   UNL     1      45.813   4.521   8.536  0.00  0.00    +0.000 A 
ATOM     11  N   UNL     1      45.329   4.635   9.799  0.00  0.00    +0.000 NA
ATOM     12  H   UNL     1      43.613   2.977  11.808  0.00  0.00    +0.000 HD
BRANCH   9  13
ATOM     13  C   UNL     1      46.567   3.210   6.516  0.00  0.00    +0.000 C 
ATOM     14  N   UNL     1      46.950   1.987   6.041  0.00  0.00    +0.000 N 
ATOM     15  O   UNL     1      46.648   4.203   5.803  0.00  0.00    +0.000 OA
ATOM     16  H   UNL     1      46.908   1.109   6.535  0.00  0.00    +0.000 HD
ATOM     17  H   UNL     1      47.288   1.963   5.086  0.00  0.00    +0.000 HD
ENDBRANCH   9  13
ENDBRANCH   4   5
BRANCH   4  18
ATOM     18  C   UNL     1      45.658   5.186  13.225  0.00  0.00    +0.000 A 
ATOM     19  C   UNL     1      46.473   6.274  12.868  0.00  0.00    +0.000 A 
ATOM     20  C   UNL     1      47.669   6.536  13.542  0.00  0.00    +0.000 A 
ATOM     21  C   UNL     1      48.059   5.731  14.606  0.00  0.00    +0.000 A 
ATOM     22  F   UNL     1      49.198   6.026  15.246  0.00  0.00    +0.000 F 
ATOM     23  C   UNL     1      47.282   4.653  15.006  0.00  0.00    +0.000 A 
ATOM     24  C   UNL     1      46.102   4.380  14.292  0.00  0.00    +0.000 A 
BRANCH  23  25
ATOM     25  C   UNL     1      47.648   3.809  16.189  0.00  0.00    +0.000 C 
ATOM     26  F   UNL     1      46.615   3.492  17.017  0.00  0.00    +0.000 F 
ATOM     27  F   UNL     1      48.193   2.617  15.814  0.00  0.00    +0.000 F 
ATOM     28  F   UNL     1      48.585   4.404  16.980  0.00  0.00    +0.000 F 
ENDBRANCH  23  25
ENDBRANCH   4  18
TORSDOF 4
ENDMDL
MODEL 5
REMARK VINA RESULT:    -6.321      4.740      7.748
REMARK INTER + INTRA:          -8.645
REMARK INTER:                  -7.925
REMARK INTRA:                  -0.720
REMARK UNBOUND:                -0.845
REMARK  Name = 
REMARK  5 active torsions:
REMARK  status: ('A' for Active; 'I' for Inactive)
REMARK    1  A    between atoms: C_1  and  C_2
REMARK    2  A    between atoms: C_4  and  N_5
REMARK    3  A    between atoms: C_4  and  C_15
REMARK    4  A    between atoms: C_9  and  C_10
REMARK    5  A    between atoms: C_20  and  C_21
REMARK                            x       y       z     vdW  Elec       q    Type
REMARK                         _______ _______ _______ _____ _____    ______ ____
ROOT
ATOM      1  C   UNL     1      49.708   7.394  11.757  0.00  0.00    +0.000 C 
ATOM      2  C   UNL     1      49.649   7.535  13.235  0.00  0.00    +0.000 C 
ATOM      3  C   UNL     1      49.381   8.868  13.850  0.00  0.00    +0.000 C 
ATOM      4  C   UNL     1      48.394   7.719  14.091  0.00  0.00    +0.000 C 
ENDROOT
BRANCH   4   5
ATOM      5  N   UNL     1      47.015   8.015  13.638  0.00  0.00    +0.000 N 
ATOM      6  C   UNL     1      46.233   7.108  12.900  0.00  0.00    +0.000 A 
ATOM      7  C   UNL     1      44.877   7.391  12.712  0.00  0.00    +0.000 A 
ATOM      8  C   UNL     1      44.087   6.529  11.946  0.00  0.00    +0.000 A 
ATOM      9  C   UNL     1      44.665   5.390  11.382  0.00  0.00    +0.000 A 
ATOM     10  C   UNL     1      46.010   5.171  11.638  0.00  0.00    +0.000 A 
ATOM     11  N   UNL     1      46.780   5.985  12.406  0.00  0.00    +0.000 NA
ATOM     12  H   UNL     1      46.841   8.964  13.328  0.00  0.00    +0.000 HD
BRANCH   9  13
ATOM     13  C   UNL     1      43.846   4.491  10.534  0.00  0.00    +0.000 C 
ATOM     14  N   UNL     1      44.029   4.512   9.179  0.00  0.00    +0.000 N 
ATOM     15  O   UNL     1      43.022   3.736  11.034  0.00  0.00    +0.000 OA
ATOM     16  H   UNL     1      44.688   5.079   8.669  0.00  0.00    +0.000 HD
ATOM     17  H   UNL     1      43.457   3.872   8.640  0.00  0.00    +0.000 HD
ENDBRANCH   9  13
ENDBRANCH   4   5
BRANCH   4  18
ATOM     18  C   UNL     1      48.417   6.934  15.411  0.00  0.00    +0.000 A 
ATOM     19  C   UNL     1      48.606   7.534  16.667  0.00  0.00    +0.000 A 
ATOM     20  C   UNL     1      48.617   6.773  17.840  0.00  0.00    +0.000 A 
ATOM     21  C   UNL     1      48.410   5.399  17.781  0.00  0.00    +0.000 A 
ATOM     22  F   UNL     1      48.401   4.705  18.926  0.00  0.00    +0.000 F 
ATOM     23  C   UNL     1      48.205   4.762  16.565  0.00  0.00    +0.000 A 
ATOM     24  C   UNL     1      48.237   5.536  15.392  0.00  0.00    +0.000 A 
BRANCH  23  25
ATOM     25  C   UNL     1      47.917   3.294  16.479  0.00  0.00    +0.000 C 
ATOM     26  F   UNL     1      46.894   2.857  17.263  0.00  0.00    +0.000 F 
ATOM     27  F   UNL     1      47.593   2.912  15.211  0.00  0.00    +0.000 F 
ATOM     28  F   UNL     1      48.995   2.534  16.823  0.00  0.00    +0.000 F 
ENDBRANCH  23  25
ENDBRANCH   4  18
TORSDOF 4
ENDMDL
MODEL 6
REMARK VINA RESULT:    -6.130      3.074      5.435
REMARK INTER + INTRA:          -8.409
REMARK INTER:                  -8.652
REMARK INTRA:                   0.243
REMARK UNBOUND:                -0.845
REMARK  Name = 
REMARK  5 active torsions:
REMARK  status: ('A' for Active; 'I' for Inactive)
REMARK    1  A    between atoms: C_1  and  C_2
REMARK    2  A    between atoms: C_4  and  N_5
REMARK    3  A    between atoms: C_4  and  C_15
REMARK    4  A    between atoms: C_9  and  C_10
REMARK    5  A    between atoms: C_20  and  C_21
REMARK                            x       y       z     vdW  Elec       q    Type
REMARK                         _______ _______ _______ _____ _____    ______ ____
ROOT
ATOM      1  C   UNL     1      50.474   9.431  11.617  0.00  0.00    +0.000 C 
ATOM      2  C   UNL     1      49.403   8.415  11.447  0.00  0.00    +0.000 C 
ATOM      3  C   UNL     1      49.669   6.984  11.778  0.00  0.00    +0.000 C 
ATOM      4  C   UNL     1      48.589   7.745  12.557  0.00  0.00    +0.000 C 
ENDROOT
BRANCH   4   5
ATOM      5  N   UNL     1      48.828   7.787  14.018  0.00  0.00    +0.000 N 
ATOM      6  C   UNL     1      48.515   6.723  14.882  0.00  0.00    +0.000 A 
ATOM      7  C   UNL     1      48.979   6.773  16.201  0.00  0.00    +0.000 A 
ATOM      8  C   UNL     1      48.646   5.749  17.093  0.00  0.00    +0.000 A 
ATOM      9  C   UNL     1      47.859   4.684  16.651  0.00  0.00    +0.000 A 
ATOM     10  C   UNL     1      47.463   4.700  15.322  0.00  0.00    +0.000 A 
ATOM     11  N   UNL     1      47.805   5.673  14.438  0.00  0.00    +0.000 NA
ATOM     12  H   UNL     1      48.650   8.674  14.473  0.00  0.00    +0.000 HD
BRANCH   9  13
ATOM     13  C   UNL     1      47.466   3.615  17.600  0.00  0.00    +0.000 C 
ATOM     14  N   UNL     1      48.229   3.408  18.716  0.00  0.00    +0.000 N 
ATOM     15  O   UNL     1      46.472   2.929  17.396  0.00  0.00    +0.000 OA
ATOM     16  H   UNL     1      49.052   3.923  18.986  0.00  0.00    +0.000 HD
ATOM     17  H   UNL     1      47.916   2.676  19.343  0.00  0.00    +0.000 HD
ENDBRANCH   9  13
ENDBRANCH   4   5
BRANCH   4  18
ATOM     18  C   UNL     1      47.103   7.558  12.214  0.00  0.00    +0.000 A 
ATOM     19  C   UNL     1      46.110   8.501  12.530  0.00  0.00    +0.000 A 
ATOM     20  C   UNL     1      44.770   8.283  12.193  0.00  0.00    +0.000 A 
ATOM     21  C   UNL     1      44.403   7.131  11.507  0.00  0.00    +0.000 A 
ATOM     22  F   UNL     1      43.116   6.967  11.178  0.00  0.00    +0.000 F 
ATOM     23  C   UNL     1      45.350   6.176  11.160  0.00  0.00    +0.000 A 
ATOM     24  C   UNL     1      46.685   6.392  11.542  0.00  0.00    +0.000 A 
BRANCH  23  25
ATOM     25  C   UNL     1      44.990   4.957  10.367  0.00  0.00    +0.000 C 
ATOM     26  F   UNL     1      43.671   4.836  10.056  0.00  0.00    +0.000 F 
ATOM     27  F   UNL     1      45.651   4.913   9.175  0.00  0.00    +0.000 F 
ATOM     28  F   UNL     1      45.324   3.803  11.011  0.00  0.00    +0.000 F 
ENDBRANCH  23  25
ENDBRANCH   4  18
TORSDOF 4
ENDMDL
MODEL 7
REMARK VINA RESULT:    -5.978      6.399      8.523
REMARK INTER + INTRA:          -8.221
REMARK INTER:                  -7.013
REMARK INTRA:                  -1.208
REMARK UNBOUND:                -0.845
REMARK  Name = 
REMARK  5 active torsions:
REMARK  status: ('A' for Active; 'I' for Inactive)
REMARK    1  A    between atoms: C_1  and  C_2
REMARK    2  A    between atoms: C_4  and  N_5
REMARK    3  A    between atoms: C_4  and  C_15
REMARK    4  A    between atoms: C_9  and  C_10
REMARK    5  A    between atoms: C_20  and  C_21
REMARK                            x       y       z     vdW  Elec       q    Type
REMARK                         _______ _______ _______ _____ _____    ______ ____
ROOT
ATOM      1  C   UNL     1      48.348   7.718  18.476  0.00  0.00    +0.000 C 
ATOM      2  C   UNL     1      48.468   6.239  18.560  0.00  0.00    +0.000 C 
ATOM      3  C   UNL     1      47.241   5.392  18.633  0.00  0.00    +0.000 C 
ATOM      4  C   UNL     1      48.194   5.231  17.442  0.00  0.00    +0.000 C 
ENDROOT
BRANCH   4   5
ATOM      5  N   UNL     1      47.552   5.474  16.129  0.00  0.00    +0.000 N 
ATOM      6  C   UNL     1      48.208   6.098  15.053  0.00  0.00    +0.000 A 
ATOM      7  C   UNL     1      47.596   6.081  13.796  0.00  0.00    +0.000 A 
ATOM      8  C   UNL     1      48.206   6.731  12.718  0.00  0.00    +0.000 A 
ATOM      9  C   UNL     1      49.424   7.384  12.913  0.00  0.00    +0.000 A 
ATOM     10  C   UNL     1      49.974   7.330  14.184  0.00  0.00    +0.000 A 
ATOM     11  N   UNL     1      49.407   6.676  15.231  0.00  0.00    +0.000 NA
ATOM     12  H   UNL     1      46.577   5.746  16.153  0.00  0.00    +0.000 HD
BRANCH   9  13
ATOM     13  C   UNL     1      50.058   8.111  11.786  0.00  0.00    +0.000 C 
ATOM     14  N   UNL     1      51.219   7.624  11.254  0.00  0.00    +0.000 N 
ATOM     15  O   UNL     1      49.549   9.129  11.331  0.00  0.00    +0.000 OA
ATOM     16  H   UNL     1      51.709   6.791  11.540  0.00  0.00    +0.000 HD
ATOM     17  H   UNL     1      51.609   8.145  10.478  0.00  0.00    +0.000 HD
ENDBRANCH   9  13
ENDBRANCH   4   5
BRANCH   4  18
ATOM     18  C   UNL     1      49.194   4.065  17.395  0.00  0.00    +0.000 A 
ATOM     19  C   UNL     1      48.890   2.804  16.854  0.00  0.00    +0.000 A 
ATOM     20  C   UNL     1      49.838   1.777  16.834  0.00  0.00    +0.000 A 
ATOM     21  C   UNL     1      51.119   2.001  17.327  0.00  0.00    +0.000 A 
ATOM     22  F   UNL     1      52.009   1.003  17.268  0.00  0.00    +0.000 F 
ATOM     23  C   UNL     1      51.472   3.234  17.858  0.00  0.00    +0.000 A 
ATOM     24  C   UNL     1      50.494   4.243  17.908  0.00  0.00    +0.000 A 
BRANCH  23  25
ATOM     25  C   UNL     1      52.862   3.520  18.339  0.00  0.00    +0.000 C 
ATOM     26  F   UNL     1      53.292   2.741  19.367  0.00  0.00    +0.000 F 
ATOM     27  F   UNL     1      53.785   3.359  17.348  0.00  0.00    +0.000 F 
ATOM     28  F   UNL     1      53.008   4.807  18.765  0.00  0.00    +0.000 F 
ENDBRANCH  23  25
ENDBRANCH   4  18
TORSDOF 4
ENDMDL
MODEL 8
REMARK VINA RESULT:    -5.740      6.137      8.919
REMARK INTER + INTRA:          -7.928
REMARK INTER:                  -6.894
REMARK INTRA:                  -1.034
REMARK UNBOUND:                -0.845
REMARK  Name = 
REMARK  5 active torsions:
REMARK  status: ('A' for Active; 'I' for Inactive)
REMARK    1  A    between atoms: C_1  and  C_2
REMARK    2  A    between atoms: C_4  and  N_5
REMARK    3  A    between atoms: C_4  and  C_15
REMARK    4  A    between atoms: C_9  and  C_10
REMARK    5  A    between atoms: C_20  and  C_21
REMARK                            x       y       z     vdW  Elec       q    Type
REMARK                         _______ _______ _______ _____ _____    ______ ____
ROOT
ATOM      1  C   UNL     1      50.128   7.705  11.638  0.00  0.00    +0.000 C 
ATOM      2  C   UNL     1      49.977   8.257  13.009  0.00  0.00    +0.000 C 
ATOM      3  C   UNL     1      49.467   9.646  13.205  0.00  0.00    +0.000 C 
ATOM      4  C   UNL     1      48.668   8.468  13.775  0.00  0.00    +0.000 C 
ENDROOT
BRANCH   4   5
ATOM      5  N   UNL     1      47.283   8.382  13.259  0.00  0.00    +0.000 N 
ATOM      6  C   UNL     1      46.604   7.165  13.068  0.00  0.00    +0.000 A 
ATOM      7  C   UNL     1      45.234   7.200  12.789  0.00  0.00    +0.000 A 
ATOM      8  C   UNL     1      44.544   6.007  12.552  0.00  0.00    +0.000 A 
ATOM      9  C   UNL     1      45.234   4.795  12.603  0.00  0.00    +0.000 A 
ATOM     10  C   UNL     1      46.585   4.848  12.911  0.00  0.00    +0.000 A 
ATOM     11  N   UNL     1      47.259   5.998  13.174  0.00  0.00    +0.000 NA
ATOM     12  H   UNL     1      47.037   9.041  12.530  0.00  0.00    +0.000 HD
BRANCH   9  13
ATOM     13  C   UNL     1      44.520   3.528  12.312  0.00  0.00    +0.000 C 
ATOM     14  N   UNL     1      44.838   2.835  11.178  0.00  0.00    +0.000 N 
ATOM     15  O   UNL     1      43.663   3.102  13.077  0.00  0.00    +0.000 OA
ATOM     16  H   UNL     1      45.534   3.086  10.494  0.00  0.00    +0.000 HD
ATOM     17  H   UNL     1      44.334   1.969  11.026  0.00  0.00    +0.000 HD
ENDBRANCH   9  13
ENDBRANCH   4   5
BRANCH   4  18
ATOM     18  C   UNL     1      48.756   8.116  15.268  0.00  0.00    +0.000 A 
ATOM     19  C   UNL     1      49.387   6.959  15.756  0.00  0.00    +0.000 A 
ATOM     20  C   UNL     1      49.441   6.686  17.126  0.00  0.00    +0.000 A 
ATOM     21  C   UNL     1      48.891   7.581  18.037  0.00  0.00    +0.000 A 
ATOM     22  F   UNL     1      48.984   7.300  19.343  0.00  0.00    +0.000 F 
ATOM     23  C   UNL     1      48.270   8.744  17.605  0.00  0.00    +0.000 A 
ATOM     24  C   UNL     1      48.189   8.984  16.223  0.00  0.00    +0.000 A 
BRANCH  23  25
ATOM     25  C   UNL     1      47.725   9.755  18.568  0.00  0.00    +0.000 C 
ATOM     26  F   UNL     1      48.611  10.208  19.496  0.00  0.00    +0.000 F 
ATOM     27  F   UNL     1      47.264  10.869  17.930  0.00  0.00    +0.000 F 
ATOM     28  F   UNL     1      46.663   9.276  19.276  0.00  0.00    +0.000 F 
ENDBRANCH  23  25
ENDBRANCH   4  18
TORSDOF 4
ENDMDL
MODEL 9
REMARK VINA RESULT:    -5.718      5.288      8.411
REMARK INTER + INTRA:          -7.900
REMARK INTER:                  -7.011
REMARK INTRA:                  -0.889
REMARK UNBOUND:                -0.845
REMARK  Name = 
REMARK  5 active torsions:
REMARK  status: ('A' for Active; 'I' for Inactive)
REMARK    1  A    between atoms: C_1  and  C_2
REMARK    2  A    between atoms: C_4  and  N_5
REMARK    3  A    between atoms: C_4  and  C_15
REMARK    4  A    between atoms: C_9  and  C_10
REMARK    5  A    between atoms: C_20  and  C_21
REMARK                            x       y       z     vdW  Elec       q    Type
REMARK                         _______ _______ _______ _____ _____    ______ ____
ROOT
ATOM      1  C   UNL     1      50.201   7.739  11.789  0.00  0.00    +0.000 C 
ATOM      2  C   UNL     1      49.988   8.357  13.123  0.00  0.00    +0.000 C 
ATOM      3  C   UNL     1      49.474   9.755  13.226  0.00  0.00    +0.000 C 
ATOM      4  C   UNL     1      48.645   8.607  13.815  0.00  0.00    +0.000 C 
ENDROOT
BRANCH   4   5
ATOM      5  N   UNL     1      47.286   8.498  13.238  0.00  0.00    +0.000 N 
ATOM      6  C   UNL     1      46.616   7.273  13.067  0.00  0.00    +0.000 A 
ATOM      7  C   UNL     1      45.261   7.293  12.723  0.00  0.00    +0.000 A 
ATOM      8  C   UNL     1      44.582   6.091  12.504  0.00  0.00    +0.000 A 
ATOM      9  C   UNL     1      45.268   4.882  12.639  0.00  0.00    +0.000 A 
ATOM     10  C   UNL     1      46.603   4.951  13.007  0.00  0.00    +0.000 A 
ATOM     11  N   UNL     1      47.265   6.112  13.252  0.00  0.00    +0.000 NA
ATOM     12  H   UNL     1      47.075   9.125  12.472  0.00  0.00    +0.000 HD
BRANCH   9  13
ATOM     13  C   UNL     1      44.568   3.604  12.368  0.00  0.00    +0.000 C 
ATOM     14  N   UNL     1      44.935   2.866  11.278  0.00  0.00    +0.000 N 
ATOM     15  O   UNL     1      43.678   3.207  13.111  0.00  0.00    +0.000 OA
ATOM     16  H   UNL     1      45.661   3.091  10.616  0.00  0.00    +0.000 HD
ATOM     17  H   UNL     1      44.439   1.993  11.139  0.00  0.00    +0.000 HD
ENDBRANCH   9  13
ENDBRANCH   4   5
BRANCH   4  18
ATOM     18  C   UNL     1      48.662   8.329  15.325  0.00  0.00    +0.000 A 
ATOM     19  C   UNL     1      48.122   9.206  16.282  0.00  0.00    +0.000 A 
ATOM     20  C   UNL     1      48.161   8.903  17.646  0.00  0.00    +0.000 A 
ATOM     21  C   UNL     1      48.714   7.703  18.078  0.00  0.00    +0.000 A 
ATOM     22  F   UNL     1      48.711   7.434  19.390  0.00  0.00    +0.000 F 
ATOM     23  C   UNL     1      49.247   6.797  17.171  0.00  0.00    +0.000 A 
ATOM     24  C   UNL     1      49.236   7.135  15.807  0.00  0.00    +0.000 A 
BRANCH  23  25
ATOM     25  C   UNL     1      49.792   5.471  17.605  0.00  0.00    +0.000 C 
ATOM     26  F   UNL     1      50.205   5.409  18.900  0.00  0.00    +0.000 F 
ATOM     27  F   UNL     1      48.872   4.474  17.469  0.00  0.00    +0.000 F 
ATOM     28  F   UNL     1      50.863   5.081  16.858  0.00  0.00    +0.000 F 
ENDBRANCH  23  25
ENDBRANCH   4  18
TORSDOF 4
ENDMDL
