MODEL 1
REMARK VINA RESULT:    -7.907      0.000      0.000
REMARK INTER + INTRA:         -13.684
REMARK INTER:                 -12.298
REMARK INTRA:                  -1.386
REMARK UNBOUND:                -1.386
REMARK  Name = 
REMARK  10 active torsions:
REMARK  status: ('A' for Active; 'I' for Inactive)
REMARK    1  A    between atoms: C_2  and  C_3
REMARK    2  A    between atoms: C_3  and  N_4
REMARK    3  A    between atoms: C_3  and  C_20
REMARK    4  A    between atoms: C_5  and  C_7
REMARK    5  A    between atoms: N_13  and  C_14
REMARK    6  A    between atoms: C_14  and  C_15
REMARK    7  A    between atoms: C_15  and  O_16
REMARK    8  A    between atoms: C_23  and  C_24
REMARK    9  A    between atoms: C_24  and  N_25
REMARK   10  A    between atoms: C_26  and  C_28
REMARK                            x       y       z     vdW  Elec       q    Type
REMARK                         _______ _______ _______ _____ _____    ______ ____
ROOT
ATOM      1  C   UNL     1      47.649   7.951  13.398  0.00  0.00    +0.000 C 
ENDROOT
BRANCH   1   2
ATOM      2  C   UNL     1      46.629   6.930  12.894  0.00  0.00    +0.000 A 
ATOM      3  C   UNL     1      46.703   5.597  13.328  0.00  0.00    +0.000 A 
ATOM      4  C   UNL     1      45.889   4.608  12.761  0.00  0.00    +0.000 A 
ATOM      5  C   UNL     1      44.994   4.924  11.730  0.00  0.00    +0.000 A 
ATOM      6  C   UNL     1      44.885   6.258  11.322  0.00  0.00    +0.000 A 
ATOM      7  C   UNL     1      45.698   7.248  11.888  0.00  0.00    +0.000 A 
BRANCH   5   8
ATOM      8  C   UNL     1      44.179   3.851  11.054  0.00  0.00    +0.000 C 
BRANCH   8   9
ATOM      9  N   UNL     1      44.976   3.030  10.181  0.00  0.00    +0.000 N 
ATOM     10  C   UNL     1      45.179   3.381   8.864  0.00  0.00    +0.000 C 
ATOM     11  O   UNL     1      44.718   4.406   8.372  0.00  0.00    +0.000 OA
ATOM     12  H   UNL     1      45.414   2.185  10.526  0.00  0.00    +0.000 HD
BRANCH  10  13
ATOM     13  C   UNL     1      45.988   2.428   8.125  0.00  0.00    +0.000 A 
ATOM     14  C   UNL     1      46.814   2.587   7.028  0.00  0.00    +0.000 A 
ATOM     15  C   UNL     1      47.334   1.308   6.717  0.00  0.00    +0.000 A 
ATOM     16  C   UNL     1      46.791   0.443   7.635  0.00  0.00    +0.000 A 
ATOM     17  O   UNL     1      45.980   1.106   8.496  0.00  0.00    +0.000 OA
ENDBRANCH  10  13
ENDBRANCH   8   9
ENDBRANCH   5   8
ENDBRANCH   1   2
BRANCH   1  18
ATOM     18  N   UNL     1      47.714   7.797  14.841  0.00  0.00    +0.000 N 
ATOM     19  C   UNL     1      48.284   8.716  15.678  0.00  0.00    +0.000 C 
ATOM     20  O   UNL     1      48.667   9.813  15.287  0.00  0.00    +0.000 OA
ATOM     21  H   UNL     1      47.616   6.846  15.170  0.00  0.00    +0.000 HD
BRANCH  19  22
ATOM     22  C   UNL     1      48.306   8.329  17.094  0.00  0.00    +0.000 A 
ATOM     23  C   UNL     1      47.870   9.205  18.078  0.00  0.00    +0.000 A 
ATOM     24  S   UNL     1      47.826   8.501  19.634  0.00  0.00    +0.000 S 
ATOM     25  C   UNL     1      48.442   7.025  19.049  0.00  0.00    +0.000 A 
ATOM     26  N   UNL     1      48.617   5.956  19.868  0.00  0.00    +0.000 NA
ATOM     27  C   UNL     1      49.100   4.905  19.287  0.00  0.00    +0.000 A 
ATOM     28  N   UNL     1      49.459   4.819  17.956  0.00  0.00    +0.000 N 
ATOM     29  C   UNL     1      49.314   5.902  17.100  0.00  0.00    +0.000 A 
ATOM     30  O   UNL     1      49.636   5.865  15.915  0.00  0.00    +0.000 OA
ATOM     31  C   UNL     1      48.713   7.080  17.699  0.00  0.00    +0.000 A 
BRANCH  28  32
ATOM     32  C   UNL     1      50.018   3.577  17.424  0.00  0.00    +0.000 C 
BRANCH  32  33
ATOM     33  C   UNL     1      48.933   2.574  17.028  0.00  0.00    +0.000 C 
BRANCH  33  34
ATOM     34  O   UNL     1      49.377   1.766  15.943  0.00  0.00    +0.000 OA
ATOM     35  H   UNL     1      48.665   1.747  15.280  0.00  0.00    +0.000 HD
ENDBRANCH  33  34
ENDBRANCH  32  33
ENDBRANCH  28  32
ENDBRANCH  19  22
ENDBRANCH   1  18
BRANCH   1  37
ATOM     36  N   UNL     1      50.052   7.651  12.326  0.00  0.00    +0.000 NA
ATOM     37  C   UNL     1      48.992   7.794  12.784  0.00  0.00    +0.000 C 
ENDBRANCH   1  37
TORSDOF 10
ENDMDL
MODEL 2
REMARK VINA RESULT:    -7.783      1.775      2.074
REMARK INTER + INTRA:         -13.492
REMARK INTER:                 -12.017
REMARK INTRA:                  -1.475
REMARK UNBOUND:                -1.386
REMARK  Name = 
REMARK  10 active torsions:
REMARK  status: ('A' for Active; 'I' for Inactive)
REMARK    1  A    between atoms: C_2  and  C_3
REMARK    2  A    between atoms: C_3  and  N_4
REMARK    3  A    between atoms: C_3  and  C_20
REMARK    4  A    between atoms: C_5  and  C_7
REMARK    5  A    between atoms: N_13  and  C_14
REMARK    6  A    between atoms: C_14  and  C_15
REMARK    7  A    between atoms: C_15  and  O_16
REMARK    8  A    between atoms: C_23  and  C_24
REMARK    9  A    between atoms: C_24  and  N_25
REMARK   10  A    between atoms: C_26  and  C_28
REMARK                            x       y       z     vdW  Elec       q    Type
REMARK                         _______ _______ _______ _____ _____    ______ ____
ROOT
ATOM      1  C   UNL     1      47.109   8.190  13.419  0.00  0.00    +0.000 C 
ENDROOT
BRANCH   1   2
ATOM      2  C   UNL     1      46.214   7.030  12.983  0.00  0.00    +0.000 A 
ATOM      3  C   UNL     1      46.594   5.709  13.272  0.00  0.00    +0.000 A 
ATOM      4  C   UNL     1      45.883   4.623  12.746  0.00  0.00    +0.000 A 
ATOM      5  C   UNL     1      44.785   4.830  11.900  0.00  0.00    +0.000 A 
ATOM      6  C   UNL     1      44.376   6.143  11.642  0.00  0.00    +0.000 A 
ATOM      7  C   UNL     1      45.085   7.230  12.167  0.00  0.00    +0.000 A 
BRANCH   5   8
ATOM      8  C   UNL     1      44.070   3.668  11.259  0.00  0.00    +0.000 C 
BRANCH   8   9
ATOM      9  N   UNL     1      44.923   2.927  10.368  0.00  0.00    +0.000 N 
ATOM     10  C   UNL     1      44.999   3.243   9.029  0.00  0.00    +0.000 C 
ATOM     11  O   UNL     1      44.371   4.171   8.529  0.00  0.00    +0.000 OA
ATOM     12  H   UNL     1      45.494   2.167  10.716  0.00  0.00    +0.000 HD
BRANCH  10  13
ATOM     13  C   UNL     1      45.891   2.379   8.277  0.00  0.00    +0.000 A 
ATOM     14  C   UNL     1      46.821   2.659   7.293  0.00  0.00    +0.000 A 
ATOM     15  C   UNL     1      47.386   1.422   6.898  0.00  0.00    +0.000 A 
ATOM     16  C   UNL     1      46.764   0.460   7.656  0.00  0.00    +0.000 A 
ATOM     17  O   UNL     1      45.862   1.023   8.497  0.00  0.00    +0.000 OA
ENDBRANCH  10  13
ENDBRANCH   8   9
ENDBRANCH   5   8
ENDBRANCH   1   2
BRANCH   1  18
ATOM     18  N   UNL     1      48.264   7.602  14.074  0.00  0.00    +0.000 N 
ATOM     19  C   UNL     1      48.887   8.157  15.157  0.00  0.00    +0.000 C 
ATOM     20  O   UNL     1      48.433   9.130  15.749  0.00  0.00    +0.000 OA
ATOM     21  H   UNL     1      48.784   6.947  13.506  0.00  0.00    +0.000 HD
BRANCH  19  22
ATOM     22  C   UNL     1      50.079   7.435  15.619  0.00  0.00    +0.000 A 
ATOM     23  C   UNL     1      51.351   7.861  15.265  0.00  0.00    +0.000 A 
ATOM     24  S   UNL     1      52.595   6.981  16.038  0.00  0.00    +0.000 S 
ATOM     25  C   UNL     1      51.473   5.969  16.823  0.00  0.00    +0.000 A 
ATOM     26  N   UNL     1      51.875   5.001  17.686  0.00  0.00    +0.000 NA
ATOM     27  C   UNL     1      50.913   4.305  18.201  0.00  0.00    +0.000 A 
ATOM     28  N   UNL     1      49.569   4.459  17.917  0.00  0.00    +0.000 N 
ATOM     29  C   UNL     1      49.130   5.425  17.022  0.00  0.00    +0.000 A 
ATOM     30  O   UNL     1      47.946   5.581  16.735  0.00  0.00    +0.000 OA
ATOM     31  C   UNL     1      50.174   6.271  16.472  0.00  0.00    +0.000 A 
BRANCH  28  32
ATOM     32  C   UNL     1      48.579   3.591  18.550  0.00  0.00    +0.000 C 
BRANCH  32  33
ATOM     33  C   UNL     1      47.889   2.667  17.545  0.00  0.00    +0.000 C 
BRANCH  33  34
ATOM     34  O   UNL     1      46.504   2.987  17.449  0.00  0.00    +0.000 OA
ATOM     35  H   UNL     1      46.014   2.150  17.366  0.00  0.00    +0.000 HD
ENDBRANCH  33  34
ENDBRANCH  32  33
ENDBRANCH  28  32
ENDBRANCH  19  22
ENDBRANCH   1  18
BRANCH   1  37
ATOM     36  N   UNL     1      47.822   9.750  11.400  0.00  0.00    +0.000 NA
ATOM     37  C   UNL     1      47.523   9.069  12.295  0.00  0.00    +0.000 C 
ENDBRANCH   1  37
TORSDOF 10
ENDMDL
MODEL 3
REMARK VINA RESULT:    -7.556      2.113      4.597
REMARK INTER + INTRA:         -13.139
REMARK INTER:                 -11.593
REMARK INTRA:                  -1.546
REMARK UNBOUND:                -1.386
REMARK  Name = 
REMARK  10 active torsions:
REMARK  status: ('A' for Active; 'I' for Inactive)
REMARK    1  A    between atoms: C_2  and  C_3
REMARK    2  A    between atoms: C_3  and  N_4
REMARK    3  A    between atoms: C_3  and  C_20
REMARK    4  A    between atoms: C_5  and  C_7
REMARK    5  A    between atoms: N_13  and  C_14
REMARK    6  A    between atoms: C_14  and  C_15
REMARK    7  A    between atoms: C_15  and  O_16
REMARK    8  A    between atoms: C_23  and  C_24
REMARK    9  A    between atoms: C_24  and  N_25
REMARK   10  A    between atoms: C_26  and  C_28
REMARK                            x       y       z     vdW  Elec       q    Type
REMARK                         _______ _______ _______ _____ _____    ______ ____
ROOT
ATOM      1  C   UNL     1      47.507   4.575  15.127  0.00  0.00    +0.000 C 
ENDROOT
BRANCH   1   2
ATOM      2  C   UNL     1      46.483   4.543  13.992  0.00  0.00    +0.000 A 
ATOM      3  C   UNL     1      46.223   3.337  13.323  0.00  0.00    +0.000 A 
ATOM      4  C   UNL     1      45.416   3.308  12.178  0.00  0.00    +0.000 A 
ATOM      5  C   UNL     1      44.866   4.489  11.662  0.00  0.00    +0.000 A 
ATOM      6  C   UNL     1      45.087   5.688  12.349  0.00  0.00    +0.000 A 
ATOM      7  C   UNL     1      45.893   5.719  13.493  0.00  0.00    +0.000 A 
BRANCH   5   8
ATOM      8  C   UNL     1      44.071   4.480  10.381  0.00  0.00    +0.000 C 
BRANCH   8   9
ATOM      9  N   UNL     1      44.717   3.721   9.343  0.00  0.00    +0.000 N 
ATOM     10  C   UNL     1      45.719   4.274   8.576  0.00  0.00    +0.000 C 
ATOM     11  O   UNL     1      46.126   5.420   8.742  0.00  0.00    +0.000 OA
ATOM     12  H   UNL     1      44.455   2.758   9.169  0.00  0.00    +0.000 HD
BRANCH  10  13
ATOM     13  C   UNL     1      46.242   3.375   7.564  0.00  0.00    +0.000 A 
ATOM     14  C   UNL     1      46.573   2.033   7.616  0.00  0.00    +0.000 A 
ATOM     15  C   UNL     1      47.058   1.680   6.333  0.00  0.00    +0.000 A 
ATOM     16  C   UNL     1      47.001   2.825   5.576  0.00  0.00    +0.000 A 
ATOM     17  O   UNL     1      46.506   3.856   6.305  0.00  0.00    +0.000 OA
ENDBRANCH  10  13
ENDBRANCH   8   9
ENDBRANCH   5   8
ENDBRANCH   1   2
BRANCH   1  18
ATOM     18  N   UNL     1      47.750   5.975  15.432  0.00  0.00    +0.000 N 
ATOM     19  C   UNL     1      48.904   6.440  15.997  0.00  0.00    +0.000 C 
ATOM     20  O   UNL     1      49.886   5.727  16.169  0.00  0.00    +0.000 OA
ATOM     21  H   UNL     1      46.915   6.541  15.510  0.00  0.00    +0.000 HD
BRANCH  19  22
ATOM     22  C   UNL     1      48.912   7.880  16.285  0.00  0.00    +0.000 A 
ATOM     23  C   UNL     1      49.070   8.346  17.582  0.00  0.00    +0.000 A 
ATOM     24  S   UNL     1      49.213  10.046  17.673  0.00  0.00    +0.000 S 
ATOM     25  C   UNL     1      49.010  10.214  15.991  0.00  0.00    +0.000 A 
ATOM     26  N   UNL     1      49.068  11.428  15.388  0.00  0.00    +0.000 NA
ATOM     27  C   UNL     1      48.888  11.403  14.106  0.00  0.00    +0.000 A 
ATOM     28  N   UNL     1      48.624  10.274  13.355  0.00  0.00    +0.000 N 
ATOM     29  C   UNL     1      48.538   9.021  13.947  0.00  0.00    +0.000 A 
ATOM     30  O   UNL     1      48.291   7.998  13.313  0.00  0.00    +0.000 OA
ATOM     31  C   UNL     1      48.799   8.998  15.375  0.00  0.00    +0.000 A 
BRANCH  28  32
ATOM     32  C   UNL     1      48.417  10.381  11.912  0.00  0.00    +0.000 C 
BRANCH  32  33
ATOM     33  C   UNL     1      47.174  11.201  11.563  0.00  0.00    +0.000 C 
BRANCH  33  34
ATOM     34  O   UNL     1      46.042  10.711  12.276  0.00  0.00    +0.000 OA
ATOM     35  H   UNL     1      45.318  11.349  12.151  0.00  0.00    +0.000 HD
ENDBRANCH  33  34
ENDBRANCH  32  33
ENDBRANCH  28  32
ENDBRANCH  19  22
ENDBRANCH   1  18
BRANCH   1  37
ATOM     36  N   UNL     1      46.696   3.258  17.277  0.00  0.00    +0.000 NA
ATOM     37  C   UNL     1      47.069   3.835  16.338  0.00  0.00    +0.000 C 
ENDBRANCH   1  37
TORSDOF 10
ENDMDL
MODEL 4
REMARK VINA RESULT:    -6.645      2.031      2.507
REMARK INTER + INTRA:         -11.722
REMARK INTER:                 -11.073
REMARK INTRA:                  -0.649
REMARK UNBOUND:                -1.386
REMARK  Name = 
REMARK  10 active torsions:
REMARK  status: ('A' for Active; 'I' for Inactive)
REMARK    1  A    between atoms: C_2  and  C_3
REMARK    2  A    between atoms: C_3  and  N_4
REMARK    3  A    between atoms: C_3  and  C_20
REMARK    4  A    between atoms: C_5  and  C_7
REMARK    5  A    between atoms: N_13  and  C_14
REMARK    6  A    between atoms: C_14  and  C_15
REMARK    7  A    between atoms: C_15  and  O_16
REMARK    8  A    between atoms: C_23  and  C_24
REMARK    9  A    between atoms: C_24  and  N_25
REMARK   10  A    between atoms: C_26  and  C_28
REMARK                            x       y       z     vdW  Elec       q    Type
REMARK                         _______ _______ _______ _____ _____    ______ ____
ROOT
ATOM      1  C   UNL     1      45.812   8.283  13.242  0.00  0.00    +0.000 C 
ENDROOT
BRANCH   1   2
ATOM      2  C   UNL     1      45.596   6.935  12.553  0.00  0.00    +0.000 A 
ATOM      3  C   UNL     1      45.631   6.856  11.151  0.00  0.00    +0.000 A 
ATOM      4  C   UNL     1      45.277   5.674  10.488  0.00  0.00    +0.000 A 
ATOM      5  C   UNL     1      44.859   4.548  11.209  0.00  0.00    +0.000 A 
ATOM      6  C   UNL     1      44.863   4.607  12.607  0.00  0.00    +0.000 A 
ATOM      7  C   UNL     1      45.217   5.787  13.272  0.00  0.00    +0.000 A 
BRANCH   5   8
ATOM      8  C   UNL     1      44.392   3.302  10.500  0.00  0.00    +0.000 C 
BRANCH   8   9
ATOM      9  N   UNL     1      45.327   2.859   9.500  0.00  0.00    +0.000 N 
ATOM     10  C   UNL     1      45.219   3.274   8.191  0.00  0.00    +0.000 C 
ATOM     11  O   UNL     1      44.345   4.047   7.810  0.00  0.00    +0.000 OA
ATOM     12  H   UNL     1      46.093   2.245   9.747  0.00  0.00    +0.000 HD
BRANCH  10  13
ATOM     13  C   UNL     1      46.232   2.713   7.316  0.00  0.00    +0.000 A 
ATOM     14  C   UNL     1      47.039   1.598   7.449  0.00  0.00    +0.000 A 
ATOM     15  C   UNL     1      47.859   1.545   6.296  0.00  0.00    +0.000 A 
ATOM     16  C   UNL     1      47.511   2.631   5.531  0.00  0.00    +0.000 A 
ATOM     17  O   UNL     1      46.526   3.344   6.132  0.00  0.00    +0.000 OA
ENDBRANCH  10  13
ENDBRANCH   8   9
ENDBRANCH   5   8
ENDBRANCH   1   2
BRANCH   1  18
ATOM     18  N   UNL     1      47.036   8.166  14.015  0.00  0.00    +0.000 N 
ATOM     19  C   UNL     1      48.273   8.004  13.458  0.00  0.00    +0.000 C 
ATOM     20  O   UNL     1      48.465   8.083  12.250  0.00  0.00    +0.000 OA
ATOM     21  H   UNL     1      46.903   7.883  14.977  0.00  0.00    +0.000 HD
BRANCH  19  22
ATOM     22  C   UNL     1      49.367   7.836  14.423  0.00  0.00    +0.000 A 
ATOM     23  C   UNL     1      50.454   8.697  14.425  0.00  0.00    +0.000 A 
ATOM     24  S   UNL     1      51.526   8.425  15.727  0.00  0.00    +0.000 S 
ATOM     25  C   UNL     1      50.600   7.113  16.294  0.00  0.00    +0.000 A 
ATOM     26  N   UNL     1      50.942   6.439  17.421  0.00  0.00    +0.000 NA
ATOM     27  C   UNL     1      50.151   5.461  17.726  0.00  0.00    +0.000 A 
ATOM     28  N   UNL     1      49.050   5.062  16.993  0.00  0.00    +0.000 N 
ATOM     29  C   UNL     1      48.689   5.717  15.823  0.00  0.00    +0.000 A 
ATOM     30  O   UNL     1      47.726   5.380  15.139  0.00  0.00    +0.000 OA
ATOM     31  C   UNL     1      49.514   6.862  15.483  0.00  0.00    +0.000 A 
BRANCH  28  32
ATOM     32  C   UNL     1      48.247   3.922  17.432  0.00  0.00    +0.000 C 
BRANCH  32  33
ATOM     33  C   UNL     1      48.737   2.602  16.836  0.00  0.00    +0.000 C 
BRANCH  33  34
ATOM     34  O   UNL     1      48.376   2.515  15.461  0.00  0.00    +0.000 OA
ATOM     35  H   UNL     1      47.729   3.220  15.282  0.00  0.00    +0.000 HD
ENDBRANCH  33  34
ENDBRANCH  32  33
ENDBRANCH  28  32
ENDBRANCH  19  22
ENDBRANCH   1  18
BRANCH   1  37
ATOM     36  N   UNL     1      45.921  10.329  11.564  0.00  0.00    +0.000 NA
ATOM     37  C   UNL     1      45.887   9.424  12.294  0.00  0.00    +0.000 C 
ENDBRANCH   1  37
TORSDOF 10
ENDMDL
MODEL 5
REMARK VINA RESULT:    -6.488      3.195      7.842
REMARK INTER + INTRA:         -11.478
REMARK INTER:                  -9.952
REMARK INTRA:                  -1.526
REMARK UNBOUND:                -1.386
REMARK  Name = 
REMARK  10 active torsions:
REMARK  status: ('A' for Active; 'I' for Inactive)
REMARK    1  A    between atoms: C_2  and  C_3
REMARK    2  A    between atoms: C_3  and  N_4
REMARK    3  A    between atoms: C_3  and  C_20
REMARK    4  A    between atoms: C_5  and  C_7
REMARK    5  A    between atoms: N_13  and  C_14
REMARK    6  A    between atoms: C_14  and  C_15
REMARK    7  A    between atoms: C_15  and  O_16
REMARK    8  A    between atoms: C_23  and  C_24
REMARK    9  A    between atoms: C_24  and  N_25
REMARK   10  A    between atoms: C_26  and  C_28
REMARK                            x       y       z     vdW  Elec       q    Type
REMARK                         _______ _______ _______ _____ _____    ______ ____
ROOT
ATOM      1  C   UNL     1      48.601   9.099  15.820  0.00  0.00    +0.000 C 
ENDROOT
BRANCH   1   2
ATOM      2  C   UNL     1      48.786   7.744  16.504  0.00  0.00    +0.000 A 
ATOM      3  C   UNL     1      49.373   6.682  15.797  0.00  0.00    +0.000 A 
ATOM      4  C   UNL     1      49.407   5.389  16.336  0.00  0.00    +0.000 A 
ATOM      5  C   UNL     1      48.835   5.123  17.588  0.00  0.00    +0.000 A 
ATOM      6  C   UNL     1      48.287   6.185  18.315  0.00  0.00    +0.000 A 
ATOM      7  C   UNL     1      48.252   7.478  17.778  0.00  0.00    +0.000 A 
BRANCH   5   8
ATOM      8  C   UNL     1      48.788   3.719  18.136  0.00  0.00    +0.000 C 
BRANCH   8   9
ATOM      9  N   UNL     1      50.100   3.146  18.284  0.00  0.00    +0.000 N 
ATOM     10  C   UNL     1      50.581   2.226  17.378  0.00  0.00    +0.000 C 
ATOM     11  O   UNL     1      49.939   1.861  16.399  0.00  0.00    +0.000 OA
ATOM     12  H   UNL     1      50.700   3.423  19.051  0.00  0.00    +0.000 HD
BRANCH  10  13
ATOM     13  C   UNL     1      51.911   1.738  17.694  0.00  0.00    +0.000 A 
ATOM     14  C   UNL     1      53.129   2.389  17.775  0.00  0.00    +0.000 A 
ATOM     15  C   UNL     1      54.097   1.409  18.099  0.00  0.00    +0.000 A 
ATOM     16  C   UNL     1      53.419   0.218  18.190  0.00  0.00    +0.000 A 
ATOM     17  O   UNL     1      52.096   0.402  17.953  0.00  0.00    +0.000 OA
ENDBRANCH  10  13
ENDBRANCH   8   9
ENDBRANCH   5   8
ENDBRANCH   1   2
BRANCH   1  18
ATOM     18  N   UNL     1      47.497   8.949  14.888  0.00  0.00    +0.000 N 
ATOM     19  C   UNL     1      47.639   8.989  13.529  0.00  0.00    +0.000 C 
ATOM     20  O   UNL     1      48.736   9.019  12.984  0.00  0.00    +0.000 OA
ATOM     21  H   UNL     1      46.584   9.139  15.280  0.00  0.00    +0.000 HD
BRANCH  19  22
ATOM     22  C   UNL     1      46.383   8.887  12.775  0.00  0.00    +0.000 A 
ATOM     23  C   UNL     1      45.802  10.010  12.205  0.00  0.00    +0.000 A 
ATOM     24  S   UNL     1      44.440   9.646  11.239  0.00  0.00    +0.000 S 
ATOM     25  C   UNL     1      44.553   7.986  11.601  0.00  0.00    +0.000 A 
ATOM     26  N   UNL     1      43.698   7.083  11.056  0.00  0.00    +0.000 NA
ATOM     27  C   UNL     1      43.898   5.860  11.427  0.00  0.00    +0.000 A 
ATOM     28  N   UNL     1      44.862   5.440  12.324  0.00  0.00    +0.000 N 
ATOM     29  C   UNL     1      45.736   6.344  12.914  0.00  0.00    +0.000 A 
ATOM     30  O   UNL     1      46.595   6.009  13.725  0.00  0.00    +0.000 OA
ATOM     31  C   UNL     1      45.587   7.719  12.473  0.00  0.00    +0.000 A 
BRANCH  28  32
ATOM     32  C   UNL     1      44.972   4.027  12.680  0.00  0.00    +0.000 C 
BRANCH  32  33
ATOM     33  C   UNL     1      44.154   3.129  11.751  0.00  0.00    +0.000 C 
BRANCH  33  34
ATOM     34  O   UNL     1      43.444   2.151  12.506  0.00  0.00    +0.000 OA
ATOM     35  H   UNL     1      43.796   2.169  13.413  0.00  0.00    +0.000 HD
ENDBRANCH  33  34
ENDBRANCH  32  33
ENDBRANCH  28  32
ENDBRANCH  19  22
ENDBRANCH   1  18
BRANCH   1  37
ATOM     36  N   UNL     1      48.169  11.067  17.539  0.00  0.00    +0.000 NA
ATOM     37  C   UNL     1      48.347  10.210  16.773  0.00  0.00    +0.000 C 
ENDBRANCH   1  37
TORSDOF 10
ENDMDL
MODEL 6
REMARK VINA RESULT:    -6.486      2.211      3.409
REMARK INTER + INTRA:         -11.475
REMARK INTER:                 -10.044
REMARK INTRA:                  -1.431
REMARK UNBOUND:                -1.386
REMARK  Name = 
REMARK  10 active torsions:
REMARK  status: ('A' for Active; 'I' for Inactive)
REMARK    1  A    between atoms: C_2  and  C_3
REMARK    2  A    between atoms: C_3  and  N_4
REMARK    3  A    between atoms: C_3  and  C_20
REMARK    4  A    between atoms: C_5  and  C_7
REMARK    5  A    between atoms: N_13  and  C_14
REMARK    6  A    between atoms: C_14  and  C_15
REMARK    7  A    between atoms: C_15  and  O_16
REMARK    8  A    between atoms: C_23  and  C_24
REMARK    9  A    between atoms: C_24  and  N_25
REMARK   10  A    between atoms: C_26  and  C_28
REMARK                            x       y       z     vdW  Elec       q    Type
REMARK                         _______ _______ _______ _____ _____    ______ ____
ROOT
ATOM      1  C   UNL     1      47.717   5.010  14.993  0.00  0.00    +0.000 C 
ENDROOT
BRANCH   1   2
ATOM      2  C   UNL     1      46.734   5.116  13.826  0.00  0.00    +0.000 A 
ATOM      3  C   UNL     1      45.877   4.042  13.538  0.00  0.00    +0.000 A 
ATOM      4  C   UNL     1      45.084   4.043  12.383  0.00  0.00    +0.000 A 
ATOM      5  C   UNL     1      45.146   5.110  11.476  0.00  0.00    +0.000 A 
ATOM      6  C   UNL     1      45.966   6.202  11.779  0.00  0.00    +0.000 A 
ATOM      7  C   UNL     1      46.759   6.203  12.933  0.00  0.00    +0.000 A 
BRANCH   5   8
ATOM      8  C   UNL     1      44.364   5.078  10.187  0.00  0.00    +0.000 C 
BRANCH   8   9
ATOM      9  N   UNL     1      45.135   4.546   9.094  0.00  0.00    +0.000 N 
ATOM     10  C   UNL     1      45.152   3.194   8.828  0.00  0.00    +0.000 C 
ATOM     11  O   UNL     1      44.508   2.380   9.482  0.00  0.00    +0.000 OA
ATOM     12  H   UNL     1      45.668   5.161   8.492  0.00  0.00    +0.000 HD
BRANCH  10  13
ATOM     13  C   UNL     1      45.998   2.832   7.705  0.00  0.00    +0.000 A 
ATOM     14  C   UNL     1      46.722   1.685   7.438  0.00  0.00    +0.000 A 
ATOM     15  C   UNL     1      47.383   1.894   6.203  0.00  0.00    +0.000 A 
ATOM     16  C   UNL     1      47.030   3.157   5.792  0.00  0.00    +0.000 A 
ATOM     17  O   UNL     1      46.190   3.734   6.687  0.00  0.00    +0.000 OA
ENDBRANCH  10  13
ENDBRANCH   8   9
ENDBRANCH   5   8
ENDBRANCH   1   2
BRANCH   1  18
ATOM     18  N   UNL     1      47.922   6.360  15.490  0.00  0.00    +0.000 N 
ATOM     19  C   UNL     1      49.090   7.054  15.341  0.00  0.00    +0.000 C 
ATOM     20  O   UNL     1      50.017   6.642  14.653  0.00  0.00    +0.000 OA
ATOM     21  H   UNL     1      47.288   6.639  16.226  0.00  0.00    +0.000 HD
BRANCH  19  22
ATOM     22  C   UNL     1      49.107   8.376  15.981  0.00  0.00    +0.000 A 
ATOM     23  C   UNL     1      49.215   9.532  15.224  0.00  0.00    +0.000 A 
ATOM     24  S   UNL     1      49.051  10.960  16.148  0.00  0.00    +0.000 S 
ATOM     25  C   UNL     1      48.888  10.077  17.594  0.00  0.00    +0.000 A 
ATOM     26  N   UNL     1      48.673  10.697  18.782  0.00  0.00    +0.000 NA
ATOM     27  C   UNL     1      48.577   9.899  19.797  0.00  0.00    +0.000 A 
ATOM     28  N   UNL     1      48.704   8.524  19.751  0.00  0.00    +0.000 N 
ATOM     29  C   UNL     1      48.947   7.864  18.554  0.00  0.00    +0.000 A 
ATOM     30  O   UNL     1      49.079   6.645  18.479  0.00  0.00    +0.000 OA
ATOM     31  C   UNL     1      48.995   8.719  17.382  0.00  0.00    +0.000 A 
BRANCH  28  32
ATOM     32  C   UNL     1      48.598   7.734  20.976  0.00  0.00    +0.000 C 
BRANCH  32  33
ATOM     33  C   UNL     1      47.217   7.097  21.139  0.00  0.00    +0.000 C 
BRANCH  33  34
ATOM     34  O   UNL     1      47.238   5.747  20.683  0.00  0.00    +0.000 OA
ATOM     35  H   UNL     1      47.875   5.695  19.949  0.00  0.00    +0.000 HD
ENDBRANCH  33  34
ENDBRANCH  32  33
ENDBRANCH  28  32
ENDBRANCH  19  22
ENDBRANCH   1  18
BRANCH   1  37
ATOM     36  N   UNL     1      46.885   3.425  16.945  0.00  0.00    +0.000 NA
ATOM     37  C   UNL     1      47.250   4.108  16.076  0.00  0.00    +0.000 C 
ENDBRANCH   1  37
TORSDOF 10
ENDMDL
MODEL 7
REMARK VINA RESULT:    -5.921      3.885      9.252
REMARK INTER + INTRA:         -10.595
REMARK INTER:                 -10.359
REMARK INTRA:                  -0.236
REMARK UNBOUND:                -1.386
REMARK  Name = 
REMARK  10 active torsions:
REMARK  status: ('A' for Active; 'I' for Inactive)
REMARK    1  A    between atoms: C_2  and  C_3
REMARK    2  A    between atoms: C_3  and  N_4
REMARK    3  A    between atoms: C_3  and  C_20
REMARK    4  A    between atoms: C_5  and  C_7
REMARK    5  A    between atoms: N_13  and  C_14
REMARK    6  A    between atoms: C_14  and  C_15
REMARK    7  A    between atoms: C_15  and  O_16
REMARK    8  A    between atoms: C_23  and  C_24
REMARK    9  A    between atoms: C_24  and  N_25
REMARK   10  A    between atoms: C_26  and  C_28
REMARK                            x       y       z     vdW  Elec       q    Type
REMARK                         _______ _______ _______ _____ _____    ______ ____
ROOT
ATOM      1  C   UNL     1      47.866   4.739  17.625  0.00  0.00    +0.000 C 
ENDROOT
BRANCH   1   2
ATOM      2  C   UNL     1      49.369   4.508  17.791  0.00  0.00    +0.000 A 
ATOM      3  C   UNL     1      50.240   5.608  17.847  0.00  0.00    +0.000 A 
ATOM      4  C   UNL     1      51.629   5.428  17.834  0.00  0.00    +0.000 A 
ATOM      5  C   UNL     1      52.181   4.143  17.743  0.00  0.00    +0.000 A 
ATOM      6  C   UNL     1      51.319   3.041  17.730  0.00  0.00    +0.000 A 
ATOM      7  C   UNL     1      49.930   3.219  17.743  0.00  0.00    +0.000 A 
BRANCH   5   8
ATOM      8  C   UNL     1      53.673   3.945  17.639  0.00  0.00    +0.000 C 
BRANCH   8   9
ATOM      9  N   UNL     1      54.037   2.554  17.591  0.00  0.00    +0.000 N 
ATOM     10  C   UNL     1      54.290   1.845  18.745  0.00  0.00    +0.000 C 
ATOM     11  O   UNL     1      54.202   2.344  19.863  0.00  0.00    +0.000 OA
ATOM     12  H   UNL     1      54.099   2.068  16.705  0.00  0.00    +0.000 HD
BRANCH  10  13
ATOM     13  C   UNL     1      54.664   0.462  18.510  0.00  0.00    +0.000 A 
ATOM     14  C   UNL     1      55.738  -0.092  17.839  0.00  0.00    +0.000 A 
ATOM     15  C   UNL     1      55.583  -1.498  17.906  0.00  0.00    +0.000 A 
ATOM     16  C   UNL     1      54.422  -1.720  18.605  0.00  0.00    +0.000 A 
ATOM     17  O   UNL     1      53.858  -0.545  18.981  0.00  0.00    +0.000 OA
ENDBRANCH  10  13
ENDBRANCH   8   9
ENDBRANCH   5   8
ENDBRANCH   1   2
BRANCH   1  18
ATOM     18  N   UNL     1      47.684   5.401  16.345  0.00  0.00    +0.000 N 
ATOM     19  C   UNL     1      47.640   4.741  15.149  0.00  0.00    +0.000 C 
ATOM     20  O   UNL     1      47.614   3.518  15.073  0.00  0.00    +0.000 OA
ATOM     21  H   UNL     1      47.917   6.385  16.341  0.00  0.00    +0.000 HD
BRANCH  19  22
ATOM     22  C   UNL     1      47.520   5.609  13.970  0.00  0.00    +0.000 A 
ATOM     23  C   UNL     1      48.470   6.583  13.704  0.00  0.00    +0.000 A 
ATOM     24  S   UNL     1      48.229   7.366  12.205  0.00  0.00    +0.000 S 
ATOM     25  C   UNL     1      46.815   6.470  11.895  0.00  0.00    +0.000 A 
ATOM     26  N   UNL     1      46.119   6.621  10.740  0.00  0.00    +0.000 NA
ATOM     27  C   UNL     1      45.062   5.880  10.647  0.00  0.00    +0.000 A 
ATOM     28  N   UNL     1      44.605   5.008  11.617  0.00  0.00    +0.000 N 
ATOM     29  C   UNL     1      45.283   4.849  12.817  0.00  0.00    +0.000 A 
ATOM     30  O   UNL     1      44.898   4.094  13.707  0.00  0.00    +0.000 OA
ATOM     31  C   UNL     1      46.511   5.614  12.934  0.00  0.00    +0.000 A 
BRANCH  28  32
ATOM     32  C   UNL     1      43.380   4.241  11.399  0.00  0.00    +0.000 C 
BRANCH  32  33
ATOM     33  C   UNL     1      43.664   2.790  11.009  0.00  0.00    +0.000 C 
BRANCH  33  34
ATOM     34  O   UNL     1      43.341   1.915  12.086  0.00  0.00    +0.000 OA
ATOM     35  H   UNL     1      42.412   1.646  11.977  0.00  0.00    +0.000 HD
ENDBRANCH  33  34
ENDBRANCH  32  33
ENDBRANCH  28  32
ENDBRANCH  19  22
ENDBRANCH   1  18
BRANCH   1  37
ATOM     36  N   UNL     1      46.454   2.501  17.728  0.00  0.00    +0.000 NA
ATOM     37  C   UNL     1      47.067   3.489  17.697  0.00  0.00    +0.000 C 
ENDBRANCH   1  37
TORSDOF 10
ENDMDL
MODEL 8
REMARK VINA RESULT:    -5.727      3.415      4.925
REMARK INTER + INTRA:         -10.295
REMARK INTER:                  -9.021
REMARK INTRA:                  -1.273
REMARK UNBOUND:                -1.386
REMARK  Name = 
REMARK  10 active torsions:
REMARK  status: ('A' for Active; 'I' for Inactive)
REMARK    1  A    between atoms: C_2  and  C_3
REMARK    2  A    between atoms: C_3  and  N_4
REMARK    3  A    between atoms: C_3  and  C_20
REMARK    4  A    between atoms: C_5  and  C_7
REMARK    5  A    between atoms: N_13  and  C_14
REMARK    6  A    between atoms: C_14  and  C_15
REMARK    7  A    between atoms: C_15  and  O_16
REMARK    8  A    between atoms: C_23  and  C_24
REMARK    9  A    between atoms: C_24  and  N_25
REMARK   10  A    between atoms: C_26  and  C_28
REMARK                            x       y       z     vdW  Elec       q    Type
REMARK                         _______ _______ _______ _____ _____    ______ ____
ROOT
ATOM      1  C   UNL     1      46.103   8.505  13.266  0.00  0.00    +0.000 C 
ENDROOT
BRANCH   1   2
ATOM      2  C   UNL     1      45.938   7.130  12.619  0.00  0.00    +0.000 A 
ATOM      3  C   UNL     1      45.808   7.027  11.225  0.00  0.00    +0.000 A 
ATOM      4  C   UNL     1      45.493   5.804  10.619  0.00  0.00    +0.000 A 
ATOM      5  C   UNL     1      45.280   4.657  11.396  0.00  0.00    +0.000 A 
ATOM      6  C   UNL     1      45.449   4.743  12.782  0.00  0.00    +0.000 A 
ATOM      7  C   UNL     1      45.764   5.965  13.389  0.00  0.00    +0.000 A 
BRANCH   5   8
ATOM      8  C   UNL     1      44.853   3.358  10.760  0.00  0.00    +0.000 C 
BRANCH   8   9
ATOM      9  N   UNL     1      45.688   2.995   9.645  0.00  0.00    +0.000 N 
ATOM     10  C   UNL     1      45.324   3.305   8.353  0.00  0.00    +0.000 C 
ATOM     11  O   UNL     1      44.294   3.914   8.082  0.00  0.00    +0.000 OA
ATOM     12  H   UNL     1      46.568   2.518   9.795  0.00  0.00    +0.000 HD
BRANCH  10  13
ATOM     13  C   UNL     1      46.272   2.845   7.355  0.00  0.00    +0.000 A 
ATOM     14  C   UNL     1      46.552   3.303   6.080  0.00  0.00    +0.000 A 
ATOM     15  C   UNL     1      47.557   2.457   5.552  0.00  0.00    +0.000 A 
ATOM     16  C   UNL     1      47.827   1.530   6.529  0.00  0.00    +0.000 A 
ATOM     17  O   UNL     1      47.063   1.755   7.626  0.00  0.00    +0.000 OA
ENDBRANCH  10  13
ENDBRANCH   8   9
ENDBRANCH   5   8
ENDBRANCH   1   2
BRANCH   1  18
ATOM     18  N   UNL     1      47.528   8.790  13.284  0.00  0.00    +0.000 N 
ATOM     19  C   UNL     1      48.373   8.372  14.273  0.00  0.00    +0.000 C 
ATOM     20  O   UNL     1      48.019   7.604  15.160  0.00  0.00    +0.000 OA
ATOM     21  H   UNL     1      47.808   9.577  12.713  0.00  0.00    +0.000 HD
BRANCH  19  22
ATOM     22  C   UNL     1      49.761   8.831  14.131  0.00  0.00    +0.000 A 
ATOM     23  C   UNL     1      50.378   9.558  15.138  0.00  0.00    +0.000 A 
ATOM     24  S   UNL     1      52.035   9.848  14.841  0.00  0.00    +0.000 S 
ATOM     25  C   UNL     1      51.964   9.063  13.332  0.00  0.00    +0.000 A 
ATOM     26  N   UNL     1      53.068   8.917  12.556  0.00  0.00    +0.000 NA
ATOM     27  C   UNL     1      52.862   8.306  11.434  0.00  0.00    +0.000 A 
ATOM     28  N   UNL     1      51.640   7.843  10.985  0.00  0.00    +0.000 N 
ATOM     29  C   UNL     1      50.489   7.998  11.746  0.00  0.00    +0.000 A 
ATOM     30  O   UNL     1      49.384   7.612  11.372  0.00  0.00    +0.000 OA
ATOM     31  C   UNL     1      50.690   8.620  13.043  0.00  0.00    +0.000 A 
BRANCH  28  32
ATOM     32  C   UNL     1      51.534   7.188   9.683  0.00  0.00    +0.000 C 
BRANCH  32  33
ATOM     33  C   UNL     1      52.902   6.890   9.069  0.00  0.00    +0.000 C 
BRANCH  33  34
ATOM     34  O   UNL     1      53.107   7.685   7.905  0.00  0.00    +0.000 OA
ATOM     35  H   UNL     1      53.611   7.149   7.268  0.00  0.00    +0.000 HD
ENDBRANCH  33  34
ENDBRANCH  32  33
ENDBRANCH  28  32
ENDBRANCH  19  22
ENDBRANCH   1  18
BRANCH   1  37
ATOM     36  N   UNL     1      44.769  10.438  12.042  0.00  0.00    +0.000 NA
ATOM     37  C   UNL     1      45.354   9.579  12.566  0.00  0.00    +0.000 C 
ENDBRANCH   1  37
TORSDOF 10
ENDMDL
MODEL 9
REMARK VINA RESULT:    -5.515      3.937      7.211
REMARK INTER + INTRA:          -9.964
REMARK INTER:                  -8.670
REMARK INTRA:                  -1.294
REMARK UNBOUND:                -1.386
REMARK  Name = 
REMARK  10 active torsions:
REMARK  status: ('A' for Active; 'I' for Inactive)
REMARK    1  A    between atoms: C_2  and  C_3
REMARK    2  A    between atoms: C_3  and  N_4
REMARK    3  A    between atoms: C_3  and  C_20
REMARK    4  A    between atoms: C_5  and  C_7
REMARK    5  A    between atoms: N_13  and  C_14
REMARK    6  A    between atoms: C_14  and  C_15
REMARK    7  A    between atoms: C_15  and  O_16
REMARK    8  A    between atoms: C_23  and  C_24
REMARK    9  A    between atoms: C_24  and  N_25
REMARK   10  A    between atoms: C_26  and  C_28
REMARK                            x       y       z     vdW  Elec       q    Type
REMARK                         _______ _______ _______ _____ _____    ______ ____
ROOT
ATOM      1  C   UNL     1      46.719   6.992  12.224  0.00  0.00    +0.000 C 
ENDROOT
BRANCH   1   2
ATOM      2  C   UNL     1      47.046   6.055  13.387  0.00  0.00    +0.000 A 
ATOM      3  C   UNL     1      46.418   4.801  13.469  0.00  0.00    +0.000 A 
ATOM      4  C   UNL     1      46.571   3.992  14.602  0.00  0.00    +0.000 A 
ATOM      5  C   UNL     1      47.340   4.426  15.691  0.00  0.00    +0.000 A 
ATOM      6  C   UNL     1      48.002   5.655  15.597  0.00  0.00    +0.000 A 
ATOM      7  C   UNL     1      47.850   6.465  14.466  0.00  0.00    +0.000 A 
BRANCH   5   8
ATOM      8  C   UNL     1      47.437   3.601  16.949  0.00  0.00    +0.000 C 
BRANCH   8   9
ATOM      9  N   UNL     1      48.801   3.339  17.326  0.00  0.00    +0.000 N 
ATOM     10  C   UNL     1      49.512   2.310  16.750  0.00  0.00    +0.000 C 
ATOM     11  O   UNL     1      49.041   1.580  15.884  0.00  0.00    +0.000 OA
ATOM     12  H   UNL     1      49.266   3.919  18.013  0.00  0.00    +0.000 HD
BRANCH  10  13
ATOM     13  C   UNL     1      50.863   2.177  17.265  0.00  0.00    +0.000 A 
ATOM     14  C   UNL     1      51.743   3.112  17.777  0.00  0.00    +0.000 A 
ATOM     15  C   UNL     1      52.934   2.421  18.105  0.00  0.00    +0.000 A 
ATOM     16  C   UNL     1      52.716   1.107  17.768  0.00  0.00    +0.000 A 
ATOM     17  O   UNL     1      51.468   0.943  17.264  0.00  0.00    +0.000 OA
ENDBRANCH  10  13
ENDBRANCH   8   9
ENDBRANCH   5   8
ENDBRANCH   1   2
BRANCH   1  18
ATOM     18  N   UNL     1      47.928   7.748  11.945  0.00  0.00    +0.000 N 
ATOM     19  C   UNL     1      48.082   9.072  12.250  0.00  0.00    +0.000 C 
ATOM     20  O   UNL     1      47.259   9.694  12.910  0.00  0.00    +0.000 OA
ATOM     21  H   UNL     1      48.520   7.348  11.230  0.00  0.00    +0.000 HD
BRANCH  19  22
ATOM     22  C   UNL     1      49.357   9.658  11.817  0.00  0.00    +0.000 A 
ATOM     23  C   UNL     1      49.403  10.569  10.773  0.00  0.00    +0.000 A 
ATOM     24  S   UNL     1      50.954  11.249  10.540  0.00  0.00    +0.000 S 
ATOM     25  C   UNL     1      51.621  10.303  11.788  0.00  0.00    +0.000 A 
ATOM     26  N   UNL     1      52.925  10.421  12.147  0.00  0.00    +0.000 NA
ATOM     27  C   UNL     1      53.294   9.634  13.105  0.00  0.00    +0.000 A 
ATOM     28  N   UNL     1      52.489   8.705  13.736  0.00  0.00    +0.000 N 
ATOM     29  C   UNL     1      51.158   8.545  13.375  0.00  0.00    +0.000 A 
ATOM     30  O   UNL     1      50.417   7.720  13.904  0.00  0.00    +0.000 OA
ATOM     31  C   UNL     1      50.687   9.457  12.348  0.00  0.00    +0.000 A 
BRANCH  28  32
ATOM     32  C   UNL     1      53.034   7.856  14.793  0.00  0.00    +0.000 C 
BRANCH  32  33
ATOM     33  C   UNL     1      54.509   7.521  14.568  0.00  0.00    +0.000 C 
BRANCH  33  34
ATOM     34  O   UNL     1      54.642   6.211  14.023  0.00  0.00    +0.000 OA
ATOM     35  H   UNL     1      53.995   6.127  13.300  0.00  0.00    +0.000 HD
ENDBRANCH  33  34
ENDBRANCH  32  33
ENDBRANCH  28  32
ENDBRANCH  19  22
ENDBRANCH   1  18
BRANCH   1  37
ATOM     36  N   UNL     1      45.842   5.734  10.064  0.00  0.00    +0.000 NA
ATOM     37  C   UNL     1      46.243   6.281  11.010  0.00  0.00    +0.000 C 
ENDBRANCH   1  37
TORSDOF 10
ENDMDL
