MODEL 1
REMARK VINA RESULT:    -8.286      0.000      0.000
REMARK INTER + INTRA:         -12.054
REMARK INTER:                 -11.192
REMARK INTRA:                  -0.862
REMARK UNBOUND:                -0.862
REMARK  Name = 
REMARK  7 active torsions:
REMARK  status: ('A' for Active; 'I' for Inactive)
REMARK    1  A    between atoms: C_1  and  C_2
REMARK    2  A    between atoms: C_6  and  S_7
REMARK    3  A    between atoms: S_7  and  C_8
REMARK    4  A    between atoms: C_8  and  C_9
REMARK    5  A    between atoms: C_12  and  C_13
REMARK    6  A    between atoms: C_13  and  N_14
REMARK    7  A    between atoms: C_15  and  C_17
REMARK                            x       y       z     vdW  Elec       q    Type
REMARK                         _______ _______ _______ _____ _____    ______ ____
ROOT
ATOM      1  C   UNL     1      47.353   8.306  13.442  0.00  0.00    +0.000 C 
ENDROOT
BRANCH   1   5
ATOM      2  C   UNL     1      44.646   5.740  11.338  0.00  0.00    +0.000 A 
ATOM      3  C   UNL     1      45.744   5.196  12.014  0.00  0.00    +0.000 A 
ATOM      4  C   UNL     1      46.617   6.021  12.717  0.00  0.00    +0.000 A 
ATOM      5  C   UNL     1      46.413   7.395  12.692  0.00  0.00    +0.000 A 
ATOM      6  N   UNL     1      45.377   7.961  12.019  0.00  0.00    +0.000 NA
ATOM      7  C   UNL     1      44.530   7.130  11.366  0.00  0.00    +0.000 A 
BRANCH   2   8
ATOM      8  C   UNL     1      43.670   4.910  10.540  0.00  0.00    +0.000 C 
BRANCH   8   9
ATOM      9  S   UNL     1      43.996   3.112  10.635  0.00  0.00    +0.000 S 
BRANCH   9  15
ATOM     10  C   UNL     1      46.835   0.097   7.646  0.00  0.00    +0.000 C 
ATOM     11  C   UNL     1      46.334   1.486   7.893  0.00  0.00    +0.000 A 
ATOM     12  C   UNL     1      46.709   2.544   7.070  0.00  0.00    +0.000 A 
ATOM     13  C   UNL     1      46.209   3.811   7.346  0.00  0.00    +0.000 A 
ATOM     14  C   UNL     1      45.361   3.985   8.433  0.00  0.00    +0.000 A 
ATOM     15  C   UNL     1      45.042   2.881   9.215  0.00  0.00    +0.000 A 
ATOM     16  N   UNL     1      45.511   1.643   8.957  0.00  0.00    +0.000 NA
ENDBRANCH   9  15
ENDBRANCH   8   9
ENDBRANCH   2   8
ENDBRANCH   1   5
BRANCH   1  17
ATOM     17  N   UNL     1      47.697   7.793  14.749  0.00  0.00    +0.000 N 
ATOM     18  C   UNL     1      48.884   7.162  15.008  0.00  0.00    +0.000 C 
ATOM     19  O   UNL     1      49.738   6.996  14.140  0.00  0.00    +0.000 OA
ATOM     20  H   UNL     1      46.926   7.712  15.405  0.00  0.00    +0.000 HD
BRANCH  18  21
ATOM     21  C   UNL     1      49.124   6.758  16.401  0.00  0.00    +0.000 A 
ATOM     22  C   UNL     1      49.755   7.638  17.270  0.00  0.00    +0.000 A 
ATOM     23  S   UNL     1      49.918   7.038  18.859  0.00  0.00    +0.000 S 
ATOM     24  C   UNL     1      49.190   5.560  18.432  0.00  0.00    +0.000 A 
ATOM     25  N   UNL     1      49.040   4.567  19.349  0.00  0.00    +0.000 NA
ATOM     26  C   UNL     1      48.501   3.490  18.885  0.00  0.00    +0.000 A 
ATOM     27  N   UNL     1      48.090   3.319  17.589  0.00  0.00    +0.000 N 
ATOM     28  C   UNL     1      48.170   4.314  16.644  0.00  0.00    +0.000 A 
ATOM     29  O   UNL     1      47.707   4.159  15.519  0.00  0.00    +0.000 OA
ATOM     30  C   UNL     1      48.804   5.535  17.103  0.00  0.00    +0.000 A 
ATOM     31  H   UNL     1      47.654   2.459  17.292  0.00  0.00    +0.000 HD
ENDBRANCH  18  21
ENDBRANCH   1  17
TORSDOF 6
ENDMDL
MODEL 2
REMARK VINA RESULT:    -8.039      2.122      3.431
REMARK INTER + INTRA:         -11.721
REMARK INTER:                 -10.817
REMARK INTRA:                  -0.904
REMARK UNBOUND:                -0.862
REMARK  Name = 
REMARK  7 active torsions:
REMARK  status: ('A' for Active; 'I' for Inactive)
REMARK    1  A    between atoms: C_1  and  C_2
REMARK    2  A    between atoms: C_6  and  S_7
REMARK    3  A    between atoms: S_7  and  C_8
REMARK    4  A    between atoms: C_8  and  C_9
REMARK    5  A    between atoms: C_12  and  C_13
REMARK    6  A    between atoms: C_13  and  N_14
REMARK    7  A    between atoms: C_15  and  C_17
REMARK                            x       y       z     vdW  Elec       q    Type
REMARK                         _______ _______ _______ _____ _____    ______ ____
ROOT
ATOM      1  C   UNL     1      47.572   3.961  15.719  0.00  0.00    +0.000 C 
ENDROOT
BRANCH   1   5
ATOM      2  C   UNL     1      45.739   4.888  11.961  0.00  0.00    +0.000 A 
ATOM      3  C   UNL     1      46.257   5.914  12.760  0.00  0.00    +0.000 A 
ATOM      4  C   UNL     1      46.873   5.619  13.972  0.00  0.00    +0.000 A 
ATOM      5  C   UNL     1      46.916   4.299  14.403  0.00  0.00    +0.000 A 
ATOM      6  N   UNL     1      46.394   3.281  13.670  0.00  0.00    +0.000 NA
ATOM      7  C   UNL     1      45.824   3.596  12.482  0.00  0.00    +0.000 A 
BRANCH   2   8
ATOM      8  C   UNL     1      45.042   5.134  10.645  0.00  0.00    +0.000 C 
BRANCH   8   9
ATOM      9  S   UNL     1      44.168   3.660   9.999  0.00  0.00    +0.000 S 
BRANCH   9  15
ATOM     10  C   UNL     1      46.741  -0.123   7.729  0.00  0.00    +0.000 C 
ATOM     11  C   UNL     1      46.486   1.352   7.779  0.00  0.00    +0.000 A 
ATOM     12  C   UNL     1      47.157   2.229   6.932  0.00  0.00    +0.000 A 
ATOM     13  C   UNL     1      46.877   3.587   7.022  0.00  0.00    +0.000 A 
ATOM     14  C   UNL     1      45.945   4.027   7.954  0.00  0.00    +0.000 A 
ATOM     15  C   UNL     1      45.324   3.092   8.772  0.00  0.00    +0.000 A 
ATOM     16  N   UNL     1      45.578   1.769   8.693  0.00  0.00    +0.000 NA
ENDBRANCH   9  15
ENDBRANCH   8   9
ENDBRANCH   2   8
ENDBRANCH   1   5
BRANCH   1  17
ATOM     17  N   UNL     1      47.481   5.040  16.676  0.00  0.00    +0.000 N 
ATOM     18  C   UNL     1      48.573   5.748  17.101  0.00  0.00    +0.000 C 
ATOM     19  O   UNL     1      49.706   5.509  16.689  0.00  0.00    +0.000 OA
ATOM     20  H   UNL     1      46.609   5.095  17.193  0.00  0.00    +0.000 HD
BRANCH  18  21
ATOM     21  C   UNL     1      48.316   6.865  18.022  0.00  0.00    +0.000 A 
ATOM     22  C   UNL     1      48.147   6.610  19.376  0.00  0.00    +0.000 A 
ATOM     23  S   UNL     1      47.902   8.012  20.315  0.00  0.00    +0.000 S 
ATOM     24  C   UNL     1      47.967   9.010  18.938  0.00  0.00    +0.000 A 
ATOM     25  N   UNL     1      47.800  10.356  19.043  0.00  0.00    +0.000 NA
ATOM     26  C   UNL     1      47.842  10.988  17.919  0.00  0.00    +0.000 A 
ATOM     27  N   UNL     1      48.044  10.397  16.699  0.00  0.00    +0.000 N 
ATOM     28  C   UNL     1      48.272   9.050  16.551  0.00  0.00    +0.000 A 
ATOM     29  O   UNL     1      48.543   8.570  15.456  0.00  0.00    +0.000 OA
ATOM     30  C   UNL     1      48.198   8.285  17.781  0.00  0.00    +0.000 A 
ATOM     31  H   UNL     1      48.088  10.950  15.856  0.00  0.00    +0.000 HD
ENDBRANCH  18  21
ENDBRANCH   1  17
TORSDOF 6
ENDMDL
MODEL 3
REMARK VINA RESULT:    -7.909      1.890      2.489
REMARK INTER + INTRA:         -11.546
REMARK INTER:                 -10.571
REMARK INTRA:                  -0.975
REMARK UNBOUND:                -0.862
REMARK  Name = 
REMARK  7 active torsions:
REMARK  status: ('A' for Active; 'I' for Inactive)
REMARK    1  A    between atoms: C_1  and  C_2
REMARK    2  A    between atoms: C_6  and  S_7
REMARK    3  A    between atoms: S_7  and  C_8
REMARK    4  A    between atoms: C_8  and  C_9
REMARK    5  A    between atoms: C_12  and  C_13
REMARK    6  A    between atoms: C_13  and  N_14
REMARK    7  A    between atoms: C_15  and  C_17
REMARK                            x       y       z     vdW  Elec       q    Type
REMARK                         _______ _______ _______ _____ _____    ______ ____
ROOT
ATOM      1  C   UNL     1      48.109   7.362  13.740  0.00  0.00    +0.000 C 
ENDROOT
BRANCH   1   5
ATOM      2  C   UNL     1      44.942   5.473  11.564  0.00  0.00    +0.000 A 
ATOM      3  C   UNL     1      45.696   4.736  12.484  0.00  0.00    +0.000 A 
ATOM      4  C   UNL     1      46.713   5.348  13.210  0.00  0.00    +0.000 A 
ATOM      5  C   UNL     1      47.004   6.684  12.968  0.00  0.00    +0.000 A 
ATOM      6  N   UNL     1      46.316   7.422  12.059  0.00  0.00    +0.000 NA
ATOM      7  C   UNL     1      45.314   6.806  11.386  0.00  0.00    +0.000 A 
BRANCH   2   8
ATOM      8  C   UNL     1      43.837   4.873  10.728  0.00  0.00    +0.000 C 
BRANCH   8   9
ATOM      9  S   UNL     1      43.930   3.049  10.601  0.00  0.00    +0.000 S 
BRANCH   9  15
ATOM     10  C   UNL     1      46.848   0.121   7.602  0.00  0.00    +0.000 C 
ATOM     11  C   UNL     1      46.347   1.504   7.881  0.00  0.00    +0.000 A 
ATOM     12  C   UNL     1      46.755   2.588   7.109  0.00  0.00    +0.000 A 
ATOM     13  C   UNL     1      46.254   3.847   7.412  0.00  0.00    +0.000 A 
ATOM     14  C   UNL     1      45.371   3.989   8.476  0.00  0.00    +0.000 A 
ATOM     15  C   UNL     1      45.020   2.861   9.208  0.00  0.00    +0.000 A 
ATOM     16  N   UNL     1      45.490   1.629   8.922  0.00  0.00    +0.000 NA
ENDBRANCH   9  15
ENDBRANCH   8   9
ENDBRANCH   2   8
ENDBRANCH   1   5
BRANCH   1  17
ATOM     17  N   UNL     1      47.992   7.161  15.167  0.00  0.00    +0.000 N 
ATOM     18  C   UNL     1      49.044   6.762  15.947  0.00  0.00    +0.000 C 
ATOM     19  O   UNL     1      50.161   6.552  15.480  0.00  0.00    +0.000 OA
ATOM     20  H   UNL     1      47.044   7.102  15.525  0.00  0.00    +0.000 HD
BRANCH  18  21
ATOM     21  C   UNL     1      48.792   6.669  17.393  0.00  0.00    +0.000 A 
ATOM     22  C   UNL     1      49.078   5.487  18.063  0.00  0.00    +0.000 A 
ATOM     23  S   UNL     1      48.773   5.556  19.739  0.00  0.00    +0.000 S 
ATOM     24  C   UNL     1      48.203   7.155  19.625  0.00  0.00    +0.000 A 
ATOM     25  N   UNL     1      47.750   7.815  20.725  0.00  0.00    +0.000 NA
ATOM     26  C   UNL     1      47.319   9.008  20.491  0.00  0.00    +0.000 A 
ATOM     27  N   UNL     1      47.308   9.606  19.257  0.00  0.00    +0.000 N 
ATOM     28  C   UNL     1      47.806   8.998  18.129  0.00  0.00    +0.000 A 
ATOM     29  O   UNL     1      47.867   9.598  17.062  0.00  0.00    +0.000 OA
ATOM     30  C   UNL     1      48.269   7.639  18.329  0.00  0.00    +0.000 A 
ATOM     31  H   UNL     1      46.977  10.552  19.143  0.00  0.00    +0.000 HD
ENDBRANCH  18  21
ENDBRANCH   1  17
TORSDOF 6
ENDMDL
MODEL 4
REMARK VINA RESULT:    -7.659      2.028      3.158
REMARK INTER + INTRA:         -11.208
REMARK INTER:                 -10.240
REMARK INTRA:                  -0.968
REMARK UNBOUND:                -0.862
REMARK  Name = 
REMARK  7 active torsions:
REMARK  status: ('A' for Active; 'I' for Inactive)
REMARK    1  A    between atoms: C_1  and  C_2
REMARK    2  A    between atoms: C_6  and  S_7
REMARK    3  A    between atoms: S_7  and  C_8
REMARK    4  A    between atoms: C_8  and  C_9
REMARK    5  A    between atoms: C_12  and  C_13
REMARK    6  A    between atoms: C_13  and  N_14
REMARK    7  A    between atoms: C_15  and  C_17
REMARK                            x       y       z     vdW  Elec       q    Type
REMARK                         _______ _______ _______ _____ _____    ______ ____
ROOT
ATOM      1  C   UNL     1      47.335   3.937  15.361  0.00  0.00    +0.000 C 
ENDROOT
BRANCH   1   5
ATOM      2  C   UNL     1      45.637   5.021  11.583  0.00  0.00    +0.000 A 
ATOM      3  C   UNL     1      46.487   5.911  12.250  0.00  0.00    +0.000 A 
ATOM      4  C   UNL     1      47.059   5.558  13.468  0.00  0.00    +0.000 A 
ATOM      5  C   UNL     1      46.731   4.333  14.037  0.00  0.00    +0.000 A 
ATOM      6  N   UNL     1      45.885   3.459  13.434  0.00  0.00    +0.000 NA
ATOM      7  C   UNL     1      45.364   3.819  12.236  0.00  0.00    +0.000 A 
BRANCH   2   8
ATOM      8  C   UNL     1      44.967   5.343  10.269  0.00  0.00    +0.000 C 
BRANCH   8   9
ATOM      9  S   UNL     1      44.110   3.909   9.519  0.00  0.00    +0.000 S 
BRANCH   9  15
ATOM     10  C   UNL     1      46.746  -0.060   7.680  0.00  0.00    +0.000 C 
ATOM     11  C   UNL     1      46.579   1.428   7.682  0.00  0.00    +0.000 A 
ATOM     12  C   UNL     1      47.421   2.249   6.937  0.00  0.00    +0.000 A 
ATOM     13  C   UNL     1      47.216   3.622   6.975  0.00  0.00    +0.000 A 
ATOM     14  C   UNL     1      46.187   4.134   7.756  0.00  0.00    +0.000 A 
ATOM     15  C   UNL     1      45.395   3.252   8.480  0.00  0.00    +0.000 A 
ATOM     16  N   UNL     1      45.575   1.915   8.449  0.00  0.00    +0.000 NA
ENDBRANCH   9  15
ENDBRANCH   8   9
ENDBRANCH   2   8
ENDBRANCH   1   5
BRANCH   1  17
ATOM     17  N   UNL     1      47.613   5.076  16.207  0.00  0.00    +0.000 N 
ATOM     18  C   UNL     1      47.864   4.959  17.547  0.00  0.00    +0.000 C 
ATOM     19  O   UNL     1      47.872   3.870  18.118  0.00  0.00    +0.000 OA
ATOM     20  H   UNL     1      47.383   5.982  15.810  0.00  0.00    +0.000 HD
BRANCH  18  21
ATOM     21  C   UNL     1      48.201   6.198  18.263  0.00  0.00    +0.000 A 
ATOM     22  C   UNL     1      47.467   6.562  19.385  0.00  0.00    +0.000 A 
ATOM     23  S   UNL     1      48.011   7.998  20.126  0.00  0.00    +0.000 S 
ATOM     24  C   UNL     1      49.220   8.213  18.948  0.00  0.00    +0.000 A 
ATOM     25  N   UNL     1      50.046   9.293  18.985  0.00  0.00    +0.000 NA
ATOM     26  C   UNL     1      50.895   9.347  18.015  0.00  0.00    +0.000 A 
ATOM     27  N   UNL     1      51.000   8.415  17.016  0.00  0.00    +0.000 N 
ATOM     28  C   UNL     1      50.224   7.281  16.970  0.00  0.00    +0.000 A 
ATOM     29  O   UNL     1      50.409   6.421  16.115  0.00  0.00    +0.000 OA
ATOM     30  C   UNL     1      49.225   7.188  18.017  0.00  0.00    +0.000 A 
ATOM     31  H   UNL     1      51.701   8.503  16.296  0.00  0.00    +0.000 HD
ENDBRANCH  18  21
ENDBRANCH   1  17
TORSDOF 6
ENDMDL
MODEL 5
REMARK VINA RESULT:    -7.605      2.963      4.371
REMARK INTER + INTRA:         -11.134
REMARK INTER:                 -10.485
REMARK INTRA:                  -0.649
REMARK UNBOUND:                -0.862
REMARK  Name = 
REMARK  7 active torsions:
REMARK  status: ('A' for Active; 'I' for Inactive)
REMARK    1  A    between atoms: C_1  and  C_2
REMARK    2  A    between atoms: C_6  and  S_7
REMARK    3  A    between atoms: S_7  and  C_8
REMARK    4  A    between atoms: C_8  and  C_9
REMARK    5  A    between atoms: C_12  and  C_13
REMARK    6  A    between atoms: C_13  and  N_14
REMARK    7  A    between atoms: C_15  and  C_17
REMARK                            x       y       z     vdW  Elec       q    Type
REMARK                         _______ _______ _______ _____ _____    ______ ____
ROOT
ATOM      1  C   UNL     1      47.344   3.708  17.008  0.00  0.00    +0.000 C 
ENDROOT
BRANCH   1   5
ATOM      2  C   UNL     1      47.113   5.717  13.233  0.00  0.00    +0.000 A 
ATOM      3  C   UNL     1      47.933   6.224  14.247  0.00  0.00    +0.000 A 
ATOM      4  C   UNL     1      48.029   5.566  15.469  0.00  0.00    +0.000 A 
ATOM      5  C   UNL     1      47.259   4.430  15.686  0.00  0.00    +0.000 A 
ATOM      6  N   UNL     1      46.427   3.928  14.737  0.00  0.00    +0.000 NA
ATOM      7  C   UNL     1      46.374   4.576  13.548  0.00  0.00    +0.000 A 
BRANCH   2   8
ATOM      8  C   UNL     1      46.944   6.387  11.891  0.00  0.00    +0.000 C 
BRANCH   8   9
ATOM      9  S   UNL     1      45.206   6.441  11.318  0.00  0.00    +0.000 S 
BRANCH   9  15
ATOM     10  C   UNL     1      46.552   3.900   7.098  0.00  0.00    +0.000 C 
ATOM     11  C   UNL     1      45.757   3.870   8.366  0.00  0.00    +0.000 A 
ATOM     12  C   UNL     1      44.973   2.770   8.701  0.00  0.00    +0.000 A 
ATOM     13  C   UNL     1      44.260   2.798   9.892  0.00  0.00    +0.000 A 
ATOM     14  C   UNL     1      44.344   3.920  10.708  0.00  0.00    +0.000 A 
ATOM     15  C   UNL     1      45.138   4.984  10.300  0.00  0.00    +0.000 A 
ATOM     16  N   UNL     1      45.844   4.971   9.151  0.00  0.00    +0.000 NA
ENDBRANCH   9  15
ENDBRANCH   8   9
ENDBRANCH   2   8
ENDBRANCH   1   5
BRANCH   1  17
ATOM     17  N   UNL     1      48.708   3.485  17.430  0.00  0.00    +0.000 N 
ATOM     18  C   UNL     1      49.499   2.505  16.892  0.00  0.00    +0.000 C 
ATOM     19  O   UNL     1      49.095   1.751  16.010  0.00  0.00    +0.000 OA
ATOM     20  H   UNL     1      48.976   3.932  18.301  0.00  0.00    +0.000 HD
BRANCH  18  21
ATOM     21  C   UNL     1      50.888   2.445  17.370  0.00  0.00    +0.000 A 
ATOM     22  C   UNL     1      51.517   1.213  17.494  0.00  0.00    +0.000 A 
ATOM     23  S   UNL     1      53.137   1.317  18.016  0.00  0.00    +0.000 S 
ATOM     24  C   UNL     1      53.044   3.012  18.141  0.00  0.00    +0.000 A 
ATOM     25  N   UNL     1      54.111   3.739  18.570  0.00  0.00    +0.000 NA
ATOM     26  C   UNL     1      53.894   5.009  18.647  0.00  0.00    +0.000 A 
ATOM     27  N   UNL     1      52.710   5.619  18.324  0.00  0.00    +0.000 N 
ATOM     28  C   UNL     1      51.625   4.931  17.834  0.00  0.00    +0.000 A 
ATOM     29  O   UNL     1      50.615   5.520  17.467  0.00  0.00    +0.000 OA
ATOM     30  C   UNL     1      51.802   3.494  17.764  0.00  0.00    +0.000 A 
ATOM     31  H   UNL     1      52.610   6.621  18.385  0.00  0.00    +0.000 HD
ENDBRANCH  18  21
ENDBRANCH   1  17
TORSDOF 6
ENDMDL
MODEL 6
REMARK VINA RESULT:    -7.497      2.451      4.360
REMARK INTER + INTRA:         -10.989
REMARK INTER:                  -9.906
REMARK INTRA:                  -1.083
REMARK UNBOUND:                -0.862
REMARK  Name = 
REMARK  7 active torsions:
REMARK  status: ('A' for Active; 'I' for Inactive)
REMARK    1  A    between atoms: C_1  and  C_2
REMARK    2  A    between atoms: C_6  and  S_7
REMARK    3  A    between atoms: S_7  and  C_8
REMARK    4  A    between atoms: C_8  and  C_9
REMARK    5  A    between atoms: C_12  and  C_13
REMARK    6  A    between atoms: C_13  and  N_14
REMARK    7  A    between atoms: C_15  and  C_17
REMARK                            x       y       z     vdW  Elec       q    Type
REMARK                         _______ _______ _______ _____ _____    ______ ____
ROOT
ATOM      1  C   UNL     1      47.409   5.118  14.995  0.00  0.00    +0.000 C 
ENDROOT
BRANCH   1   5
ATOM      2  C   UNL     1      44.990   3.942  11.663  0.00  0.00    +0.000 A 
ATOM      3  C   UNL     1      45.172   5.299  11.952  0.00  0.00    +0.000 A 
ATOM      4  C   UNL     1      45.973   5.690  13.021  0.00  0.00    +0.000 A 
ATOM      5  C   UNL     1      46.543   4.713  13.827  0.00  0.00    +0.000 A 
ATOM      6  N   UNL     1      46.362   3.387  13.596  0.00  0.00    +0.000 NA
ATOM      7  C   UNL     1      45.598   3.038  12.533  0.00  0.00    +0.000 A 
BRANCH   2   8
ATOM      8  C   UNL     1      44.122   3.445  10.533  0.00  0.00    +0.000 C 
BRANCH   8   9
ATOM      9  S   UNL     1      44.469   4.264   8.933  0.00  0.00    +0.000 S 
BRANCH   9  15
ATOM     10  C   UNL     1      47.552   2.849   5.116  0.00  0.00    +0.000 C 
ATOM     11  C   UNL     1      46.879   2.437   6.388  0.00  0.00    +0.000 A 
ATOM     12  C   UNL     1      47.027   1.150   6.898  0.00  0.00    +0.000 A 
ATOM     13  C   UNL     1      46.382   0.826   8.085  0.00  0.00    +0.000 A 
ATOM     14  C   UNL     1      45.608   1.789   8.722  0.00  0.00    +0.000 A 
ATOM     15  C   UNL     1      45.500   3.048   8.145  0.00  0.00    +0.000 A 
ATOM     16  N   UNL     1      46.126   3.382   6.998  0.00  0.00    +0.000 NA
ENDBRANCH   9  15
ENDBRANCH   8   9
ENDBRANCH   2   8
ENDBRANCH   1   5
BRANCH   1  17
ATOM     17  N   UNL     1      47.902   6.471  14.876  0.00  0.00    +0.000 N 
ATOM     18  C   UNL     1      49.133   6.854  15.337  0.00  0.00    +0.000 C 
ATOM     19  O   UNL     1      49.901   6.063  15.881  0.00  0.00    +0.000 OA
ATOM     20  H   UNL     1      47.205   7.173  14.648  0.00  0.00    +0.000 HD
BRANCH  18  21
ATOM     21  C   UNL     1      49.528   8.246  15.081  0.00  0.00    +0.000 A 
ATOM     22  C   UNL     1      49.920   9.053  16.140  0.00  0.00    +0.000 A 
ATOM     23  S   UNL     1      50.389  10.624  15.672  0.00  0.00    +0.000 S 
ATOM     24  C   UNL     1      50.042  10.299  14.038  0.00  0.00    +0.000 A 
ATOM     25  N   UNL     1      50.206  11.257  13.086  0.00  0.00    +0.000 NA
ATOM     26  C   UNL     1      49.877  10.886  11.895  0.00  0.00    +0.000 A 
ATOM     27  N   UNL     1      49.407   9.641  11.567  0.00  0.00    +0.000 N 
ATOM     28  C   UNL     1      49.278   8.627  12.486  0.00  0.00    +0.000 A 
ATOM     29  O   UNL     1      48.945   7.498  12.141  0.00  0.00    +0.000 OA
ATOM     30  C   UNL     1      49.599   9.001  13.850  0.00  0.00    +0.000 A 
ATOM     31  H   UNL     1      49.187   9.405  10.611  0.00  0.00    +0.000 HD
ENDBRANCH  18  21
ENDBRANCH   1  17
TORSDOF 6
ENDMDL
MODEL 7
REMARK VINA RESULT:    -7.475      1.311      1.674
REMARK INTER + INTRA:         -10.959
REMARK INTER:                  -9.963
REMARK INTRA:                  -0.996
REMARK UNBOUND:                -0.862
REMARK  Name = 
REMARK  7 active torsions:
REMARK  status: ('A' for Active; 'I' for Inactive)
REMARK    1  A    between atoms: C_1  and  C_2
REMARK    2  A    between atoms: C_6  and  S_7
REMARK    3  A    between atoms: S_7  and  C_8
REMARK    4  A    between atoms: C_8  and  C_9
REMARK    5  A    between atoms: C_12  and  C_13
REMARK    6  A    between atoms: C_13  and  N_14
REMARK    7  A    between atoms: C_15  and  C_17
REMARK                            x       y       z     vdW  Elec       q    Type
REMARK                         _______ _______ _______ _____ _____    ______ ____
ROOT
ATOM      1  C   UNL     1      48.368   7.107  13.535  0.00  0.00    +0.000 C 
ENDROOT
BRANCH   1   5
ATOM      2  C   UNL     1      45.416   4.638  11.657  0.00  0.00    +0.000 A 
ATOM      3  C   UNL     1      46.002   4.235  12.862  0.00  0.00    +0.000 A 
ATOM      4  C   UNL     1      46.948   5.042  13.489  0.00  0.00    +0.000 A 
ATOM      5  C   UNL     1      47.339   6.224  12.874  0.00  0.00    +0.000 A 
ATOM      6  N   UNL     1      46.816   6.631  11.688  0.00  0.00    +0.000 NA
ATOM      7  C   UNL     1      45.879   5.837  11.115  0.00  0.00    +0.000 A 
BRANCH   2   8
ATOM      8  C   UNL     1      44.399   3.808  10.912  0.00  0.00    +0.000 C 
BRANCH   8   9
ATOM      9  S   UNL     1      44.176   4.324   9.169  0.00  0.00    +0.000 S 
BRANCH   9  15
ATOM     10  C   UNL     1      47.254   3.148   5.267  0.00  0.00    +0.000 C 
ATOM     11  C   UNL     1      46.626   2.675   6.541  0.00  0.00    +0.000 A 
ATOM     12  C   UNL     1      46.845   1.386   7.018  0.00  0.00    +0.000 A 
ATOM     13  C   UNL     1      46.238   1.004   8.208  0.00  0.00    +0.000 A 
ATOM     14  C   UNL     1      45.430   1.912   8.880  0.00  0.00    +0.000 A 
ATOM     15  C   UNL     1      45.250   3.178   8.336  0.00  0.00    +0.000 A 
ATOM     16  N   UNL     1      45.838   3.568   7.186  0.00  0.00    +0.000 NA
ENDBRANCH   9  15
ENDBRANCH   8   9
ENDBRANCH   2   8
ENDBRANCH   1   5
BRANCH   1  17
ATOM     17  N   UNL     1      48.423   6.918  14.967  0.00  0.00    +0.000 N 
ATOM     18  C   UNL     1      49.570   7.090  15.693  0.00  0.00    +0.000 C 
ATOM     19  O   UNL     1      50.632   7.421  15.169  0.00  0.00    +0.000 OA
ATOM     20  H   UNL     1      47.633   6.427  15.374  0.00  0.00    +0.000 HD
BRANCH  18  21
ATOM     21  C   UNL     1      49.456   6.932  17.150  0.00  0.00    +0.000 A 
ATOM     22  C   UNL     1      49.604   8.041  17.973  0.00  0.00    +0.000 A 
ATOM     23  S   UNL     1      49.398   7.701  19.631  0.00  0.00    +0.000 S 
ATOM     24  C   UNL     1      49.150   6.047  19.315  0.00  0.00    +0.000 A 
ATOM     25  N   UNL     1      48.936   5.168  20.331  0.00  0.00    +0.000 NA
ATOM     26  C   UNL     1      48.793   3.942  19.954  0.00  0.00    +0.000 A 
ATOM     27  N   UNL     1      48.835   3.517  18.652  0.00  0.00    +0.000 N 
ATOM     28  C   UNL     1      48.993   4.377  17.591  0.00  0.00    +0.000 A 
ATOM     29  O   UNL     1      48.931   3.974  16.434  0.00  0.00    +0.000 OA
ATOM     30  C   UNL     1      49.196   5.764  17.961  0.00  0.00    +0.000 A 
ATOM     31  H   UNL     1      48.694   2.545  18.419  0.00  0.00    +0.000 HD
ENDBRANCH  18  21
ENDBRANCH   1  17
TORSDOF 6
ENDMDL
MODEL 8
REMARK VINA RESULT:    -7.452      2.123      8.283
REMARK INTER + INTRA:         -10.927
REMARK INTER:                  -9.714
REMARK INTRA:                  -1.214
REMARK UNBOUND:                -0.862
REMARK  Name = 
REMARK  7 active torsions:
REMARK  status: ('A' for Active; 'I' for Inactive)
REMARK    1  A    between atoms: C_1  and  C_2
REMARK    2  A    between atoms: C_6  and  S_7
REMARK    3  A    between atoms: S_7  and  C_8
REMARK    4  A    between atoms: C_8  and  C_9
REMARK    5  A    between atoms: C_12  and  C_13
REMARK    6  A    between atoms: C_13  and  N_14
REMARK    7  A    between atoms: C_15  and  C_17
REMARK                            x       y       z     vdW  Elec       q    Type
REMARK                         _______ _______ _______ _____ _____    ______ ____
ROOT
ATOM      1  C   UNL     1      47.561   7.705  12.073  0.00  0.00    +0.000 C 
ENDROOT
BRANCH   1   5
ATOM      2  C   UNL     1      49.198   7.802  16.028  0.00  0.00    +0.000 A 
ATOM      3  C   UNL     1      48.327   8.812  15.606  0.00  0.00    +0.000 A 
ATOM      4  C   UNL     1      47.775   8.777  14.330  0.00  0.00    +0.000 A 
ATOM      5  C   UNL     1      48.143   7.755  13.464  0.00  0.00    +0.000 A 
ATOM      6  N   UNL     1      49.011   6.776  13.828  0.00  0.00    +0.000 NA
ATOM      7  C   UNL     1      49.513   6.823  15.086  0.00  0.00    +0.000 A 
BRANCH   2   8
ATOM      8  C   UNL     1      49.850   7.784  17.390  0.00  0.00    +0.000 C 
BRANCH   8   9
ATOM      9  S   UNL     1      48.774   7.097  18.702  0.00  0.00    +0.000 S 
BRANCH   9  15
ATOM     10  C   UNL     1      50.806   2.582  17.447  0.00  0.00    +0.000 C 
ATOM     11  C   UNL     1      49.551   3.390  17.568  0.00  0.00    +0.000 A 
ATOM     12  C   UNL     1      48.314   2.857  17.219  0.00  0.00    +0.000 A 
ATOM     13  C   UNL     1      47.183   3.653  17.356  0.00  0.00    +0.000 A 
ATOM     14  C   UNL     1      47.321   4.953  17.828  0.00  0.00    +0.000 A 
ATOM     15  C   UNL     1      48.591   5.418  18.146  0.00  0.00    +0.000 A 
ATOM     16  N   UNL     1      49.699   4.656  18.027  0.00  0.00    +0.000 NA
ENDBRANCH   9  15
ENDBRANCH   8   9
ENDBRANCH   2   8
ENDBRANCH   1   5
BRANCH   1  17
ATOM     17  N   UNL     1      46.846   6.476  11.816  0.00  0.00    +0.000 N 
ATOM     18  C   UNL     1      45.480   6.389  11.865  0.00  0.00    +0.000 C 
ATOM     19  O   UNL     1      44.774   7.359  12.129  0.00  0.00    +0.000 OA
ATOM     20  H   UNL     1      47.408   5.630  11.828  0.00  0.00    +0.000 HD
BRANCH  18  21
ATOM     21  C   UNL     1      44.891   5.090  11.509  0.00  0.00    +0.000 A 
ATOM     22  C   UNL     1      44.126   4.406  12.445  0.00  0.00    +0.000 A 
ATOM     23  S   UNL     1      43.477   2.939  11.865  0.00  0.00    +0.000 S 
ATOM     24  C   UNL     1      44.233   3.142  10.353  0.00  0.00    +0.000 A 
ATOM     25  N   UNL     1      44.101   2.204   9.377  0.00  0.00    +0.000 NA
ATOM     26  C   UNL     1      44.750   2.468   8.293  0.00  0.00    +0.000 A 
ATOM     27  N   UNL     1      45.512   3.589   8.094  0.00  0.00    +0.000 N 
ATOM     28  C   UNL     1      45.629   4.588   9.031  0.00  0.00    +0.000 A 
ATOM     29  O   UNL     1      46.241   5.621   8.783  0.00  0.00    +0.000 OA
ATOM     30  C   UNL     1      44.949   4.325  10.284  0.00  0.00    +0.000 A 
ATOM     31  H   UNL     1      45.979   3.749   7.214  0.00  0.00    +0.000 HD
ENDBRANCH  18  21
ENDBRANCH   1  17
TORSDOF 6
ENDMDL
MODEL 9
REMARK VINA RESULT:    -7.000      2.812      7.612
REMARK INTER + INTRA:         -10.317
REMARK INTER:                  -8.834
REMARK INTRA:                  -1.483
REMARK UNBOUND:                -0.862
REMARK  Name = 
REMARK  7 active torsions:
REMARK  status: ('A' for Active; 'I' for Inactive)
REMARK    1  A    between atoms: C_1  and  C_2
REMARK    2  A    between atoms: C_6  and  S_7
REMARK    3  A    between atoms: S_7  and  C_8
REMARK    4  A    between atoms: C_8  and  C_9
REMARK    5  A    between atoms: C_12  and  C_13
REMARK    6  A    between atoms: C_13  and  N_14
REMARK    7  A    between atoms: C_15  and  C_17
REMARK                            x       y       z     vdW  Elec       q    Type
REMARK                         _______ _______ _______ _____ _____    ______ ____
ROOT
ATOM      1  C   UNL     1      48.229   8.836  14.060  0.00  0.00    +0.000 C 
ENDROOT
BRANCH   1   5
ATOM      2  C   UNL     1      49.564   7.340  17.844  0.00  0.00    +0.000 A 
ATOM      3  C   UNL     1      50.079   6.805  16.658  0.00  0.00    +0.000 A 
ATOM      4  C   UNL     1      49.666   7.300  15.425  0.00  0.00    +0.000 A 
ATOM      5  C   UNL     1      48.696   8.293  15.388  0.00  0.00    +0.000 A 
ATOM      6  N   UNL     1      48.150   8.813  16.518  0.00  0.00    +0.000 NA
ATOM      7  C   UNL     1      48.591   8.330  17.704  0.00  0.00    +0.000 A 
BRANCH   2   8
ATOM      8  C   UNL     1      49.952   6.842  19.215  0.00  0.00    +0.000 C 
BRANCH   8   9
ATOM      9  S   UNL     1      48.710   5.720  19.959  0.00  0.00    +0.000 S 
BRANCH   9  15
ATOM     10  C   UNL     1      50.563   1.916  17.100  0.00  0.00    +0.000 C 
ATOM     11  C   UNL     1      49.394   2.811  17.371  0.00  0.00    +0.000 A 
ATOM     12  C   UNL     1      48.232   2.731  16.609  0.00  0.00    +0.000 A 
ATOM     13  C   UNL     1      47.179   3.585  16.909  0.00  0.00    +0.000 A 
ATOM     14  C   UNL     1      47.318   4.495  17.951  0.00  0.00    +0.000 A 
ATOM     15  C   UNL     1      48.513   4.523  18.658  0.00  0.00    +0.000 A 
ATOM     16  N   UNL     1      49.543   3.695  18.386  0.00  0.00    +0.000 NA
ENDBRANCH   9  15
ENDBRANCH   8   9
ENDBRANCH   2   8
ENDBRANCH   1   5
BRANCH   1  17
ATOM     17  N   UNL     1      47.041   8.170  13.576  0.00  0.00    +0.000 N 
ATOM     18  C   UNL     1      47.066   7.266  12.548  0.00  0.00    +0.000 C 
ATOM     19  O   UNL     1      48.108   6.961  11.972  0.00  0.00    +0.000 OA
ATOM     20  H   UNL     1      46.159   8.576  13.874  0.00  0.00    +0.000 HD
BRANCH  18  21
ATOM     21  C   UNL     1      45.790   6.616  12.214  0.00  0.00    +0.000 A 
ATOM     22  C   UNL     1      44.760   7.370  11.668  0.00  0.00    +0.000 A 
ATOM     23  S   UNL     1      43.366   6.461  11.295  0.00  0.00    +0.000 S 
ATOM     24  C   UNL     1      44.072   5.033  11.892  0.00  0.00    +0.000 A 
ATOM     25  N   UNL     1      43.382   3.861  11.891  0.00  0.00    +0.000 NA
ATOM     26  C   UNL     1      44.024   2.864  12.400  0.00  0.00    +0.000 A 
ATOM     27  N   UNL     1      45.297   2.930  12.903  0.00  0.00    +0.000 N 
ATOM     28  C   UNL     1      46.051   4.079  12.874  0.00  0.00    +0.000 A 
ATOM     29  O   UNL     1      47.219   4.079  13.246  0.00  0.00    +0.000 OA
ATOM     30  C   UNL     1      45.363   5.241  12.346  0.00  0.00    +0.000 A 
ATOM     31  H   UNL     1      45.753   2.108  13.269  0.00  0.00    +0.000 HD
ENDBRANCH  18  21
ENDBRANCH   1  17
TORSDOF 6
ENDMDL
