MODEL 1
REMARK VINA RESULT:    -7.788      0.000      0.000
REMARK INTER + INTRA:         -14.222
REMARK INTER:                 -12.341
REMARK INTRA:                  -1.881
REMARK UNBOUND:                -1.881
REMARK  Name = 
REMARK  11 active torsions:
REMARK  status: ('A' for Active; 'I' for Inactive)
REMARK    1  A    between atoms: C_1  and  C_2
REMARK    2  A    between atoms: C_2  and  N_3
REMARK    3  A    between atoms: N_3  and  C_4
REMARK    4  A    between atoms: C_4  and  C_5
REMARK    5  A    between atoms: C_5  and  N_6
REMARK    6  A    between atoms: C_5  and  C_28
REMARK    7  A    between atoms: N_6  and  C_7
REMARK    8  A    between atoms: C_7  and  C_8
REMARK    9  A    between atoms: C_11  and  C_12
REMARK   10  A    between atoms: C_12  and  N_13
REMARK   11  A    between atoms: C_14  and  C_16
REMARK                            x       y       z     vdW  Elec       q    Type
REMARK                         _______ _______ _______ _____ _____    ______ ____
ROOT
ATOM      1  C   UNL     1      45.422   6.798  11.121  0.00  0.00    +0.000 A 
ATOM      2  C   UNL     1      44.899   7.854  11.870  0.00  0.00    +0.000 A 
ATOM      3  C   UNL     1      45.674   8.453  12.857  0.00  0.00    +0.000 A 
ATOM      4  C   UNL     1      46.951   7.958  13.101  0.00  0.00    +0.000 A 
ATOM      5  N   UNL     1      47.487   6.939  12.385  0.00  0.00    +0.000 NA
ATOM      6  C   UNL     1      46.719   6.393  11.415  0.00  0.00    +0.000 A 
ENDROOT
BRANCH   1   7
ATOM      7  C   UNL     1      44.606   6.065  10.088  0.00  0.00    +0.000 C 
BRANCH   7   8
ATOM      8  N   UNL     1      45.438   5.233   9.217  0.00  0.00    +0.000 NA
ATOM      9  H   UNL     1      45.601   5.713   8.335  0.00  0.00    +0.000 HD
BRANCH   8  10
ATOM     10  C   UNL     1      44.799   3.930   8.890  0.00  0.00    +0.000 C 
BRANCH  10  11
ATOM     11  C   UNL     1      45.696   3.020   8.055  0.00  0.00    +0.000 A 
ATOM     12  C   UNL     1      46.352   3.531   6.936  0.00  0.00    +0.000 A 
ATOM     13  C   UNL     1      47.189   2.692   6.206  0.00  0.00    +0.000 A 
ATOM     14  C   UNL     1      47.364   1.377   6.617  0.00  0.00    +0.000 A 
ATOM     15  C   UNL     1      46.693   0.952   7.749  0.00  0.00    +0.000 A 
ATOM     16  N   UNL     1      45.872   1.739   8.477  0.00  0.00    +0.000 NA
ENDBRANCH  10  11
BRANCH  10  17
ATOM     17  C   UNL     1      44.201   3.176  10.120  0.00  0.00    +0.000 C 
BRANCH  17  18
ATOM     18  N   UNL     1      45.238   2.806  11.105  0.00  0.00    +0.000 NA
ATOM     19  H   UNL     1      45.324   1.792  11.121  0.00  0.00    +0.000 HD
BRANCH  18  21
ATOM     20  C   UNL     1      43.417   3.712  12.421  0.00  0.00    +0.000 C 
ATOM     21  C   UNL     1      44.868   3.259  12.445  0.00  0.00    +0.000 C 
ENDBRANCH  18  21
ENDBRANCH  17  18
ENDBRANCH  10  17
ENDBRANCH   8  10
ENDBRANCH   7   8
ENDBRANCH   1   7
BRANCH   4  22
ATOM     22  C   UNL     1      47.815   8.580  14.169  0.00  0.00    +0.000 C 
BRANCH  22  23
ATOM     23  N   UNL     1      48.101   7.647  15.231  0.00  0.00    +0.000 N 
ATOM     24  C   UNL     1      49.327   7.062  15.398  0.00  0.00    +0.000 C 
ATOM     25  O   UNL     1      50.282   7.320  14.671  0.00  0.00    +0.000 OA
ATOM     26  H   UNL     1      47.281   7.213  15.645  0.00  0.00    +0.000 HD
BRANCH  24  27
ATOM     27  C   UNL     1      49.459   6.172  16.558  0.00  0.00    +0.000 A 
ATOM     28  C   UNL     1      50.433   6.423  17.516  0.00  0.00    +0.000 A 
ATOM     29  S   UNL     1      50.384   5.346  18.837  0.00  0.00    +0.000 S 
ATOM     30  C   UNL     1      49.094   4.475  18.153  0.00  0.00    +0.000 A 
ATOM     31  N   UNL     1      48.561   3.395  18.788  0.00  0.00    +0.000 NA
ATOM     32  C   UNL     1      47.609   2.811  18.141  0.00  0.00    +0.000 A 
ATOM     33  N   UNL     1      47.137   3.212  16.917  0.00  0.00    +0.000 N 
ATOM     34  C   UNL     1      47.616   4.317  16.261  0.00  0.00    +0.000 A 
ATOM     35  O   UNL     1      47.122   4.685  15.200  0.00  0.00    +0.000 OA
ATOM     36  C   UNL     1      48.699   5.004  16.938  0.00  0.00    +0.000 A 
ATOM     37  H   UNL     1      46.382   2.719  16.463  0.00  0.00    +0.000 HD
ENDBRANCH  24  27
ENDBRANCH  22  23
ENDBRANCH   4  22
TORSDOF 10
ENDMDL
MODEL 2
REMARK VINA RESULT:    -6.830      2.884      4.237
REMARK INTER + INTRA:         -12.704
REMARK INTER:                 -11.370
REMARK INTRA:                  -1.334
REMARK UNBOUND:                -1.881
REMARK  Name = 
REMARK  11 active torsions:
REMARK  status: ('A' for Active; 'I' for Inactive)
REMARK    1  A    between atoms: C_1  and  C_2
REMARK    2  A    between atoms: C_2  and  N_3
REMARK    3  A    between atoms: N_3  and  C_4
REMARK    4  A    between atoms: C_4  and  C_5
REMARK    5  A    between atoms: C_5  and  N_6
REMARK    6  A    between atoms: C_5  and  C_28
REMARK    7  A    between atoms: N_6  and  C_7
REMARK    8  A    between atoms: C_7  and  C_8
REMARK    9  A    between atoms: C_11  and  C_12
REMARK   10  A    between atoms: C_12  and  N_13
REMARK   11  A    between atoms: C_14  and  C_16
REMARK                            x       y       z     vdW  Elec       q    Type
REMARK                         _______ _______ _______ _____ _____    ______ ____
ROOT
ATOM      1  C   UNL     1      46.971   4.734  14.195  0.00  0.00    +0.000 A 
ATOM      2  C   UNL     1      46.892   4.032  15.399  0.00  0.00    +0.000 A 
ATOM      3  C   UNL     1      47.606   4.475  16.507  0.00  0.00    +0.000 A 
ATOM      4  C   UNL     1      48.416   5.598  16.380  0.00  0.00    +0.000 A 
ATOM      5  N   UNL     1      48.505   6.305  15.225  0.00  0.00    +0.000 NA
ATOM      6  C   UNL     1      47.782   5.864  14.172  0.00  0.00    +0.000 A 
ENDROOT
BRANCH   1   7
ATOM      7  C   UNL     1      46.277   4.263  12.944  0.00  0.00    +0.000 C 
BRANCH   7   8
ATOM      8  N   UNL     1      44.910   4.776  12.845  0.00  0.00    +0.000 NA
ATOM      9  H   UNL     1      44.247   4.008  12.917  0.00  0.00    +0.000 HD
BRANCH   8  10
ATOM     10  C   UNL     1      44.646   5.456  11.549  0.00  0.00    +0.000 C 
BRANCH  10  11
ATOM     11  C   UNL     1      44.800   4.530  10.346  0.00  0.00    +0.000 A 
ATOM     12  C   UNL     1      45.551   4.941   9.246  0.00  0.00    +0.000 A 
ATOM     13  C   UNL     1      45.705   4.068   8.173  0.00  0.00    +0.000 A 
ATOM     14  C   UNL     1      45.124   2.808   8.229  0.00  0.00    +0.000 A 
ATOM     15  C   UNL     1      44.410   2.468   9.364  0.00  0.00    +0.000 A 
ATOM     16  N   UNL     1      44.241   3.292  10.420  0.00  0.00    +0.000 NA
ENDBRANCH  10  11
BRANCH  10  17
ATOM     17  C   UNL     1      43.300   6.247  11.497  0.00  0.00    +0.000 C 
BRANCH  17  18
ATOM     18  N   UNL     1      43.507   7.676  11.180  0.00  0.00    +0.000 NA
ATOM     19  H   UNL     1      43.275   7.829  10.201  0.00  0.00    +0.000 HD
BRANCH  18  21
ATOM     20  C   UNL     1      44.963   9.103  12.490  0.00  0.00    +0.000 C 
ATOM     21  C   UNL     1      44.904   8.058  11.387  0.00  0.00    +0.000 C 
ENDBRANCH  18  21
ENDBRANCH  17  18
ENDBRANCH  10  17
ENDBRANCH   8  10
ENDBRANCH   7   8
ENDBRANCH   1   7
BRANCH   4  22
ATOM     22  C   UNL     1      49.208   6.102  17.559  0.00  0.00    +0.000 C 
BRANCH  22  23
ATOM     23  N   UNL     1      50.262   5.187  17.922  0.00  0.00    +0.000 N 
ATOM     24  C   UNL     1      51.524   5.258  17.398  0.00  0.00    +0.000 C 
ATOM     25  O   UNL     1      51.856   6.134  16.603  0.00  0.00    +0.000 OA
ATOM     26  H   UNL     1      49.942   4.314  18.332  0.00  0.00    +0.000 HD
BRANCH  24  27
ATOM     27  C   UNL     1      52.488   4.277  17.910  0.00  0.00    +0.000 A 
ATOM     28  C   UNL     1      53.645   4.710  18.543  0.00  0.00    +0.000 A 
ATOM     29  S   UNL     1      54.604   3.439  19.157  0.00  0.00    +0.000 S 
ATOM     30  C   UNL     1      53.532   2.264  18.554  0.00  0.00    +0.000 A 
ATOM     31  N   UNL     1      53.773   0.936  18.733  0.00  0.00    +0.000 NA
ATOM     32  C   UNL     1      52.894   0.157  18.198  0.00  0.00    +0.000 A 
ATOM     33  N   UNL     1      51.793   0.585  17.501  0.00  0.00    +0.000 N 
ATOM     34  C   UNL     1      51.490   1.912  17.332  0.00  0.00    +0.000 A 
ATOM     35  O   UNL     1      50.459   2.256  16.762  0.00  0.00    +0.000 OA
ATOM     36  C   UNL     1      52.453   2.833  17.902  0.00  0.00    +0.000 A 
ATOM     37  H   UNL     1      51.135  -0.074  17.112  0.00  0.00    +0.000 HD
ENDBRANCH  24  27
ENDBRANCH  22  23
ENDBRANCH   4  22
TORSDOF 10
ENDMDL
MODEL 3
REMARK VINA RESULT:    -6.521      2.842      8.604
REMARK INTER + INTRA:         -12.214
REMARK INTER:                 -10.606
REMARK INTRA:                  -1.609
REMARK UNBOUND:                -1.881
REMARK  Name = 
REMARK  11 active torsions:
REMARK  status: ('A' for Active; 'I' for Inactive)
REMARK    1  A    between atoms: C_1  and  C_2
REMARK    2  A    between atoms: C_2  and  N_3
REMARK    3  A    between atoms: N_3  and  C_4
REMARK    4  A    between atoms: C_4  and  C_5
REMARK    5  A    between atoms: C_5  and  N_6
REMARK    6  A    between atoms: C_5  and  C_28
REMARK    7  A    between atoms: N_6  and  C_7
REMARK    8  A    between atoms: C_7  and  C_8
REMARK    9  A    between atoms: C_11  and  C_12
REMARK   10  A    between atoms: C_12  and  N_13
REMARK   11  A    between atoms: C_14  and  C_16
REMARK                            x       y       z     vdW  Elec       q    Type
REMARK                         _______ _______ _______ _____ _____    ______ ____
ROOT
ATOM      1  C   UNL     1      49.401   7.956  16.104  0.00  0.00    +0.000 A 
ATOM      2  C   UNL     1      48.436   8.896  15.738  0.00  0.00    +0.000 A 
ATOM      3  C   UNL     1      47.874   8.852  14.466  0.00  0.00    +0.000 A 
ATOM      4  C   UNL     1      48.315   7.885  13.570  0.00  0.00    +0.000 A 
ATOM      5  N   UNL     1      49.246   6.955  13.901  0.00  0.00    +0.000 NA
ATOM      6  C   UNL     1      49.757   7.008  15.151  0.00  0.00    +0.000 A 
ENDROOT
BRANCH   1   7
ATOM      7  C   UNL     1      50.095   7.998  17.440  0.00  0.00    +0.000 C 
BRANCH   7   8
ATOM      8  N   UNL     1      49.251   7.475  18.516  0.00  0.00    +0.000 NA
ATOM      9  H   UNL     1      49.685   7.662  19.417  0.00  0.00    +0.000 HD
BRANCH   8  10
ATOM     10  C   UNL     1      49.057   6.002  18.427  0.00  0.00    +0.000 C 
BRANCH  10  11
ATOM     11  C   UNL     1      50.329   5.214  18.726  0.00  0.00    +0.000 A 
ATOM     12  C   UNL     1      50.845   4.343  17.768  0.00  0.00    +0.000 A 
ATOM     13  C   UNL     1      52.023   3.656  18.048  0.00  0.00    +0.000 A 
ATOM     14  C   UNL     1      52.662   3.866  19.263  0.00  0.00    +0.000 A 
ATOM     15  C   UNL     1      52.096   4.761  20.153  0.00  0.00    +0.000 A 
ATOM     16  N   UNL     1      50.955   5.440  19.912  0.00  0.00    +0.000 NA
ENDBRANCH  10  11
BRANCH  10  17
ATOM     17  C   UNL     1      47.839   5.461  19.242  0.00  0.00    +0.000 C 
BRANCH  17  18
ATOM     18  N   UNL     1      46.711   5.076  18.367  0.00  0.00    +0.000 NA
ATOM     19  H   UNL     1      46.093   4.458  18.887  0.00  0.00    +0.000 HD
BRANCH  18  21
ATOM     20  C   UNL     1      47.343   2.889  17.537  0.00  0.00    +0.000 C 
ATOM     21  C   UNL     1      47.192   4.361  17.185  0.00  0.00    +0.000 C 
ENDBRANCH  18  21
ENDBRANCH  17  18
ENDBRANCH  10  17
ENDBRANCH   8  10
ENDBRANCH   7   8
ENDBRANCH   1   7
BRANCH   4  22
ATOM     22  C   UNL     1      47.733   7.813  12.182  0.00  0.00    +0.000 C 
BRANCH  22  23
ATOM     23  N   UNL     1      46.992   6.592  11.978  0.00  0.00    +0.000 N 
ATOM     24  C   UNL     1      45.628   6.527  12.052  0.00  0.00    +0.000 C 
ATOM     25  O   UNL     1      44.934   7.519  12.264  0.00  0.00    +0.000 OA
ATOM     26  H   UNL     1      47.538   5.743  12.092  0.00  0.00    +0.000 HD
BRANCH  24  27
ATOM     27  C   UNL     1      45.032   5.215  11.773  0.00  0.00    +0.000 A 
ATOM     28  C   UNL     1      44.348   4.539  12.775  0.00  0.00    +0.000 A 
ATOM     29  S   UNL     1      43.643   3.076  12.252  0.00  0.00    +0.000 S 
ATOM     30  C   UNL     1      44.269   3.269  10.682  0.00  0.00    +0.000 A 
ATOM     31  N   UNL     1      44.036   2.341   9.715  0.00  0.00    +0.000 NA
ATOM     32  C   UNL     1      44.596   2.599   8.581  0.00  0.00    +0.000 A 
ATOM     33  N   UNL     1      45.366   3.705   8.325  0.00  0.00    +0.000 N 
ATOM     34  C   UNL     1      45.593   4.684   9.258  0.00  0.00    +0.000 A 
ATOM     35  O   UNL     1      46.230   5.693   8.971  0.00  0.00    +0.000 OA
ATOM     36  C   UNL     1      44.998   4.437  10.556  0.00  0.00    +0.000 A 
ATOM     37  H   UNL     1      45.772   3.857   7.414  0.00  0.00    +0.000 HD
ENDBRANCH  24  27
ENDBRANCH  22  23
ENDBRANCH   4  22
TORSDOF 10
ENDMDL
MODEL 4
REMARK VINA RESULT:    -6.146      5.015      9.474
REMARK INTER + INTRA:         -11.620
REMARK INTER:                 -10.273
REMARK INTRA:                  -1.347
REMARK UNBOUND:                -1.881
REMARK  Name = 
REMARK  11 active torsions:
REMARK  status: ('A' for Active; 'I' for Inactive)
REMARK    1  A    between atoms: C_1  and  C_2
REMARK    2  A    between atoms: C_2  and  N_3
REMARK    3  A    between atoms: N_3  and  C_4
REMARK    4  A    between atoms: C_4  and  C_5
REMARK    5  A    between atoms: C_5  and  N_6
REMARK    6  A    between atoms: C_5  and  C_28
REMARK    7  A    between atoms: N_6  and  C_7
REMARK    8  A    between atoms: C_7  and  C_8
REMARK    9  A    between atoms: C_11  and  C_12
REMARK   10  A    between atoms: C_12  and  N_13
REMARK   11  A    between atoms: C_14  and  C_16
REMARK                            x       y       z     vdW  Elec       q    Type
REMARK                         _______ _______ _______ _____ _____    ______ ____
ROOT
ATOM      1  C   UNL     1      51.217   2.291  17.417  0.00  0.00    +0.000 A 
ATOM      2  C   UNL     1      51.789   3.519  17.753  0.00  0.00    +0.000 A 
ATOM      3  C   UNL     1      51.008   4.670  17.753  0.00  0.00    +0.000 A 
ATOM      4  C   UNL     1      49.672   4.575  17.381  0.00  0.00    +0.000 A 
ATOM      5  N   UNL     1      49.087   3.394  17.057  0.00  0.00    +0.000 NA
ATOM      6  C   UNL     1      49.865   2.289  17.090  0.00  0.00    +0.000 A 
ENDROOT
BRANCH   1   7
ATOM      7  C   UNL     1      52.027   1.024  17.332  0.00  0.00    +0.000 C 
BRANCH   7   8
ATOM      8  N   UNL     1      52.882   0.836  18.506  0.00  0.00    +0.000 NA
ATOM      9  H   UNL     1      52.868   1.675  19.081  0.00  0.00    +0.000 HD
BRANCH   8  10
ATOM     10  C   UNL     1      54.302   0.582  18.146  0.00  0.00    +0.000 C 
BRANCH  10  11
ATOM     11  C   UNL     1      54.553  -0.851  17.685  0.00  0.00    +0.000 A 
ATOM     12  C   UNL     1      54.427  -1.903  18.591  0.00  0.00    +0.000 A 
ATOM     13  C   UNL     1      54.630  -3.205  18.143  0.00  0.00    +0.000 A 
ATOM     14  C   UNL     1      54.935  -3.427  16.806  0.00  0.00    +0.000 A 
ATOM     15  C   UNL     1      55.023  -2.332  15.966  0.00  0.00    +0.000 A 
ATOM     16  N   UNL     1      54.834  -1.057  16.370  0.00  0.00    +0.000 NA
ENDBRANCH  10  11
BRANCH  10  17
ATOM     17  C   UNL     1      54.914   1.621  17.153  0.00  0.00    +0.000 C 
BRANCH  17  18
ATOM     18  N   UNL     1      55.262   2.892  17.823  0.00  0.00    +0.000 NA
ATOM     19  H   UNL     1      54.510   3.140  18.460  0.00  0.00    +0.000 HD
BRANCH  18  21
ATOM     20  C   UNL     1      55.275   5.301  17.565  0.00  0.00    +0.000 C 
ATOM     21  C   UNL     1      55.414   3.969  16.845  0.00  0.00    +0.000 C 
ENDBRANCH  18  21
ENDBRANCH  17  18
ENDBRANCH  10  17
ENDBRANCH   8  10
ENDBRANCH   7   8
ENDBRANCH   1   7
BRANCH   4  22
ATOM     22  C   UNL     1      48.799   5.804  17.363  0.00  0.00    +0.000 C 
BRANCH  22  23
ATOM     23  N   UNL     1      47.955   5.840  16.194  0.00  0.00    +0.000 N 
ATOM     24  C   UNL     1      48.390   6.282  14.974  0.00  0.00    +0.000 C 
ATOM     25  O   UNL     1      49.546   6.649  14.783  0.00  0.00    +0.000 OA
ATOM     26  H   UNL     1      46.958   5.823  16.391  0.00  0.00    +0.000 HD
BRANCH  24  27
ATOM     27  C   UNL     1      47.413   6.209  13.880  0.00  0.00    +0.000 A 
ATOM     28  C   UNL     1      47.043   7.364  13.205  0.00  0.00    +0.000 A 
ATOM     29  S   UNL     1      45.974   7.083  11.906  0.00  0.00    +0.000 S 
ATOM     30  C   UNL     1      45.927   5.414  12.232  0.00  0.00    +0.000 A 
ATOM     31  N   UNL     1      45.173   4.572  11.474  0.00  0.00    +0.000 NA
ATOM     32  C   UNL     1      45.208   3.338  11.852  0.00  0.00    +0.000 A 
ATOM     33  N   UNL     1      45.932   2.868  12.918  0.00  0.00    +0.000 N 
ATOM     34  C   UNL     1      46.736   3.674  13.683  0.00  0.00    +0.000 A 
ATOM     35  O   UNL     1      47.423   3.205  14.585  0.00  0.00    +0.000 OA
ATOM     36  C   UNL     1      46.724   5.075  13.310  0.00  0.00    +0.000 A 
ATOM     37  H   UNL     1      45.926   1.889  13.161  0.00  0.00    +0.000 HD
ENDBRANCH  24  27
ENDBRANCH  22  23
ENDBRANCH   4  22
TORSDOF 10
ENDMDL
MODEL 5
REMARK VINA RESULT:    -6.075      2.890      8.558
REMARK INTER + INTRA:         -11.508
REMARK INTER:                  -9.708
REMARK INTRA:                  -1.800
REMARK UNBOUND:                -1.881
REMARK  Name = 
REMARK  11 active torsions:
REMARK  status: ('A' for Active; 'I' for Inactive)
REMARK    1  A    between atoms: C_1  and  C_2
REMARK    2  A    between atoms: C_2  and  N_3
REMARK    3  A    between atoms: N_3  and  C_4
REMARK    4  A    between atoms: C_4  and  C_5
REMARK    5  A    between atoms: C_5  and  N_6
REMARK    6  A    between atoms: C_5  and  C_28
REMARK    7  A    between atoms: N_6  and  C_7
REMARK    8  A    between atoms: C_7  and  C_8
REMARK    9  A    between atoms: C_11  and  C_12
REMARK   10  A    between atoms: C_12  and  N_13
REMARK   11  A    between atoms: C_14  and  C_16
REMARK                            x       y       z     vdW  Elec       q    Type
REMARK                         _______ _______ _______ _____ _____    ______ ____
ROOT
ATOM      1  C   UNL     1      49.567   8.003  15.600  0.00  0.00    +0.000 A 
ATOM      2  C   UNL     1      48.628   9.023  15.436  0.00  0.00    +0.000 A 
ATOM      3  C   UNL     1      47.810   9.037  14.311  0.00  0.00    +0.000 A 
ATOM      4  C   UNL     1      47.972   8.044  13.351  0.00  0.00    +0.000 A 
ATOM      5  N   UNL     1      48.871   7.037  13.487  0.00  0.00    +0.000 NA
ATOM      6  C   UNL     1      49.635   7.036  14.603  0.00  0.00    +0.000 A 
ENDROOT
BRANCH   1   7
ATOM      7  C   UNL     1      50.526   7.975  16.762  0.00  0.00    +0.000 C 
BRANCH   7   8
ATOM      8  N   UNL     1      49.980   7.251  17.910  0.00  0.00    +0.000 NA
ATOM      9  H   UNL     1      50.219   7.738  18.771  0.00  0.00    +0.000 HD
BRANCH   8  10
ATOM     10  C   UNL     1      50.522   5.871  18.029  0.00  0.00    +0.000 C 
BRANCH  10  11
ATOM     11  C   UNL     1      49.491   4.794  17.705  0.00  0.00    +0.000 A 
ATOM     12  C   UNL     1      48.131   5.094  17.777  0.00  0.00    +0.000 A 
ATOM     13  C   UNL     1      47.207   4.106  17.448  0.00  0.00    +0.000 A 
ATOM     14  C   UNL     1      47.658   2.857  17.042  0.00  0.00    +0.000 A 
ATOM     15  C   UNL     1      49.023   2.645  16.978  0.00  0.00    +0.000 A 
ATOM     16  N   UNL     1      49.945   3.581  17.293  0.00  0.00    +0.000 NA
ENDBRANCH  10  11
BRANCH  10  17
ATOM     17  C   UNL     1      51.861   5.635  17.260  0.00  0.00    +0.000 C 
BRANCH  17  18
ATOM     18  N   UNL     1      52.741   4.673  17.958  0.00  0.00    +0.000 NA
ATOM     19  H   UNL     1      52.182   3.876  18.253  0.00  0.00    +0.000 HD
BRANCH  18  21
ATOM     20  C   UNL     1      54.096   6.531  18.721  0.00  0.00    +0.000 C 
ATOM     21  C   UNL     1      53.339   5.283  19.145  0.00  0.00    +0.000 C 
ENDBRANCH  18  21
ENDBRANCH  17  18
ENDBRANCH  10  17
ENDBRANCH   8  10
ENDBRANCH   7   8
ENDBRANCH   1   7
BRANCH   4  22
ATOM     22  C   UNL     1      47.108   8.033  12.116  0.00  0.00    +0.000 C 
BRANCH  22  23
ATOM     23  N   UNL     1      46.489   6.747  11.911  0.00  0.00    +0.000 N 
ATOM     24  C   UNL     1      45.149   6.592  11.685  0.00  0.00    +0.000 C 
ATOM     25  O   UNL     1      44.382   7.548  11.607  0.00  0.00    +0.000 OA
ATOM     26  H   UNL     1      47.031   5.958  12.252  0.00  0.00    +0.000 HD
BRANCH  24  27
ATOM     27  C   UNL     1      44.692   5.216  11.451  0.00  0.00    +0.000 A 
ATOM     28  C   UNL     1      43.947   4.561  12.423  0.00  0.00    +0.000 A 
ATOM     29  S   UNL     1      43.423   3.008  11.948  0.00  0.00    +0.000 S 
ATOM     30  C   UNL     1      44.216   3.137  10.449  0.00  0.00    +0.000 A 
ATOM     31  N   UNL     1      44.172   2.123   9.542  0.00  0.00    +0.000 NA
ATOM     32  C   UNL     1      44.842   2.343   8.461  0.00  0.00    +0.000 A 
ATOM     33  N   UNL     1      45.551   3.488   8.203  0.00  0.00    +0.000 N 
ATOM     34  C   UNL     1      45.590   4.550   9.069  0.00  0.00    +0.000 A 
ATOM     35  O   UNL     1      46.178   5.585   8.773  0.00  0.00    +0.000 OA
ATOM     36  C   UNL     1      44.864   4.351  10.308  0.00  0.00    +0.000 A 
ATOM     37  H   UNL     1      46.051   3.606   7.334  0.00  0.00    +0.000 HD
ENDBRANCH  24  27
ENDBRANCH  22  23
ENDBRANCH   4  22
TORSDOF 10
ENDMDL
MODEL 6
REMARK VINA RESULT:    -6.034      3.766      8.802
REMARK INTER + INTRA:         -11.442
REMARK INTER:                  -9.523
REMARK INTRA:                  -1.919
REMARK UNBOUND:                -1.881
REMARK  Name = 
REMARK  11 active torsions:
REMARK  status: ('A' for Active; 'I' for Inactive)
REMARK    1  A    between atoms: C_1  and  C_2
REMARK    2  A    between atoms: C_2  and  N_3
REMARK    3  A    between atoms: N_3  and  C_4
REMARK    4  A    between atoms: C_4  and  C_5
REMARK    5  A    between atoms: C_5  and  N_6
REMARK    6  A    between atoms: C_5  and  C_28
REMARK    7  A    between atoms: N_6  and  C_7
REMARK    8  A    between atoms: C_7  and  C_8
REMARK    9  A    between atoms: C_11  and  C_12
REMARK   10  A    between atoms: C_12  and  N_13
REMARK   11  A    between atoms: C_14  and  C_16
REMARK                            x       y       z     vdW  Elec       q    Type
REMARK                         _______ _______ _______ _____ _____    ______ ____
ROOT
ATOM      1  C   UNL     1      51.011   4.867  18.293  0.00  0.00    +0.000 A 
ATOM      2  C   UNL     1      49.844   5.575  18.584  0.00  0.00    +0.000 A 
ATOM      3  C   UNL     1      48.626   5.145  18.068  0.00  0.00    +0.000 A 
ATOM      4  C   UNL     1      48.605   4.030  17.237  0.00  0.00    +0.000 A 
ATOM      5  N   UNL     1      49.722   3.318  16.943  0.00  0.00    +0.000 NA
ATOM      6  C   UNL     1      50.887   3.745  17.480  0.00  0.00    +0.000 A 
ENDROOT
BRANCH   1   7
ATOM      7  C   UNL     1      52.366   5.324  18.766  0.00  0.00    +0.000 C 
BRANCH   7   8
ATOM      8  N   UNL     1      52.746   6.614  18.188  0.00  0.00    +0.000 NA
ATOM      9  H   UNL     1      52.096   7.334  18.495  0.00  0.00    +0.000 HD
BRANCH   8  10
ATOM     10  C   UNL     1      52.713   6.608  16.701  0.00  0.00    +0.000 C 
BRANCH  10  11
ATOM     11  C   UNL     1      51.634   7.520  16.124  0.00  0.00    +0.000 A 
ATOM     12  C   UNL     1      51.618   8.873  16.460  0.00  0.00    +0.000 A 
ATOM     13  C   UNL     1      50.644   9.694  15.899  0.00  0.00    +0.000 A 
ATOM     14  C   UNL     1      49.725   9.152  15.009  0.00  0.00    +0.000 A 
ATOM     15  C   UNL     1      49.821   7.805  14.712  0.00  0.00    +0.000 A 
ATOM     16  N   UNL     1      50.751   6.983  15.240  0.00  0.00    +0.000 NA
ENDBRANCH  10  11
BRANCH  10  17
ATOM     17  C   UNL     1      54.098   6.855  16.023  0.00  0.00    +0.000 C 
BRANCH  17  18
ATOM     18  N   UNL     1      54.034   6.703  14.554  0.00  0.00    +0.000 NA
ATOM     19  H   UNL     1      54.620   5.918  14.283  0.00  0.00    +0.000 HD
BRANCH  18  21
ATOM     20  C   UNL     1      53.397   8.531  13.096  0.00  0.00    +0.000 C 
ATOM     21  C   UNL     1      54.535   7.905  13.886  0.00  0.00    +0.000 C 
ENDBRANCH  18  21
ENDBRANCH  17  18
ENDBRANCH  10  17
ENDBRANCH   8  10
ENDBRANCH   7   8
ENDBRANCH   1   7
BRANCH   4  22
ATOM     22  C   UNL     1      47.304   3.541  16.654  0.00  0.00    +0.000 C 
BRANCH  22  23
ATOM     23  N   UNL     1      46.774   4.467  15.684  0.00  0.00    +0.000 N 
ATOM     24  C   UNL     1      46.787   4.223  14.338  0.00  0.00    +0.000 C 
ATOM     25  O   UNL     1      47.223   3.177  13.864  0.00  0.00    +0.000 OA
ATOM     26  H   UNL     1      46.685   5.423  16.016  0.00  0.00    +0.000 HD
BRANCH  24  27
ATOM     27  C   UNL     1      46.166   5.252  13.494  0.00  0.00    +0.000 A 
ATOM     28  C   UNL     1      46.846   6.433  13.230  0.00  0.00    +0.000 A 
ATOM     29  S   UNL     1      46.018   7.472  12.160  0.00  0.00    +0.000 S 
ATOM     30  C   UNL     1      44.700   6.404  12.052  0.00  0.00    +0.000 A 
ATOM     31  N   UNL     1      43.617   6.700  11.282  0.00  0.00    +0.000 NA
ATOM     32  C   UNL     1      42.678   5.815  11.317  0.00  0.00    +0.000 A 
ATOM     33  N   UNL     1      42.725   4.656  12.049  0.00  0.00    +0.000 N 
ATOM     34  C   UNL     1      43.812   4.299  12.805  0.00  0.00    +0.000 A 
ATOM     35  O   UNL     1      43.845   3.221  13.392  0.00  0.00    +0.000 OA
ATOM     36  C   UNL     1      44.892   5.266  12.814  0.00  0.00    +0.000 A 
ATOM     37  H   UNL     1      41.961   3.997  12.030  0.00  0.00    +0.000 HD
ENDBRANCH  24  27
ENDBRANCH  22  23
ENDBRANCH   4  22
TORSDOF 10
ENDMDL
MODEL 7
REMARK VINA RESULT:    -5.973      4.052      9.852
REMARK INTER + INTRA:         -11.345
REMARK INTER:                  -9.828
REMARK INTRA:                  -1.517
REMARK UNBOUND:                -1.881
REMARK  Name = 
REMARK  11 active torsions:
REMARK  status: ('A' for Active; 'I' for Inactive)
REMARK    1  A    between atoms: C_1  and  C_2
REMARK    2  A    between atoms: C_2  and  N_3
REMARK    3  A    between atoms: N_3  and  C_4
REMARK    4  A    between atoms: C_4  and  C_5
REMARK    5  A    between atoms: C_5  and  N_6
REMARK    6  A    between atoms: C_5  and  C_28
REMARK    7  A    between atoms: N_6  and  C_7
REMARK    8  A    between atoms: C_7  and  C_8
REMARK    9  A    between atoms: C_11  and  C_12
REMARK   10  A    between atoms: C_12  and  N_13
REMARK   11  A    between atoms: C_14  and  C_16
REMARK                            x       y       z     vdW  Elec       q    Type
REMARK                         _______ _______ _______ _____ _____    ______ ____
ROOT
ATOM      1  C   UNL     1      50.689   4.606  18.984  0.00  0.00    +0.000 A 
ATOM      2  C   UNL     1      49.430   4.745  19.573  0.00  0.00    +0.000 A 
ATOM      3  C   UNL     1      48.295   4.336  18.882  0.00  0.00    +0.000 A 
ATOM      4  C   UNL     1      48.438   3.826  17.596  0.00  0.00    +0.000 A 
ATOM      5  N   UNL     1      49.648   3.673  17.003  0.00  0.00    +0.000 NA
ATOM      6  C   UNL     1      50.736   4.056  17.708  0.00  0.00    +0.000 A 
ENDROOT
BRANCH   1   7
ATOM      7  C   UNL     1      51.946   5.095  19.655  0.00  0.00    +0.000 C 
BRANCH   7   8
ATOM      8  N   UNL     1      52.633   4.028  20.385  0.00  0.00    +0.000 NA
ATOM      9  H   UNL     1      52.743   4.293  21.360  0.00  0.00    +0.000 HD
BRANCH   8  10
ATOM     10  C   UNL     1      53.995   3.756  19.854  0.00  0.00    +0.000 C 
BRANCH  10  11
ATOM     11  C   UNL     1      54.154   2.336  19.319  0.00  0.00    +0.000 A 
ATOM     12  C   UNL     1      55.216   1.545  19.755  0.00  0.00    +0.000 A 
ATOM     13  C   UNL     1      55.325   0.242  19.278  0.00  0.00    +0.000 A 
ATOM     14  C   UNL     1      54.369  -0.243  18.395  0.00  0.00    +0.000 A 
ATOM     15  C   UNL     1      53.335   0.597  18.026  0.00  0.00    +0.000 A 
ATOM     16  N   UNL     1      53.202   1.866  18.468  0.00  0.00    +0.000 NA
ENDBRANCH  10  11
BRANCH  10  17
ATOM     17  C   UNL     1      54.516   4.817  18.833  0.00  0.00    +0.000 C 
BRANCH  17  18
ATOM     18  N   UNL     1      54.874   4.211  17.534  0.00  0.00    +0.000 NA
ATOM     19  H   UNL     1      55.808   3.815  17.606  0.00  0.00    +0.000 HD
BRANCH  18  21
ATOM     20  C   UNL     1      53.889   6.312  16.838  0.00  0.00    +0.000 C 
ATOM     21  C   UNL     1      54.881   5.219  16.474  0.00  0.00    +0.000 C 
ENDBRANCH  18  21
ENDBRANCH  17  18
ENDBRANCH  10  17
ENDBRANCH   8  10
ENDBRANCH   7   8
ENDBRANCH   1   7
BRANCH   4  22
ATOM     22  C   UNL     1      47.227   3.380  16.817  0.00  0.00    +0.000 C 
BRANCH  22  23
ATOM     23  N   UNL     1      46.825   4.368  15.847  0.00  0.00    +0.000 N 
ATOM     24  C   UNL     1      46.871   4.149  14.497  0.00  0.00    +0.000 C 
ATOM     25  O   UNL     1      47.229   3.077  14.018  0.00  0.00    +0.000 OA
ATOM     26  H   UNL     1      46.809   5.322  16.197  0.00  0.00    +0.000 HD
BRANCH  24  27
ATOM     27  C   UNL     1      46.382   5.246  13.652  0.00  0.00    +0.000 A 
ATOM     28  C   UNL     1      47.183   6.358  13.429  0.00  0.00    +0.000 A 
ATOM     29  S   UNL     1      46.497   7.489  12.352  0.00  0.00    +0.000 S 
ATOM     30  C   UNL     1      45.083   6.558  12.186  0.00  0.00    +0.000 A 
ATOM     31  N   UNL     1      44.060   6.971  11.389  0.00  0.00    +0.000 NA
ATOM     32  C   UNL     1      43.038   6.183  11.380  0.00  0.00    +0.000 A 
ATOM     33  N   UNL     1      42.947   5.015  12.094  0.00  0.00    +0.000 N 
ATOM     34  C   UNL     1      43.968   4.541  12.877  0.00  0.00    +0.000 A 
ATOM     35  O   UNL     1      43.876   3.458  13.445  0.00  0.00    +0.000 OA
ATOM     36  C   UNL     1      45.138   5.396  12.934  0.00  0.00    +0.000 A 
ATOM     37  H   UNL     1      42.123   4.435  12.040  0.00  0.00    +0.000 HD
ENDBRANCH  24  27
ENDBRANCH  22  23
ENDBRANCH   4  22
TORSDOF 10
ENDMDL
MODEL 8
REMARK VINA RESULT:    -5.673      3.852      9.394
REMARK INTER + INTRA:         -10.871
REMARK INTER:                  -9.347
REMARK INTRA:                  -1.524
REMARK UNBOUND:                -1.881
REMARK  Name = 
REMARK  11 active torsions:
REMARK  status: ('A' for Active; 'I' for Inactive)
REMARK    1  A    between atoms: C_1  and  C_2
REMARK    2  A    between atoms: C_2  and  N_3
REMARK    3  A    between atoms: N_3  and  C_4
REMARK    4  A    between atoms: C_4  and  C_5
REMARK    5  A    between atoms: C_5  and  N_6
REMARK    6  A    between atoms: C_5  and  C_28
REMARK    7  A    between atoms: N_6  and  C_7
REMARK    8  A    between atoms: C_7  and  C_8
REMARK    9  A    between atoms: C_11  and  C_12
REMARK   10  A    between atoms: C_12  and  N_13
REMARK   11  A    between atoms: C_14  and  C_16
REMARK                            x       y       z     vdW  Elec       q    Type
REMARK                         _______ _______ _______ _____ _____    ______ ____
ROOT
ATOM      1  C   UNL     1      51.352   3.972  17.527  0.00  0.00    +0.000 A 
ATOM      2  C   UNL     1      50.848   2.677  17.390  0.00  0.00    +0.000 A 
ATOM      3  C   UNL     1      49.497   2.484  17.126  0.00  0.00    +0.000 A 
ATOM      4  C   UNL     1      48.665   3.595  17.037  0.00  0.00    +0.000 A 
ATOM      5  N   UNL     1      49.128   4.865  17.158  0.00  0.00    +0.000 NA
ATOM      6  C   UNL     1      50.450   5.022  17.390  0.00  0.00    +0.000 A 
ENDROOT
BRANCH   1   7
ATOM      7  C   UNL     1      52.791   4.240  17.882  0.00  0.00    +0.000 C 
BRANCH   7   8
ATOM      8  N   UNL     1      53.111   5.668  17.849  0.00  0.00    +0.000 NA
ATOM      9  H   UNL     1      52.302   6.195  17.529  0.00  0.00    +0.000 HD
BRANCH   8  10
ATOM     10  C   UNL     1      54.230   5.984  16.921  0.00  0.00    +0.000 C 
BRANCH  10  11
ATOM     11  C   UNL     1      53.791   6.813  15.718  0.00  0.00    +0.000 A 
ATOM     12  C   UNL     1      52.518   7.381  15.695  0.00  0.00    +0.000 A 
ATOM     13  C   UNL     1      52.148   8.159  14.602  0.00  0.00    +0.000 A 
ATOM     14  C   UNL     1      53.057   8.365  13.572  0.00  0.00    +0.000 A 
ATOM     15  C   UNL     1      54.307   7.783  13.679  0.00  0.00    +0.000 A 
ATOM     16  N   UNL     1      54.695   7.021  14.724  0.00  0.00    +0.000 NA
ENDBRANCH  10  11
BRANCH  10  17
ATOM     17  C   UNL     1      55.490   6.595  17.612  0.00  0.00    +0.000 C 
BRANCH  17  18
ATOM     18  N   UNL     1      55.474   8.073  17.593  0.00  0.00    +0.000 NA
ATOM     19  H   UNL     1      56.190   8.397  16.948  0.00  0.00    +0.000 HD
BRANCH  18  21
ATOM     20  C   UNL     1      54.981   7.821  19.952  0.00  0.00    +0.000 C 
ATOM     21  C   UNL     1      55.768   8.613  18.920  0.00  0.00    +0.000 C 
ENDBRANCH  18  21
ENDBRANCH  17  18
ENDBRANCH  10  17
ENDBRANCH   8  10
ENDBRANCH   7   8
ENDBRANCH   1   7
BRANCH   4  22
ATOM     22  C   UNL     1      47.193   3.422  16.759  0.00  0.00    +0.000 C 
BRANCH  22  23
ATOM     23  N   UNL     1      46.721   4.372  15.781  0.00  0.00    +0.000 N 
ATOM     24  C   UNL     1      46.758   4.136  14.435  0.00  0.00    +0.000 C 
ATOM     25  O   UNL     1      47.167   3.077  13.965  0.00  0.00    +0.000 OA
ATOM     26  H   UNL     1      46.658   5.329  16.118  0.00  0.00    +0.000 HD
BRANCH  24  27
ATOM     27  C   UNL     1      46.195   5.191  13.583  0.00  0.00    +0.000 A 
ATOM     28  C   UNL     1      46.937   6.334  13.317  0.00  0.00    +0.000 A 
ATOM     29  S   UNL     1      46.169   7.409  12.238  0.00  0.00    +0.000 S 
ATOM     30  C   UNL     1      44.797   6.410  12.127  0.00  0.00    +0.000 A 
ATOM     31  N   UNL     1      43.735   6.758  11.351  0.00  0.00    +0.000 NA
ATOM     32  C   UNL     1      42.752   5.923  11.385  0.00  0.00    +0.000 A 
ATOM     33  N   UNL     1      42.735   4.767  12.123  0.00  0.00    +0.000 N 
ATOM     34  C   UNL     1      43.798   4.357  12.887  0.00  0.00    +0.000 A 
ATOM     35  O   UNL     1      43.773   3.283  13.478  0.00  0.00    +0.000 OA
ATOM     36  C   UNL     1      44.927   5.267  12.896  0.00  0.00    +0.000 A 
ATOM     37  H   UNL     1      41.938   4.148  12.103  0.00  0.00    +0.000 HD
ENDBRANCH  24  27
ENDBRANCH  22  23
ENDBRANCH   4  22
TORSDOF 10
ENDMDL
MODEL 9
REMARK VINA RESULT:    -5.604      3.879      9.626
REMARK INTER + INTRA:         -10.761
REMARK INTER:                  -9.070
REMARK INTRA:                  -1.691
REMARK UNBOUND:                -1.881
REMARK  Name = 
REMARK  11 active torsions:
REMARK  status: ('A' for Active; 'I' for Inactive)
REMARK    1  A    between atoms: C_1  and  C_2
REMARK    2  A    between atoms: C_2  and  N_3
REMARK    3  A    between atoms: N_3  and  C_4
REMARK    4  A    between atoms: C_4  and  C_5
REMARK    5  A    between atoms: C_5  and  N_6
REMARK    6  A    between atoms: C_5  and  C_28
REMARK    7  A    between atoms: N_6  and  C_7
REMARK    8  A    between atoms: C_7  and  C_8
REMARK    9  A    between atoms: C_11  and  C_12
REMARK   10  A    between atoms: C_12  and  N_13
REMARK   11  A    between atoms: C_14  and  C_16
REMARK                            x       y       z     vdW  Elec       q    Type
REMARK                         _______ _______ _______ _____ _____    ______ ____
ROOT
ATOM      1  C   UNL     1      49.938   5.246  19.295  0.00  0.00    +0.000 A 
ATOM      2  C   UNL     1      50.402   4.366  18.316  0.00  0.00    +0.000 A 
ATOM      3  C   UNL     1      49.504   3.782  17.429  0.00  0.00    +0.000 A 
ATOM      4  C   UNL     1      48.149   4.064  17.561  0.00  0.00    +0.000 A 
ATOM      5  N   UNL     1      47.671   4.922  18.498  0.00  0.00    +0.000 NA
ATOM      6  C   UNL     1      48.569   5.493  19.330  0.00  0.00    +0.000 A 
ENDROOT
BRANCH   1   7
ATOM      7  C   UNL     1      50.852   5.854  20.327  0.00  0.00    +0.000 C 
BRANCH   7   8
ATOM      8  N   UNL     1      50.666   7.301  20.445  0.00  0.00    +0.000 NA
ATOM      9  H   UNL     1      49.703   7.504  20.704  0.00  0.00    +0.000 HD
BRANCH   8  10
ATOM     10  C   UNL     1      50.933   8.020  19.171  0.00  0.00    +0.000 C 
BRANCH  10  11
ATOM     11  C   UNL     1      49.794   8.947  18.758  0.00  0.00    +0.000 A 
ATOM     12  C   UNL     1      49.044   8.659  17.619  0.00  0.00    +0.000 A 
ATOM     13  C   UNL     1      47.990   9.500  17.277  0.00  0.00    +0.000 A 
ATOM     14  C   UNL     1      47.699  10.593  18.084  0.00  0.00    +0.000 A 
ATOM     15  C   UNL     1      48.478  10.799  19.208  0.00  0.00    +0.000 A 
ATOM     16  N   UNL     1      49.508  10.003  19.565  0.00  0.00    +0.000 NA
ENDBRANCH  10  11
BRANCH  10  17
ATOM     17  C   UNL     1      52.315   8.746  19.117  0.00  0.00    +0.000 C 
BRANCH  17  18
ATOM     18  N   UNL     1      53.032   8.484  17.851  0.00  0.00    +0.000 NA
ATOM     19  H   UNL     1      52.628   9.066  17.122  0.00  0.00    +0.000 HD
BRANCH  18  21
ATOM     20  C   UNL     1      52.275   7.031  16.066  0.00  0.00    +0.000 C 
ATOM     21  C   UNL     1      52.890   7.083  17.455  0.00  0.00    +0.000 C 
ENDBRANCH  18  21
ENDBRANCH  17  18
ENDBRANCH  10  17
ENDBRANCH   8  10
ENDBRANCH   7   8
ENDBRANCH   1   7
BRANCH   4  22
ATOM     22  C   UNL     1      47.148   3.443  16.621  0.00  0.00    +0.000 C 
BRANCH  22  23
ATOM     23  N   UNL     1      46.665   4.396  15.652  0.00  0.00    +0.000 N 
ATOM     24  C   UNL     1      46.769   4.203  14.302  0.00  0.00    +0.000 C 
ATOM     25  O   UNL     1      47.254   3.183  13.820  0.00  0.00    +0.000 OA
ATOM     26  H   UNL     1      46.537   5.337  16.012  0.00  0.00    +0.000 HD
BRANCH  24  27
ATOM     27  C   UNL     1      46.185   5.252  13.457  0.00  0.00    +0.000 A 
ATOM     28  C   UNL     1      46.932   6.379  13.137  0.00  0.00    +0.000 A 
ATOM     29  S   UNL     1      46.133   7.447  12.074  0.00  0.00    +0.000 S 
ATOM     30  C   UNL     1      44.743   6.469  12.044  0.00  0.00    +0.000 A 
ATOM     31  N   UNL     1      43.652   6.822  11.310  0.00  0.00    +0.000 NA
ATOM     32  C   UNL     1      42.658   6.003  11.404  0.00  0.00    +0.000 A 
ATOM     33  N   UNL     1      42.657   4.861  12.163  0.00  0.00    +0.000 N 
ATOM     34  C   UNL     1      43.747   4.447  12.885  0.00  0.00    +0.000 A 
ATOM     35  O   UNL     1      43.731   3.383  13.496  0.00  0.00    +0.000 OA
ATOM     36  C   UNL     1      44.889   5.338  12.827  0.00  0.00    +0.000 A 
ATOM     37  H   UNL     1      41.850   4.255  12.190  0.00  0.00    +0.000 HD
ENDBRANCH  24  27
ENDBRANCH  22  23
ENDBRANCH   4  22
TORSDOF 10
ENDMDL
