MODEL 1
REMARK VINA RESULT:    -8.626      0.000      0.000
REMARK INTER + INTRA:         -12.426
REMARK INTER:                 -11.651
REMARK INTRA:                  -0.775
REMARK UNBOUND:                -0.775
REMARK  Name = 
REMARK  7 active torsions:
REMARK  status: ('A' for Active; 'I' for Inactive)
REMARK    1  A    between atoms: C_1  and  C_2
REMARK    2  A    between atoms: C_2  and  C_3
REMARK    3  A    between atoms: C_2  and  C_14
REMARK    4  A    between atoms: C_3  and  N_4
REMARK    5  A    between atoms: N_4  and  C_5
REMARK    6  A    between atoms: C_8  and  C_9
REMARK    7  A    between atoms: C_18  and  C_19
REMARK                            x       y       z     vdW  Elec       q    Type
REMARK                         _______ _______ _______ _____ _____    ______ ____
ROOT
ATOM      1  C   UNL     1      44.369   5.598  11.079  0.00  0.00    +0.000 C 
ENDROOT
BRANCH   1   3
ATOM      2  C   UNL     1      43.431   4.194  13.054  0.00  0.00    +0.000 C 
ATOM      3  C   UNL     1      44.582   4.810  12.327  0.00  0.00    +0.000 C 
BRANCH   3   4
ATOM      4  C   UNL     1      45.739   5.193  13.124  0.00  0.00    +0.000 A 
ATOM      5  N   UNL     1      46.398   6.304  12.757  0.00  0.00    +0.000 NA
ATOM      6  C   UNL     1      47.461   6.646  13.502  0.00  0.00    +0.000 A 
ATOM      7  C   UNL     1      47.894   5.910  14.577  0.00  0.00    +0.000 A 
ATOM      8  C   UNL     1      47.163   4.771  14.882  0.00  0.00    +0.000 A 
ATOM      9  N   UNL     1      46.069   4.411  14.160  0.00  0.00    +0.000 NA
BRANCH   8  10
ATOM     10  C   UNL     1      47.593   3.889  16.041  0.00  0.00    +0.000 C 
ATOM     11  F   UNL     1      47.930   2.622  15.654  0.00  0.00    +0.000 F 
ATOM     12  F   UNL     1      48.684   4.368  16.703  0.00  0.00    +0.000 F 
ATOM     13  F   UNL     1      46.617   3.730  16.980  0.00  0.00    +0.000 F 
ENDBRANCH   8  10
ENDBRANCH   3   4
ENDBRANCH   1   3
BRANCH   1  14
ATOM     14  N   UNL     1      43.758   4.761  10.053  0.00  0.00    +0.000 N 
ATOM     15  H   UNL     1      42.926   4.272  10.375  0.00  0.00    +0.000 HD
BRANCH  14  16
ATOM     16  C   UNL     1      44.580   3.925   9.284  0.00  0.00    +0.000 A 
ATOM     17  C   UNL     1      44.618   2.532   9.418  0.00  0.00    +0.000 A 
ATOM     18  C   UNL     1      45.511   1.754   8.673  0.00  0.00    +0.000 A 
ATOM     19  C   UNL     1      46.409   2.359   7.792  0.00  0.00    +0.000 A 
ATOM     20  C   UNL     1      46.415   3.751   7.674  0.00  0.00    +0.000 A 
ATOM     21  C   UNL     1      45.508   4.521   8.418  0.00  0.00    +0.000 A 
BRANCH  19  22
ATOM     22  C   UNL     1      47.356   1.489   7.044  0.00  0.00    +0.000 C 
ATOM     23  N   UNL     1      48.450   2.084   6.482  0.00  0.00    +0.000 N 
ATOM     24  O   UNL     1      47.152   0.291   6.901  0.00  0.00    +0.000 OA
ATOM     25  H   UNL     1      48.536   3.085   6.377  0.00  0.00    +0.000 HD
ATOM     26  H   UNL     1      49.024   1.496   5.892  0.00  0.00    +0.000 HD
ENDBRANCH  19  22
ENDBRANCH  14  16
ENDBRANCH   1  14
TORSDOF 6
ENDMDL
MODEL 2
REMARK VINA RESULT:    -8.333      3.711      4.339
REMARK INTER + INTRA:         -12.031
REMARK INTER:                 -10.934
REMARK INTRA:                  -1.097
REMARK UNBOUND:                -0.775
REMARK  Name = 
REMARK  7 active torsions:
REMARK  status: ('A' for Active; 'I' for Inactive)
REMARK    1  A    between atoms: C_1  and  C_2
REMARK    2  A    between atoms: C_2  and  C_3
REMARK    3  A    between atoms: C_2  and  C_14
REMARK    4  A    between atoms: C_3  and  N_4
REMARK    5  A    between atoms: N_4  and  C_5
REMARK    6  A    between atoms: C_8  and  C_9
REMARK    7  A    between atoms: C_18  and  C_19
REMARK                            x       y       z     vdW  Elec       q    Type
REMARK                         _______ _______ _______ _____ _____    ______ ____
ROOT
ATOM      1  C   UNL     1      43.706   4.726  11.406  0.00  0.00    +0.000 C 
ENDROOT
BRANCH   1   3
ATOM      2  C   UNL     1      45.793   4.073  12.810  0.00  0.00    +0.000 C 
ATOM      3  C   UNL     1      45.064   5.041  11.937  0.00  0.00    +0.000 C 
BRANCH   3   4
ATOM      4  C   UNL     1      45.349   6.456  12.135  0.00  0.00    +0.000 A 
ATOM      5  N   UNL     1      46.376   6.768  12.942  0.00  0.00    +0.000 NA
ATOM      6  C   UNL     1      46.628   8.075  13.113  0.00  0.00    +0.000 A 
ATOM      7  C   UNL     1      45.884   9.069  12.528  0.00  0.00    +0.000 A 
ATOM      8  C   UNL     1      44.835   8.659  11.718  0.00  0.00    +0.000 A 
ATOM      9  N   UNL     1      44.568   7.343  11.507  0.00  0.00    +0.000 NA
BRANCH   8  10
ATOM     10  C   UNL     1      43.947   9.698  11.053  0.00  0.00    +0.000 C 
ATOM     11  F   UNL     1      43.523  10.669  11.916  0.00  0.00    +0.000 F 
ATOM     12  F   UNL     1      44.567  10.360  10.037  0.00  0.00    +0.000 F 
ATOM     13  F   UNL     1      42.809   9.166  10.523  0.00  0.00    +0.000 F 
ENDBRANCH   8  10
ENDBRANCH   3   4
ENDBRANCH   1   3
BRANCH   1  14
ATOM     14  N   UNL     1      43.704   4.811   9.949  0.00  0.00    +0.000 N 
ATOM     15  H   UNL     1      42.769   4.855   9.550  0.00  0.00    +0.000 HD
BRANCH  14  16
ATOM     16  C   UNL     1      44.533   3.949   9.219  0.00  0.00    +0.000 A 
ATOM     17  C   UNL     1      44.553   2.558   9.387  0.00  0.00    +0.000 A 
ATOM     18  C   UNL     1      45.455   1.754   8.682  0.00  0.00    +0.000 A 
ATOM     19  C   UNL     1      46.380   2.329   7.809  0.00  0.00    +0.000 A 
ATOM     20  C   UNL     1      46.404   3.718   7.658  0.00  0.00    +0.000 A 
ATOM     21  C   UNL     1      45.488   4.514   8.362  0.00  0.00    +0.000 A 
BRANCH  19  22
ATOM     22  C   UNL     1      47.335   1.431   7.104  0.00  0.00    +0.000 C 
ATOM     23  N   UNL     1      48.446   2.002   6.550  0.00  0.00    +0.000 N 
ATOM     24  O   UNL     1      47.123   0.232   6.987  0.00  0.00    +0.000 OA
ATOM     25  H   UNL     1      48.543   2.999   6.421  0.00  0.00    +0.000 HD
ATOM     26  H   UNL     1      49.026   1.394   5.988  0.00  0.00    +0.000 HD
ENDBRANCH  19  22
ENDBRANCH  14  16
ENDBRANCH   1  14
TORSDOF 6
ENDMDL
MODEL 3
REMARK VINA RESULT:    -8.222      2.430      3.098
REMARK INTER + INTRA:         -11.881
REMARK INTER:                 -10.953
REMARK INTRA:                  -0.928
REMARK UNBOUND:                -0.775
REMARK  Name = 
REMARK  7 active torsions:
REMARK  status: ('A' for Active; 'I' for Inactive)
REMARK    1  A    between atoms: C_1  and  C_2
REMARK    2  A    between atoms: C_2  and  C_3
REMARK    3  A    between atoms: C_2  and  C_14
REMARK    4  A    between atoms: C_3  and  N_4
REMARK    5  A    between atoms: N_4  and  C_5
REMARK    6  A    between atoms: C_8  and  C_9
REMARK    7  A    between atoms: C_18  and  C_19
REMARK                            x       y       z     vdW  Elec       q    Type
REMARK                         _______ _______ _______ _____ _____    ______ ____
ROOT
ATOM      1  C   UNL     1      43.530   3.472  11.342  0.00  0.00    +0.000 C 
ENDROOT
BRANCH   1   3
ATOM      2  C   UNL     1      42.563   5.443  12.730  0.00  0.00    +0.000 C 
ATOM      3  C   UNL     1      43.637   4.438  12.473  0.00  0.00    +0.000 C 
BRANCH   3   4
ATOM      4  C   UNL     1      44.993   4.803  12.863  0.00  0.00    +0.000 A 
ATOM      5  N   UNL     1      45.619   3.996  13.734  0.00  0.00    +0.000 NA
ATOM      6  C   UNL     1      46.868   4.343  14.083  0.00  0.00    +0.000 A 
ATOM      7  C   UNL     1      47.495   5.469  13.611  0.00  0.00    +0.000 A 
ATOM      8  C   UNL     1      46.773   6.253  12.723  0.00  0.00    +0.000 A 
ATOM      9  N   UNL     1      45.515   5.916  12.333  0.00  0.00    +0.000 NA
BRANCH   8  10
ATOM     10  C   UNL     1      47.387   7.529  12.174  0.00  0.00    +0.000 C 
ATOM     11  F   UNL     1      48.215   7.310  11.109  0.00  0.00    +0.000 F 
ATOM     12  F   UNL     1      46.459   8.424  11.733  0.00  0.00    +0.000 F 
ATOM     13  F   UNL     1      48.149   8.192  13.091  0.00  0.00    +0.000 F 
ENDBRANCH   8  10
ENDBRANCH   3   4
ENDBRANCH   1   3
BRANCH   1  14
ATOM     14  N   UNL     1      43.736   4.159  10.072  0.00  0.00    +0.000 N 
ATOM     15  H   UNL     1      42.873   4.323   9.558  0.00  0.00    +0.000 HD
BRANCH  14  16
ATOM     16  C   UNL     1      44.764   3.724   9.224  0.00  0.00    +0.000 A 
ATOM     17  C   UNL     1      45.494   4.574   8.385  0.00  0.00    +0.000 A 
ATOM     18  C   UNL     1      46.461   4.072   7.505  0.00  0.00    +0.000 A 
ATOM     19  C   UNL     1      46.699   2.699   7.427  0.00  0.00    +0.000 A 
ATOM     20  C   UNL     1      45.953   1.831   8.228  0.00  0.00    +0.000 A 
ATOM     21  C   UNL     1      44.994   2.345   9.113  0.00  0.00    +0.000 A 
BRANCH  19  22
ATOM     22  C   UNL     1      47.718   2.216   6.457  0.00  0.00    +0.000 C 
ATOM     23  N   UNL     1      47.932   2.971   5.338  0.00  0.00    +0.000 N 
ATOM     24  O   UNL     1      48.320   1.165   6.627  0.00  0.00    +0.000 OA
ATOM     25  H   UNL     1      47.306   3.707   5.046  0.00  0.00    +0.000 HD
ATOM     26  H   UNL     1      48.550   2.573   4.643  0.00  0.00    +0.000 HD
ENDBRANCH  19  22
ENDBRANCH  14  16
ENDBRANCH   1  14
TORSDOF 6
ENDMDL
MODEL 4
REMARK VINA RESULT:    -7.960      2.593      3.206
REMARK INTER + INTRA:         -11.527
REMARK INTER:                 -10.613
REMARK INTRA:                  -0.914
REMARK UNBOUND:                -0.775
REMARK  Name = 
REMARK  7 active torsions:
REMARK  status: ('A' for Active; 'I' for Inactive)
REMARK    1  A    between atoms: C_1  and  C_2
REMARK    2  A    between atoms: C_2  and  C_3
REMARK    3  A    between atoms: C_2  and  C_14
REMARK    4  A    between atoms: C_3  and  N_4
REMARK    5  A    between atoms: N_4  and  C_5
REMARK    6  A    between atoms: C_8  and  C_9
REMARK    7  A    between atoms: C_18  and  C_19
REMARK                            x       y       z     vdW  Elec       q    Type
REMARK                         _______ _______ _______ _____ _____    ______ ____
ROOT
ATOM      1  C   UNL     1      43.828   4.920  11.389  0.00  0.00    +0.000 C 
ENDROOT
BRANCH   1   3
ATOM      2  C   UNL     1      45.759   3.900  12.796  0.00  0.00    +0.000 C 
ATOM      3  C   UNL     1      45.217   4.988  11.927  0.00  0.00    +0.000 C 
BRANCH   3   4
ATOM      4  C   UNL     1      45.746   6.328  12.138  0.00  0.00    +0.000 A 
ATOM      5  N   UNL     1      44.869   7.290  12.467  0.00  0.00    +0.000 NA
ATOM      6  C   UNL     1      45.371   8.520  12.660  0.00  0.00    +0.000 A 
ATOM      7  C   UNL     1      46.703   8.820  12.516  0.00  0.00    +0.000 A 
ATOM      8  C   UNL     1      47.539   7.770  12.165  0.00  0.00    +0.000 A 
ATOM      9  N   UNL     1      47.063   6.509  11.984  0.00  0.00    +0.000 NA
BRANCH   8  10
ATOM     10  C   UNL     1      49.022   8.025  11.962  0.00  0.00    +0.000 C 
ATOM     11  F   UNL     1      49.558   7.286  10.944  0.00  0.00    +0.000 F 
ATOM     12  F   UNL     1      49.306   9.322  11.656  0.00  0.00    +0.000 F 
ATOM     13  F   UNL     1      49.771   7.720  13.060  0.00  0.00    +0.000 F 
ENDBRANCH   8  10
ENDBRANCH   3   4
ENDBRANCH   1   3
BRANCH   1  14
ATOM     14  N   UNL     1      43.848   5.004   9.933  0.00  0.00    +0.000 N 
ATOM     15  H   UNL     1      42.923   5.104   9.522  0.00  0.00    +0.000 HD
BRANCH  14  16
ATOM     16  C   UNL     1      44.635   4.095   9.213  0.00  0.00    +0.000 A 
ATOM     17  C   UNL     1      44.605   2.709   9.413  0.00  0.00    +0.000 A 
ATOM     18  C   UNL     1      45.466   1.855   8.715  0.00  0.00    +0.000 A 
ATOM     19  C   UNL     1      46.400   2.374   7.817  0.00  0.00    +0.000 A 
ATOM     20  C   UNL     1      46.474   3.757   7.633  0.00  0.00    +0.000 A 
ATOM     21  C   UNL     1      45.598   4.604   8.330  0.00  0.00    +0.000 A 
BRANCH  19  22
ATOM     22  C   UNL     1      47.311   1.425   7.121  0.00  0.00    +0.000 C 
ATOM     23  N   UNL     1      48.328   1.956   6.379  0.00  0.00    +0.000 N 
ATOM     24  O   UNL     1      47.141   0.215   7.176  0.00  0.00    +0.000 OA
ATOM     25  H   UNL     1      48.366   2.931   6.120  0.00  0.00    +0.000 HD
ATOM     26  H   UNL     1      48.870   1.300   5.832  0.00  0.00    +0.000 HD
ENDBRANCH  19  22
ENDBRANCH  14  16
ENDBRANCH   1  14
TORSDOF 6
ENDMDL
MODEL 5
REMARK VINA RESULT:    -7.556      1.711      2.361
REMARK INTER + INTRA:         -10.980
REMARK INTER:                 -10.129
REMARK INTRA:                  -0.851
REMARK UNBOUND:                -0.775
REMARK  Name = 
REMARK  7 active torsions:
REMARK  status: ('A' for Active; 'I' for Inactive)
REMARK    1  A    between atoms: C_1  and  C_2
REMARK    2  A    between atoms: C_2  and  C_3
REMARK    3  A    between atoms: C_2  and  C_14
REMARK    4  A    between atoms: C_3  and  N_4
REMARK    5  A    between atoms: N_4  and  C_5
REMARK    6  A    between atoms: C_8  and  C_9
REMARK    7  A    between atoms: C_18  and  C_19
REMARK                            x       y       z     vdW  Elec       q    Type
REMARK                         _______ _______ _______ _____ _____    ______ ____
ROOT
ATOM      1  C   UNL     1      44.474   3.304  12.007  0.00  0.00    +0.000 C 
ENDROOT
BRANCH   1   3
ATOM      2  C   UNL     1      42.763   5.060  12.867  0.00  0.00    +0.000 C 
ATOM      3  C   UNL     1      44.172   4.594  12.691  0.00  0.00    +0.000 C 
BRANCH   3   4
ATOM      4  C   UNL     1      45.200   5.620  12.583  0.00  0.00    +0.000 A 
ATOM      5  N   UNL     1      45.128   6.454  11.534  0.00  0.00    +0.000 NA
ATOM      6  C   UNL     1      46.081   7.395  11.449  0.00  0.00    +0.000 A 
ATOM      7  C   UNL     1      47.103   7.516  12.357  0.00  0.00    +0.000 A 
ATOM      8  C   UNL     1      47.108   6.608  13.405  0.00  0.00    +0.000 A 
ATOM      9  N   UNL     1      46.145   5.657  13.531  0.00  0.00    +0.000 NA
BRANCH   8  10
ATOM     10  C   UNL     1      48.220   6.659  14.439  0.00  0.00    +0.000 C 
ATOM     11  F   UNL     1      49.468   6.678  13.882  0.00  0.00    +0.000 F 
ATOM     12  F   UNL     1      48.161   7.763  15.235  0.00  0.00    +0.000 F 
ATOM     13  F   UNL     1      48.218   5.584  15.278  0.00  0.00    +0.000 F 
ENDBRANCH   8  10
ENDBRANCH   3   4
ENDBRANCH   1   3
BRANCH   1  14
ATOM     14  N   UNL     1      43.957   3.325  10.643  0.00  0.00    +0.000 N 
ATOM     15  H   UNL     1      43.145   2.727  10.511  0.00  0.00    +0.000 HD
BRANCH  14  16
ATOM     16  C   UNL     1      44.858   3.212   9.575  0.00  0.00    +0.000 A 
ATOM     17  C   UNL     1      45.302   4.298   8.811  0.00  0.00    +0.000 A 
ATOM     18  C   UNL     1      46.146   4.116   7.710  0.00  0.00    +0.000 A 
ATOM     19  C   UNL     1      46.545   2.833   7.331  0.00  0.00    +0.000 A 
ATOM     20  C   UNL     1      46.081   1.733   8.056  0.00  0.00    +0.000 A 
ATOM     21  C   UNL     1      45.243   1.928   9.165  0.00  0.00    +0.000 A 
BRANCH  19  22
ATOM     22  C   UNL     1      47.421   2.692   6.137  0.00  0.00    +0.000 C 
ATOM     23  N   UNL     1      48.740   2.408   6.352  0.00  0.00    +0.000 N 
ATOM     24  O   UNL     1      46.993   2.860   5.003  0.00  0.00    +0.000 OA
ATOM     25  H   UNL     1      49.178   2.491   7.258  0.00  0.00    +0.000 HD
ATOM     26  H   UNL     1      49.337   2.420   5.535  0.00  0.00    +0.000 HD
ENDBRANCH  19  22
ENDBRANCH  14  16
ENDBRANCH   1  14
TORSDOF 6
ENDMDL
MODEL 6
REMARK VINA RESULT:    -7.389      4.338      7.225
REMARK INTER + INTRA:         -10.756
REMARK INTER:                  -9.835
REMARK INTRA:                  -0.921
REMARK UNBOUND:                -0.775
REMARK  Name = 
REMARK  7 active torsions:
REMARK  status: ('A' for Active; 'I' for Inactive)
REMARK    1  A    between atoms: C_1  and  C_2
REMARK    2  A    between atoms: C_2  and  C_3
REMARK    3  A    between atoms: C_2  and  C_14
REMARK    4  A    between atoms: C_3  and  N_4
REMARK    5  A    between atoms: N_4  and  C_5
REMARK    6  A    between atoms: C_8  and  C_9
REMARK    7  A    between atoms: C_18  and  C_19
REMARK                            x       y       z     vdW  Elec       q    Type
REMARK                         _______ _______ _______ _____ _____    ______ ____
ROOT
ATOM      1  C   UNL     1      44.871   6.534  11.044  0.00  0.00    +0.000 C 
ENDROOT
BRANCH   1   3
ATOM      2  C   UNL     1      42.638   5.401  11.739  0.00  0.00    +0.000 C 
ATOM      3  C   UNL     1      43.807   5.514  10.816  0.00  0.00    +0.000 C 
BRANCH   3   4
ATOM      4  C   UNL     1      44.237   4.297  10.141  0.00  0.00    +0.000 A 
ATOM      5  N   UNL     1      43.749   3.134  10.600  0.00  0.00    +0.000 NA
ATOM      6  C   UNL     1      44.152   2.021   9.967  0.00  0.00    +0.000 A 
ATOM      7  C   UNL     1      45.033   2.032   8.914  0.00  0.00    +0.000 A 
ATOM      8  C   UNL     1      45.498   3.275   8.510  0.00  0.00    +0.000 A 
ATOM      9  N   UNL     1      45.091   4.421   9.117  0.00  0.00    +0.000 NA
BRANCH   8  10
ATOM     10  C   UNL     1      46.496   3.370   7.368  0.00  0.00    +0.000 C 
ATOM     11  F   UNL     1      47.495   2.441   7.452  0.00  0.00    +0.000 F 
ATOM     12  F   UNL     1      45.928   3.182   6.144  0.00  0.00    +0.000 F 
ATOM     13  F   UNL     1      47.129   4.576   7.313  0.00  0.00    +0.000 F 
ENDBRANCH   8  10
ENDBRANCH   3   4
ENDBRANCH   1   3
BRANCH   1  14
ATOM     14  N   UNL     1      46.154   5.881  11.273  0.00  0.00    +0.000 N 
ATOM     15  H   UNL     1      46.263   5.013  10.752  0.00  0.00    +0.000 HD
BRANCH  14  16
ATOM     16  C   UNL     1      46.625   5.754  12.587  0.00  0.00    +0.000 A 
ATOM     17  C   UNL     1      47.570   6.612  13.162  0.00  0.00    +0.000 A 
ATOM     18  C   UNL     1      48.059   6.394  14.456  0.00  0.00    +0.000 A 
ATOM     19  C   UNL     1      47.629   5.291  15.196  0.00  0.00    +0.000 A 
ATOM     20  C   UNL     1      46.716   4.401  14.624  0.00  0.00    +0.000 A 
ATOM     21  C   UNL     1      46.225   4.635  13.331  0.00  0.00    +0.000 A 
BRANCH  19  22
ATOM     22  C   UNL     1      48.199   5.090  16.555  0.00  0.00    +0.000 C 
ATOM     23  N   UNL     1      47.372   5.298  17.623  0.00  0.00    +0.000 N 
ATOM     24  O   UNL     1      49.372   4.787  16.722  0.00  0.00    +0.000 OA
ATOM     25  H   UNL     1      46.481   5.767  17.543  0.00  0.00    +0.000 HD
ATOM     26  H   UNL     1      47.805   5.259  18.536  0.00  0.00    +0.000 HD
ENDBRANCH  19  22
ENDBRANCH  14  16
ENDBRANCH   1  14
TORSDOF 6
ENDMDL
MODEL 7
REMARK VINA RESULT:    -6.970      2.566      4.551
REMARK INTER + INTRA:         -10.189
REMARK INTER:                  -9.177
REMARK INTRA:                  -1.012
REMARK UNBOUND:                -0.775
REMARK  Name = 
REMARK  7 active torsions:
REMARK  status: ('A' for Active; 'I' for Inactive)
REMARK    1  A    between atoms: C_1  and  C_2
REMARK    2  A    between atoms: C_2  and  C_3
REMARK    3  A    between atoms: C_2  and  C_14
REMARK    4  A    between atoms: C_3  and  N_4
REMARK    5  A    between atoms: N_4  and  C_5
REMARK    6  A    between atoms: C_8  and  C_9
REMARK    7  A    between atoms: C_18  and  C_19
REMARK                            x       y       z     vdW  Elec       q    Type
REMARK                         _______ _______ _______ _____ _____    ______ ____
ROOT
ATOM      1  C   UNL     1      48.552   7.018  13.715  0.00  0.00    +0.000 C 
ENDROOT
BRANCH   1   3
ATOM      2  C   UNL     1      50.726   7.697  14.966  0.00  0.00    +0.000 C 
ATOM      3  C   UNL     1      49.293   7.276  14.984  0.00  0.00    +0.000 C 
BRANCH   3   4
ATOM      4  C   UNL     1      48.840   6.518  16.142  0.00  0.00    +0.000 A 
ATOM      5  N   UNL     1      48.668   7.193  17.290  0.00  0.00    +0.000 NA
ATOM      6  C   UNL     1      48.249   6.481  18.347  0.00  0.00    +0.000 A 
ATOM      7  C   UNL     1      48.019   5.129  18.302  0.00  0.00    +0.000 A 
ATOM      8  C   UNL     1      48.231   4.507  17.080  0.00  0.00    +0.000 A 
ATOM      9  N   UNL     1      48.634   5.204  15.985  0.00  0.00    +0.000 NA
BRANCH   8  10
ATOM     10  C   UNL     1      48.023   3.007  16.953  0.00  0.00    +0.000 C 
ATOM     11  F   UNL     1      46.931   2.558  17.642  0.00  0.00    +0.000 F 
ATOM     12  F   UNL     1      47.833   2.601  15.666  0.00  0.00    +0.000 F 
ATOM     13  F   UNL     1      49.073   2.281  17.430  0.00  0.00    +0.000 F 
ENDBRANCH   8  10
ENDBRANCH   3   4
ENDBRANCH   1   3
BRANCH   1  14
ATOM     14  N   UNL     1      47.143   6.768  13.997  0.00  0.00    +0.000 N 
ATOM     15  H   UNL     1      46.974   6.444  14.947  0.00  0.00    +0.000 HD
BRANCH  14  16
ATOM     16  C   UNL     1      46.384   6.048  13.066  0.00  0.00    +0.000 A 
ATOM     17  C   UNL     1      45.906   4.750  13.286  0.00  0.00    +0.000 A 
ATOM     18  C   UNL     1      45.214   4.051  12.290  0.00  0.00    +0.000 A 
ATOM     19  C   UNL     1      45.007   4.628  11.037  0.00  0.00    +0.000 A 
ATOM     20  C   UNL     1      45.511   5.907  10.783  0.00  0.00    +0.000 A 
ATOM     21  C   UNL     1      46.194   6.603  11.792  0.00  0.00    +0.000 A 
BRANCH  19  22
ATOM     22  C   UNL     1      44.289   3.833  10.005  0.00  0.00    +0.000 C 
ATOM     23  N   UNL     1      44.168   4.379   8.758  0.00  0.00    +0.000 N 
ATOM     24  O   UNL     1      43.790   2.746  10.263  0.00  0.00    +0.000 OA
ATOM     25  H   UNL     1      44.354   5.353   8.566  0.00  0.00    +0.000 HD
ATOM     26  H   UNL     1      43.588   3.871   8.103  0.00  0.00    +0.000 HD
ENDBRANCH  19  22
ENDBRANCH  14  16
ENDBRANCH   1  14
TORSDOF 6
ENDMDL
MODEL 8
REMARK VINA RESULT:    -6.732      4.393      7.508
REMARK INTER + INTRA:          -9.868
REMARK INTER:                  -8.725
REMARK INTRA:                  -1.143
REMARK UNBOUND:                -0.775
REMARK  Name = 
REMARK  7 active torsions:
REMARK  status: ('A' for Active; 'I' for Inactive)
REMARK    1  A    between atoms: C_1  and  C_2
REMARK    2  A    between atoms: C_2  and  C_3
REMARK    3  A    between atoms: C_2  and  C_14
REMARK    4  A    between atoms: C_3  and  N_4
REMARK    5  A    between atoms: N_4  and  C_5
REMARK    6  A    between atoms: C_8  and  C_9
REMARK    7  A    between atoms: C_18  and  C_19
REMARK                            x       y       z     vdW  Elec       q    Type
REMARK                         _______ _______ _______ _____ _____    ______ ____
ROOT
ATOM      1  C   UNL     1      46.661   6.914  12.432  0.00  0.00    +0.000 C 
ENDROOT
BRANCH   1   3
ATOM      2  C   UNL     1      44.552   7.979  11.352  0.00  0.00    +0.000 C 
ATOM      3  C   UNL     1      45.452   6.807  11.565  0.00  0.00    +0.000 C 
BRANCH   3   4
ATOM      4  C   UNL     1      44.846   5.485  11.491  0.00  0.00    +0.000 A 
ATOM      5  N   UNL     1      44.098   5.093  12.535  0.00  0.00    +0.000 NA
ATOM      6  C   UNL     1      43.543   3.873  12.452  0.00  0.00    +0.000 A 
ATOM      7  C   UNL     1      43.728   3.034  11.381  0.00  0.00    +0.000 A 
ATOM      8  C   UNL     1      44.524   3.512  10.351  0.00  0.00    +0.000 A 
ATOM      9  N   UNL     1      45.081   4.752  10.396  0.00  0.00    +0.000 NA
BRANCH   8  10
ATOM     10  C   UNL     1      44.798   2.635   9.142  0.00  0.00    +0.000 C 
ATOM     11  F   UNL     1      46.130   2.412   8.933  0.00  0.00    +0.000 F 
ATOM     12  F   UNL     1      44.235   1.398   9.240  0.00  0.00    +0.000 F 
ATOM     13  F   UNL     1      44.336   3.172   7.977  0.00  0.00    +0.000 F 
ENDBRANCH   8  10
ENDBRANCH   3   4
ENDBRANCH   1   3
BRANCH   1  14
ATOM     14  N   UNL     1      47.077   5.590  12.881  0.00  0.00    +0.000 N 
ATOM     15  H   UNL     1      46.466   4.844  12.556  0.00  0.00    +0.000 HD
BRANCH  14  16
ATOM     16  C   UNL     1      47.435   5.413  14.225  0.00  0.00    +0.000 A 
ATOM     17  C   UNL     1      48.320   6.253  14.913  0.00  0.00    +0.000 A 
ATOM     18  C   UNL     1      48.698   5.985  16.233  0.00  0.00    +0.000 A 
ATOM     19  C   UNL     1      48.218   4.850  16.888  0.00  0.00    +0.000 A 
ATOM     20  C   UNL     1      47.366   3.978  16.206  0.00  0.00    +0.000 A 
ATOM     21  C   UNL     1      46.985   4.261  14.886  0.00  0.00    +0.000 A 
BRANCH  19  22
ATOM     22  C   UNL     1      48.672   4.597  18.282  0.00  0.00    +0.000 C 
ATOM     23  N   UNL     1      48.987   3.311  18.619  0.00  0.00    +0.000 N 
ATOM     24  O   UNL     1      48.729   5.494  19.113  0.00  0.00    +0.000 OA
ATOM     25  H   UNL     1      48.737   2.517  18.048  0.00  0.00    +0.000 HD
ATOM     26  H   UNL     1      49.192   3.143  19.596  0.00  0.00    +0.000 HD
ENDBRANCH  19  22
ENDBRANCH  14  16
ENDBRANCH   1  14
TORSDOF 6
ENDMDL
MODEL 9
REMARK VINA RESULT:    -5.908      3.723      5.461
REMARK INTER + INTRA:          -8.755
REMARK INTER:                  -7.495
REMARK INTRA:                  -1.260
REMARK UNBOUND:                -0.775
REMARK  Name = 
REMARK  7 active torsions:
REMARK  status: ('A' for Active; 'I' for Inactive)
REMARK    1  A    between atoms: C_1  and  C_2
REMARK    2  A    between atoms: C_2  and  C_3
REMARK    3  A    between atoms: C_2  and  C_14
REMARK    4  A    between atoms: C_3  and  N_4
REMARK    5  A    between atoms: N_4  and  C_5
REMARK    6  A    between atoms: C_8  and  C_9
REMARK    7  A    between atoms: C_18  and  C_19
REMARK                            x       y       z     vdW  Elec       q    Type
REMARK                         _______ _______ _______ _____ _____    ______ ____
ROOT
ATOM      1  C   UNL     1      49.133   7.929  13.592  0.00  0.00    +0.000 C 
ENDROOT
BRANCH   1   3
ATOM      2  C   UNL     1      49.731   9.539  15.542  0.00  0.00    +0.000 C 
ATOM      3  C   UNL     1      49.240   8.216  15.051  0.00  0.00    +0.000 C 
BRANCH   3   4
ATOM      4  C   UNL     1      49.489   7.061  15.904  0.00  0.00    +0.000 A 
ATOM      5  N   UNL     1      50.769   6.765  16.179  0.00  0.00    +0.000 NA
ATOM      6  C   UNL     1      50.982   5.699  16.967  0.00  0.00    +0.000 A 
ATOM      7  C   UNL     1      49.970   4.917  17.466  0.00  0.00    +0.000 A 
ATOM      8  C   UNL     1      48.678   5.287  17.125  0.00  0.00    +0.000 A 
ATOM      9  N   UNL     1      48.428   6.374  16.346  0.00  0.00    +0.000 NA
BRANCH   8  10
ATOM     10  C   UNL     1      47.503   4.458  17.616  0.00  0.00    +0.000 C 
ATOM     11  F   UNL     1      46.619   5.178  18.369  0.00  0.00    +0.000 F 
ATOM     12  F   UNL     1      46.766   3.923  16.603  0.00  0.00    +0.000 F 
ATOM     13  F   UNL     1      47.881   3.413  18.405  0.00  0.00    +0.000 F 
ENDBRANCH   8  10
ENDBRANCH   3   4
ENDBRANCH   1   3
BRANCH   1  14
ATOM     14  N   UNL     1      48.788   6.528  13.379  0.00  0.00    +0.000 N 
ATOM     15  H   UNL     1      49.529   5.994  12.928  0.00  0.00    +0.000 HD
BRANCH  14  16
ATOM     16  C   UNL     1      47.531   6.214  12.845  0.00  0.00    +0.000 A 
ATOM     17  C   UNL     1      46.960   6.878  11.753  0.00  0.00    +0.000 A 
ATOM     18  C   UNL     1      45.669   6.570  11.308  0.00  0.00    +0.000 A 
ATOM     19  C   UNL     1      44.907   5.604  11.967  0.00  0.00    +0.000 A 
ATOM     20  C   UNL     1      45.444   4.958  13.084  0.00  0.00    +0.000 A 
ATOM     21  C   UNL     1      46.743   5.267  13.515  0.00  0.00    +0.000 A 
BRANCH  19  22
ATOM     22  C   UNL     1      43.531   5.334  11.471  0.00  0.00    +0.000 C 
ATOM     23  N   UNL     1      42.499   5.983  12.087  0.00  0.00    +0.000 N 
ATOM     24  O   UNL     1      43.318   4.533  10.570  0.00  0.00    +0.000 OA
ATOM     25  H   UNL     1      42.602   6.464  12.969  0.00  0.00    +0.000 HD
ATOM     26  H   UNL     1      41.567   5.707  11.806  0.00  0.00    +0.000 HD
ENDBRANCH  19  22
ENDBRANCH  14  16
ENDBRANCH   1  14
TORSDOF 6
ENDMDL
