MODEL 1
REMARK VINA RESULT:    -9.055      0.000      0.000
REMARK INTER + INTRA:         -11.862
REMARK INTER:                 -11.172
REMARK INTRA:                  -0.690
REMARK UNBOUND:                -0.690
REMARK  Name = 
REMARK  4 active torsions:
REMARK  status: ('A' for Active; 'I' for Inactive)
REMARK    1  A    between atoms: C_2  and  C_4
REMARK    2  A    between atoms: N_8  and  C_9
REMARK    3  A    between atoms: C_9  and  C_10
REMARK    4  A    between atoms: C_14  and  C_15
REMARK                            x       y       z     vdW  Elec       q    Type
REMARK                         _______ _______ _______ _____ _____    ______ ____
ROOT
ATOM      1  C   UNL     1      46.391   2.288   7.694  0.00  0.00    +0.000 A 
ATOM      2  C   UNL     1      45.626   1.790   8.742  0.00  0.00    +0.000 A 
ATOM      3  C   UNL     1      44.770   2.651   9.428  0.00  0.00    +0.000 A 
ATOM      4  C   UNL     1      44.709   3.997   9.076  0.00  0.00    +0.000 A 
ATOM      5  N   UNL     1      43.819   4.886   9.643  0.00  0.00    +0.000 N 
ATOM      6  N   UNL     1      45.462   4.495   8.074  0.00  0.00    +0.000 NA
ATOM      7  C   UNL     1      46.287   3.641   7.410  0.00  0.00    +0.000 A 
ATOM      8  H   UNL     1      44.040   5.814   9.290  0.00  0.00    +0.000 HD
ENDROOT
BRANCH   1  10
ATOM      9  N   UNL     1      48.414   2.040   6.373  0.00  0.00    +0.000 N 
ATOM     10  C   UNL     1      47.299   1.443   6.896  0.00  0.00    +0.000 C 
ATOM     11  O   UNL     1      47.082   0.249   6.734  0.00  0.00    +0.000 OA
ATOM     12  H   UNL     1      49.077   1.428   5.911  0.00  0.00    +0.000 HD
ATOM     13  H   UNL     1      48.753   2.935   6.693  0.00  0.00    +0.000 HD
ENDBRANCH   1  10
BRANCH   5  14
ATOM     14  C   UNL     1      43.518   4.836  11.061  0.00  0.00    +0.000 C 
BRANCH  14  15
ATOM     15  C   UNL     1      44.748   5.161  11.879  0.00  0.00    +0.000 A 
ATOM     16  C   UNL     1      45.060   4.409  13.011  0.00  0.00    +0.000 A 
ATOM     17  C   UNL     1      46.146   4.794  13.780  0.00  0.00    +0.000 A 
ATOM     18  N   UNL     1      46.922   5.866  13.508  0.00  0.00    +0.000 NA
ATOM     19  C   UNL     1      46.622   6.606  12.413  0.00  0.00    +0.000 A 
ATOM     20  C   UNL     1      45.536   6.287  11.599  0.00  0.00    +0.000 A 
BRANCH  19  21
ATOM     21  C   UNL     1      47.492   7.765  12.156  0.00  0.00    +0.000 A 
ATOM     22  C   UNL     1      48.836   7.638  11.769  0.00  0.00    +0.000 A 
ATOM     23  C   UNL     1      49.616   8.767  11.518  0.00  0.00    +0.000 A 
ATOM     24  C   UNL     1      49.032  10.011  11.664  0.00  0.00    +0.000 A 
ATOM     25  N   UNL     1      47.751  10.194  12.041  0.00  0.00    +0.000 NA
ATOM     26  C   UNL     1      47.021   9.073  12.283  0.00  0.00    +0.000 A 
ENDBRANCH  19  21
ENDBRANCH  14  15
ENDBRANCH   5  14
TORSDOF 4
ENDMDL
MODEL 2
REMARK VINA RESULT:    -8.975      1.664      3.565
REMARK INTER + INTRA:         -11.764
REMARK INTER:                 -11.003
REMARK INTRA:                  -0.761
REMARK UNBOUND:                -0.690
REMARK  Name = 
REMARK  4 active torsions:
REMARK  status: ('A' for Active; 'I' for Inactive)
REMARK    1  A    between atoms: C_2  and  C_4
REMARK    2  A    between atoms: N_8  and  C_9
REMARK    3  A    between atoms: C_9  and  C_10
REMARK    4  A    between atoms: C_14  and  C_15
REMARK                            x       y       z     vdW  Elec       q    Type
REMARK                         _______ _______ _______ _____ _____    ______ ____
ROOT
ATOM      1  C   UNL     1      46.378   2.303   7.717  0.00  0.00    +0.000 A 
ATOM      2  C   UNL     1      45.592   1.805   8.751  0.00  0.00    +0.000 A 
ATOM      3  C   UNL     1      44.735   2.669   9.429  0.00  0.00    +0.000 A 
ATOM      4  C   UNL     1      44.693   4.018   9.086  0.00  0.00    +0.000 A 
ATOM      5  N   UNL     1      43.803   4.913   9.646  0.00  0.00    +0.000 N 
ATOM      6  N   UNL     1      45.464   4.515   8.099  0.00  0.00    +0.000 NA
ATOM      7  C   UNL     1      46.291   3.658   7.441  0.00  0.00    +0.000 A 
ATOM      8  H   UNL     1      44.038   5.841   9.303  0.00  0.00    +0.000 HD
ENDROOT
BRANCH   1  10
ATOM      9  N   UNL     1      48.348   2.069   6.317  0.00  0.00    +0.000 N 
ATOM     10  C   UNL     1      47.289   1.454   6.926  0.00  0.00    +0.000 C 
ATOM     11  O   UNL     1      47.124   0.244   6.844  0.00  0.00    +0.000 OA
ATOM     12  H   UNL     1      49.019   1.462   5.859  0.00  0.00    +0.000 HD
ATOM     13  H   UNL     1      48.657   2.997   6.567  0.00  0.00    +0.000 HD
ENDBRANCH   1  10
BRANCH   5  14
ATOM     14  C   UNL     1      43.480   4.855  11.060  0.00  0.00    +0.000 C 
BRANCH  14  15
ATOM     15  C   UNL     1      44.582   5.485  11.883  0.00  0.00    +0.000 A 
ATOM     16  C   UNL     1      45.044   6.766  11.579  0.00  0.00    +0.000 A 
ATOM     17  C   UNL     1      46.112   7.271  12.302  0.00  0.00    +0.000 A 
ATOM     18  N   UNL     1      46.748   6.594  13.283  0.00  0.00    +0.000 NA
ATOM     19  C   UNL     1      46.310   5.346  13.580  0.00  0.00    +0.000 A 
ATOM     20  C   UNL     1      45.248   4.767  12.887  0.00  0.00    +0.000 A 
BRANCH  19  21
ATOM     21  C   UNL     1      47.033   4.644  14.654  0.00  0.00    +0.000 A 
ATOM     22  C   UNL     1      47.455   5.283  15.832  0.00  0.00    +0.000 A 
ATOM     23  C   UNL     1      48.121   4.571  16.829  0.00  0.00    +0.000 A 
ATOM     24  C   UNL     1      48.355   3.224  16.627  0.00  0.00    +0.000 A 
ATOM     25  N   UNL     1      47.980   2.561  15.514  0.00  0.00    +0.000 NA
ATOM     26  C   UNL     1      47.340   3.286  14.560  0.00  0.00    +0.000 A 
ENDBRANCH  19  21
ENDBRANCH  14  15
ENDBRANCH   5  14
TORSDOF 4
ENDMDL
MODEL 3
REMARK VINA RESULT:    -7.742      1.727      2.475
REMARK INTER + INTRA:         -10.243
REMARK INTER:                 -10.035
REMARK INTRA:                  -0.207
REMARK UNBOUND:                -0.690
REMARK  Name = 
REMARK  4 active torsions:
REMARK  status: ('A' for Active; 'I' for Inactive)
REMARK    1  A    between atoms: C_2  and  C_4
REMARK    2  A    between atoms: N_8  and  C_9
REMARK    3  A    between atoms: C_9  and  C_10
REMARK    4  A    between atoms: C_14  and  C_15
REMARK                            x       y       z     vdW  Elec       q    Type
REMARK                         _______ _______ _______ _____ _____    ______ ____
ROOT
ATOM      1  C   UNL     1      46.680   2.502   7.180  0.00  0.00    +0.000 A 
ATOM      2  C   UNL     1      46.176   3.721   7.619  0.00  0.00    +0.000 A 
ATOM      3  C   UNL     1      45.424   3.763   8.791  0.00  0.00    +0.000 A 
ATOM      4  C   UNL     1      45.164   2.588   9.493  0.00  0.00    +0.000 A 
ATOM      5  N   UNL     1      44.510   2.563  10.708  0.00  0.00    +0.000 N 
ATOM      6  N   UNL     1      45.632   1.398   9.066  0.00  0.00    +0.000 NA
ATOM      7  C   UNL     1      46.371   1.375   7.923  0.00  0.00    +0.000 A 
ATOM      8  H   UNL     1      44.361   1.589  10.961  0.00  0.00    +0.000 HD
ENDROOT
BRANCH   1  10
ATOM      9  N   UNL     1      47.358   3.322   4.996  0.00  0.00    +0.000 N 
ATOM     10  C   UNL     1      47.512   2.371   5.968  0.00  0.00    +0.000 C 
ATOM     11  O   UNL     1      48.329   1.467   5.849  0.00  0.00    +0.000 OA
ATOM     12  H   UNL     1      48.002   3.275   4.215  0.00  0.00    +0.000 HD
ATOM     13  H   UNL     1      46.895   4.203   5.165  0.00  0.00    +0.000 HD
ENDBRANCH   1  10
BRANCH   5  14
ATOM     14  C   UNL     1      43.376   3.433  10.961  0.00  0.00    +0.000 C 
BRANCH  14  15
ATOM     15  C   UNL     1      43.844   4.816  11.357  0.00  0.00    +0.000 A 
ATOM     16  C   UNL     1      43.037   5.927  11.115  0.00  0.00    +0.000 A 
ATOM     17  C   UNL     1      43.538   7.184  11.413  0.00  0.00    +0.000 A 
ATOM     18  N   UNL     1      44.773   7.405  11.916  0.00  0.00    +0.000 NA
ATOM     19  C   UNL     1      45.566   6.331  12.147  0.00  0.00    +0.000 A 
ATOM     20  C   UNL     1      45.134   5.036  11.860  0.00  0.00    +0.000 A 
BRANCH  19  21
ATOM     21  C   UNL     1      46.903   6.618  12.693  0.00  0.00    +0.000 A 
ATOM     22  C   UNL     1      47.775   7.556  12.118  0.00  0.00    +0.000 A 
ATOM     23  C   UNL     1      49.026   7.807  12.682  0.00  0.00    +0.000 A 
ATOM     24  C   UNL     1      49.382   7.107  13.819  0.00  0.00    +0.000 A 
ATOM     25  N   UNL     1      48.591   6.189  14.409  0.00  0.00    +0.000 NA
ATOM     26  C   UNL     1      47.382   5.965  13.830  0.00  0.00    +0.000 A 
ENDBRANCH  19  21
ENDBRANCH  14  15
ENDBRANCH   5  14
TORSDOF 4
ENDMDL
MODEL 4
REMARK VINA RESULT:    -7.146      3.003      6.846
REMARK INTER + INTRA:          -9.507
REMARK INTER:                  -8.892
REMARK INTRA:                  -0.615
REMARK UNBOUND:                -0.690
REMARK  Name = 
REMARK  4 active torsions:
REMARK  status: ('A' for Active; 'I' for Inactive)
REMARK    1  A    between atoms: C_2  and  C_4
REMARK    2  A    between atoms: N_8  and  C_9
REMARK    3  A    between atoms: C_9  and  C_10
REMARK    4  A    between atoms: C_14  and  C_15
REMARK                            x       y       z     vdW  Elec       q    Type
REMARK                         _______ _______ _______ _____ _____    ______ ____
ROOT
ATOM      1  C   UNL     1      48.187   8.997  12.167  0.00  0.00    +0.000 A 
ATOM      2  C   UNL     1      48.295   7.613  12.079  0.00  0.00    +0.000 A 
ATOM      3  C   UNL     1      47.152   6.831  12.235  0.00  0.00    +0.000 A 
ATOM      4  C   UNL     1      45.927   7.436  12.502  0.00  0.00    +0.000 A 
ATOM      5  N   UNL     1      44.739   6.737  12.573  0.00  0.00    +0.000 N 
ATOM      6  N   UNL     1      45.814   8.775  12.609  0.00  0.00    +0.000 NA
ATOM      7  C   UNL     1      46.937   9.526  12.447  0.00  0.00    +0.000 A 
ATOM      8  H   UNL     1      44.014   7.385  12.872  0.00  0.00    +0.000 HD
ENDROOT
BRANCH   1  10
ATOM      9  N   UNL     1      50.494   9.355  11.498  0.00  0.00    +0.000 N 
ATOM     10  C   UNL     1      49.338   9.901  11.985  0.00  0.00    +0.000 C 
ATOM     11  O   UNL     1      49.254  11.098  12.228  0.00  0.00    +0.000 OA
ATOM     12  H   UNL     1      51.244  10.003  11.286  0.00  0.00    +0.000 HD
ATOM     13  H   UNL     1      50.523   8.449  11.053  0.00  0.00    +0.000 HD
ENDBRANCH   1  10
BRANCH   5  14
ATOM     14  C   UNL     1      44.680   5.432  13.205  0.00  0.00    +0.000 C 
BRANCH  14  15
ATOM     15  C   UNL     1      44.361   4.361  12.186  0.00  0.00    +0.000 A 
ATOM     16  C   UNL     1      43.397   3.391  12.462  0.00  0.00    +0.000 A 
ATOM     17  C   UNL     1      43.198   2.378  11.538  0.00  0.00    +0.000 A 
ATOM     18  N   UNL     1      43.889   2.261  10.384  0.00  0.00    +0.000 NA
ATOM     19  C   UNL     1      44.833   3.195  10.111  0.00  0.00    +0.000 A 
ATOM     20  C   UNL     1      45.098   4.237  10.999  0.00  0.00    +0.000 A 
BRANCH  19  21
ATOM     21  C   UNL     1      45.563   3.028   8.844  0.00  0.00    +0.000 A 
ATOM     22  C   UNL     1      46.045   1.785   8.401  0.00  0.00    +0.000 A 
ATOM     23  C   UNL     1      46.716   1.674   7.183  0.00  0.00    +0.000 A 
ATOM     24  C   UNL     1      46.895   2.817   6.428  0.00  0.00    +0.000 A 
ATOM     25  N   UNL     1      46.463   4.036   6.806  0.00  0.00    +0.000 NA
ATOM     26  C   UNL     1      45.819   4.110   8.001  0.00  0.00    +0.000 A 
ENDBRANCH  19  21
ENDBRANCH  14  15
ENDBRANCH   5  14
TORSDOF 4
ENDMDL
MODEL 5
REMARK VINA RESULT:    -6.926      3.987      7.974
REMARK INTER + INTRA:          -9.235
REMARK INTER:                  -8.779
REMARK INTRA:                  -0.456
REMARK UNBOUND:                -0.690
REMARK  Name = 
REMARK  4 active torsions:
REMARK  status: ('A' for Active; 'I' for Inactive)
REMARK    1  A    between atoms: C_2  and  C_4
REMARK    2  A    between atoms: N_8  and  C_9
REMARK    3  A    between atoms: C_9  and  C_10
REMARK    4  A    between atoms: C_14  and  C_15
REMARK                            x       y       z     vdW  Elec       q    Type
REMARK                         _______ _______ _______ _____ _____    ______ ____
ROOT
ATOM      1  C   UNL     1      49.284   4.362  17.272  0.00  0.00    +0.000 A 
ATOM      2  C   UNL     1      48.940   5.550  16.638  0.00  0.00    +0.000 A 
ATOM      3  C   UNL     1      47.861   5.562  15.757  0.00  0.00    +0.000 A 
ATOM      4  C   UNL     1      47.158   4.387  15.502  0.00  0.00    +0.000 A 
ATOM      5  N   UNL     1      46.023   4.341  14.718  0.00  0.00    +0.000 N 
ATOM      6  N   UNL     1      47.495   3.225  16.097  0.00  0.00    +0.000 NA
ATOM      7  C   UNL     1      48.547   3.231  16.960  0.00  0.00    +0.000 A 
ATOM      8  H   UNL     1      45.760   3.364  14.610  0.00  0.00    +0.000 HD
ENDROOT
BRANCH   1  10
ATOM      9  N   UNL     1      50.061   4.222  19.569  0.00  0.00    +0.000 N 
ATOM     10  C   UNL     1      50.392   4.266  18.243  0.00  0.00    +0.000 C 
ATOM     11  O   UNL     1      51.558   4.197  17.876  0.00  0.00    +0.000 OA
ATOM     12  H   UNL     1      50.822   4.058  20.218  0.00  0.00    +0.000 HD
ATOM     13  H   UNL     1      49.126   4.020  19.891  0.00  0.00    +0.000 HD
ENDBRANCH   1  10
BRANCH   5  14
ATOM     14  C   UNL     1      45.923   5.131  13.505  0.00  0.00    +0.000 C 
BRANCH  14  15
ATOM     15  C   UNL     1      45.163   4.374  12.438  0.00  0.00    +0.000 A 
ATOM     16  C   UNL     1      43.898   3.853  12.710  0.00  0.00    +0.000 A 
ATOM     17  C   UNL     1      43.274   3.093  11.735  0.00  0.00    +0.000 A 
ATOM     18  N   UNL     1      43.821   2.811  10.532  0.00  0.00    +0.000 NA
ATOM     19  C   UNL     1      45.053   3.307  10.262  0.00  0.00    +0.000 A 
ATOM     20  C   UNL     1      45.747   4.071  11.200  0.00  0.00    +0.000 A 
BRANCH  19  21
ATOM     21  C   UNL     1      45.611   2.974   8.941  0.00  0.00    +0.000 A 
ATOM     22  C   UNL     1      45.893   3.946   7.966  0.00  0.00    +0.000 A 
ATOM     23  C   UNL     1      46.438   3.583   6.735  0.00  0.00    +0.000 A 
ATOM     24  C   UNL     1      46.691   2.245   6.500  0.00  0.00    +0.000 A 
ATOM     25  N   UNL     1      46.433   1.269   7.394  0.00  0.00    +0.000 NA
ATOM     26  C   UNL     1      45.896   1.656   8.581  0.00  0.00    +0.000 A 
ENDBRANCH  19  21
ENDBRANCH  14  15
ENDBRANCH   5  14
TORSDOF 4
ENDMDL
MODEL 6
REMARK VINA RESULT:    -6.576      4.937      8.108
REMARK INTER + INTRA:          -8.803
REMARK INTER:                  -8.169
REMARK INTRA:                  -0.634
REMARK UNBOUND:                -0.690
REMARK  Name = 
REMARK  4 active torsions:
REMARK  status: ('A' for Active; 'I' for Inactive)
REMARK    1  A    between atoms: C_2  and  C_4
REMARK    2  A    between atoms: N_8  and  C_9
REMARK    3  A    between atoms: C_9  and  C_10
REMARK    4  A    between atoms: C_14  and  C_15
REMARK                            x       y       z     vdW  Elec       q    Type
REMARK                         _______ _______ _______ _____ _____    ______ ____
ROOT
ATOM      1  C   UNL     1      51.267   2.457  17.446  0.00  0.00    +0.000 A 
ATOM      2  C   UNL     1      51.630   3.793  17.573  0.00  0.00    +0.000 A 
ATOM      3  C   UNL     1      50.695   4.782  17.276  0.00  0.00    +0.000 A 
ATOM      4  C   UNL     1      49.423   4.427  16.832  0.00  0.00    +0.000 A 
ATOM      5  N   UNL     1      48.416   5.344  16.611  0.00  0.00    +0.000 N 
ATOM      6  N   UNL     1      49.067   3.135  16.687  0.00  0.00    +0.000 NA
ATOM      7  C   UNL     1      49.989   2.180  16.988  0.00  0.00    +0.000 A 
ATOM      8  H   UNL     1      47.628   4.848  16.203  0.00  0.00    +0.000 HD
ENDROOT
BRANCH   1  10
ATOM      9  N   UNL     1      51.619   0.164  18.164  0.00  0.00    +0.000 N 
ATOM     10  C   UNL     1      52.183   1.346  17.769  0.00  0.00    +0.000 C 
ATOM     11  O   UNL     1      53.396   1.466  17.659  0.00  0.00    +0.000 OA
ATOM     12  H   UNL     1      52.252  -0.618  18.288  0.00  0.00    +0.000 HD
ATOM     13  H   UNL     1      50.642  -0.049  18.021  0.00  0.00    +0.000 HD
ENDBRANCH   1  10
BRANCH   5  14
ATOM     14  C   UNL     1      48.702   6.630  16.000  0.00  0.00    +0.000 C 
BRANCH  14  15
ATOM     15  C   UNL     1      48.308   6.624  14.540  0.00  0.00    +0.000 A 
ATOM     16  C   UNL     1      48.914   7.504  13.643  0.00  0.00    +0.000 A 
ATOM     17  C   UNL     1      48.463   7.526  12.334  0.00  0.00    +0.000 A 
ATOM     18  N   UNL     1      47.458   6.753  11.867  0.00  0.00    +0.000 NA
ATOM     19  C   UNL     1      46.858   5.900  12.733  0.00  0.00    +0.000 A 
ATOM     20  C   UNL     1      47.250   5.831  14.070  0.00  0.00    +0.000 A 
BRANCH  19  21
ATOM     21  C   UNL     1      45.768   5.078  12.183  0.00  0.00    +0.000 A 
ATOM     22  C   UNL     1      45.289   5.227  10.871  0.00  0.00    +0.000 A 
ATOM     23  C   UNL     1      44.265   4.412  10.389  0.00  0.00    +0.000 A 
ATOM     24  C   UNL     1      43.735   3.458  11.236  0.00  0.00    +0.000 A 
ATOM     25  N   UNL     1      44.148   3.276  12.506  0.00  0.00    +0.000 NA
ATOM     26  C   UNL     1      45.142   4.091  12.946  0.00  0.00    +0.000 A 
ENDBRANCH  19  21
ENDBRANCH  14  15
ENDBRANCH   5  14
TORSDOF 4
ENDMDL
MODEL 7
REMARK VINA RESULT:    -6.531      5.610      7.727
REMARK INTER + INTRA:          -8.748
REMARK INTER:                  -8.110
REMARK INTRA:                  -0.638
REMARK UNBOUND:                -0.690
REMARK  Name = 
REMARK  4 active torsions:
REMARK  status: ('A' for Active; 'I' for Inactive)
REMARK    1  A    between atoms: C_2  and  C_4
REMARK    2  A    between atoms: N_8  and  C_9
REMARK    3  A    between atoms: C_9  and  C_10
REMARK    4  A    between atoms: C_14  and  C_15
REMARK                            x       y       z     vdW  Elec       q    Type
REMARK                         _______ _______ _______ _____ _____    ______ ____
ROOT
ATOM      1  C   UNL     1      45.650   5.010  11.897  0.00  0.00    +0.000 A 
ATOM      2  C   UNL     1      46.255   5.880  12.797  0.00  0.00    +0.000 A 
ATOM      3  C   UNL     1      46.811   5.368  13.967  0.00  0.00    +0.000 A 
ATOM      4  C   UNL     1      46.734   4.003  14.235  0.00  0.00    +0.000 A 
ATOM      5  N   UNL     1      47.343   3.411  15.323  0.00  0.00    +0.000 N 
ATOM      6  N   UNL     1      46.132   3.154  13.378  0.00  0.00    +0.000 NA
ATOM      7  C   UNL     1      45.600   3.668  12.236  0.00  0.00    +0.000 A 
ATOM      8  H   UNL     1      47.057   2.435  15.345  0.00  0.00    +0.000 HD
ENDROOT
BRANCH   1  10
ATOM      9  N   UNL     1      43.755   5.859  10.637  0.00  0.00    +0.000 N 
ATOM     10  C   UNL     1      45.064   5.462  10.620  0.00  0.00    +0.000 C 
ATOM     11  O   UNL     1      45.729   5.510   9.594  0.00  0.00    +0.000 OA
ATOM     12  H   UNL     1      43.394   6.258   9.778  0.00  0.00    +0.000 HD
ATOM     13  H   UNL     1      43.262   6.075  11.491  0.00  0.00    +0.000 HD
ENDBRANCH   1  10
BRANCH   5  14
ATOM     14  C   UNL     1      47.355   4.066  16.618  0.00  0.00    +0.000 C 
BRANCH  14  15
ATOM     15  C   UNL     1      48.772   4.381  17.042  0.00  0.00    +0.000 A 
ATOM     16  C   UNL     1      49.228   5.699  17.051  0.00  0.00    +0.000 A 
ATOM     17  C   UNL     1      50.557   5.936  17.362  0.00  0.00    +0.000 A 
ATOM     18  N   UNL     1      51.450   4.964  17.649  0.00  0.00    +0.000 NA
ATOM     19  C   UNL     1      51.017   3.679  17.635  0.00  0.00    +0.000 A 
ATOM     20  C   UNL     1      49.696   3.364  17.319  0.00  0.00    +0.000 A 
BRANCH  19  21
ATOM     21  C   UNL     1      52.024   2.653  17.951  0.00  0.00    +0.000 A 
ATOM     22  C   UNL     1      51.990   1.359  17.405  0.00  0.00    +0.000 A 
ATOM     23  C   UNL     1      52.977   0.426  17.721  0.00  0.00    +0.000 A 
ATOM     24  C   UNL     1      53.986   0.807  18.585  0.00  0.00    +0.000 A 
ATOM     25  N   UNL     1      54.065   2.031  19.145  0.00  0.00    +0.000 NA
ATOM     26  C   UNL     1      53.083   2.914  18.822  0.00  0.00    +0.000 A 
ENDBRANCH  19  21
ENDBRANCH  14  15
ENDBRANCH   5  14
TORSDOF 4
ENDMDL
MODEL 8
REMARK VINA RESULT:    -6.180      1.522      2.114
REMARK INTER + INTRA:          -8.315
REMARK INTER:                  -7.976
REMARK INTRA:                  -0.339
REMARK UNBOUND:                -0.690
REMARK  Name = 
REMARK  4 active torsions:
REMARK  status: ('A' for Active; 'I' for Inactive)
REMARK    1  A    between atoms: C_2  and  C_4
REMARK    2  A    between atoms: N_8  and  C_9
REMARK    3  A    between atoms: C_9  and  C_10
REMARK    4  A    between atoms: C_14  and  C_15
REMARK                            x       y       z     vdW  Elec       q    Type
REMARK                         _______ _______ _______ _____ _____    ______ ____
ROOT
ATOM      1  C   UNL     1      46.087   2.817   7.509  0.00  0.00    +0.000 A 
ATOM      2  C   UNL     1      46.258   3.964   8.275  0.00  0.00    +0.000 A 
ATOM      3  C   UNL     1      45.478   4.141   9.416  0.00  0.00    +0.000 A 
ATOM      4  C   UNL     1      44.524   3.187   9.762  0.00  0.00    +0.000 A 
ATOM      5  N   UNL     1      43.784   3.245  10.925  0.00  0.00    +0.000 N 
ATOM      6  N   UNL     1      44.336   2.080   9.015  0.00  0.00    +0.000 NA
ATOM      7  C   UNL     1      45.110   1.918   7.908  0.00  0.00    +0.000 A 
ATOM      8  H   UNL     1      43.098   2.495  10.895  0.00  0.00    +0.000 HD
ENDROOT
BRANCH   1  10
ATOM      9  N   UNL     1      47.025   3.542   5.389  0.00  0.00    +0.000 N 
ATOM     10  C   UNL     1      46.890   2.534   6.303  0.00  0.00    +0.000 C 
ATOM     11  O   UNL     1      47.440   1.452   6.142  0.00  0.00    +0.000 OA
ATOM     12  H   UNL     1      47.657   3.368   4.616  0.00  0.00    +0.000 HD
ATOM     13  H   UNL     1      46.809   4.505   5.604  0.00  0.00    +0.000 HD
ENDBRANCH   1  10
BRANCH   5  14
ATOM     14  C   UNL     1      43.273   4.511  11.420  0.00  0.00    +0.000 C 
BRANCH  14  15
ATOM     15  C   UNL     1      44.379   5.317  12.063  0.00  0.00    +0.000 A 
ATOM     16  C   UNL     1      45.178   4.749  13.056  0.00  0.00    +0.000 A 
ATOM     17  C   UNL     1      46.122   5.547  13.679  0.00  0.00    +0.000 A 
ATOM     18  N   UNL     1      46.313   6.854  13.395  0.00  0.00    +0.000 NA
ATOM     19  C   UNL     1      45.536   7.416  12.437  0.00  0.00    +0.000 A 
ATOM     20  C   UNL     1      44.557   6.678  11.774  0.00  0.00    +0.000 A 
BRANCH  19  21
ATOM     21  C   UNL     1      45.777   8.842  12.161  0.00  0.00    +0.000 A 
ATOM     22  C   UNL     1      44.741   9.750  11.886  0.00  0.00    +0.000 A 
ATOM     23  C   UNL     1      45.018  11.096  11.649  0.00  0.00    +0.000 A 
ATOM     24  C   UNL     1      46.336  11.510  11.688  0.00  0.00    +0.000 A 
ATOM     25  N   UNL     1      47.370  10.683  11.938  0.00  0.00    +0.000 NA
ATOM     26  C   UNL     1      47.066   9.377  12.159  0.00  0.00    +0.000 A 
ENDBRANCH  19  21
ENDBRANCH  14  15
ENDBRANCH   5  14
TORSDOF 4
ENDMDL
