MODEL 1
REMARK VINA RESULT:    -8.139      0.000      0.000
REMARK INTER + INTRA:         -10.981
REMARK INTER:                 -10.518
REMARK INTRA:                  -0.464
REMARK UNBOUND:                -0.464
REMARK  Name = 
REMARK  5 active torsions:
REMARK  status: ('A' for Active; 'I' for Inactive)
REMARK    1  A    between atoms: C_2  and  C_17
REMARK    2  A    between atoms: N_3  and  C_4
REMARK    3  A    between atoms: C_4  and  C_5
REMARK    4  A    between atoms: C_8  and  C_9
REMARK    5  A    between atoms: C_9  and  C_10
REMARK                            x       y       z     vdW  Elec       q    Type
REMARK                         _______ _______ _______ _____ _____    ______ ____
ROOT
ATOM      1  O   UNL     1      46.470   3.220  13.629  0.00  0.00    +0.000 OA
ATOM      2  C   UNL     1      46.241   4.363  14.013  0.00  0.00    +0.000 C 
ATOM      3  N   UNL     1      45.000   4.940  13.926  0.00  0.00    +0.000 N 
ATOM      4  H   UNL     1      44.917   5.939  14.070  0.00  0.00    +0.000 HD
ENDROOT
BRANCH   2   5
ATOM      5  C   UNL     1      47.279   5.177  14.660  0.00  0.00    +0.000 A 
ATOM      6  C   UNL     1      47.904   6.193  13.954  0.00  0.00    +0.000 A 
ATOM      7  S   UNL     1      49.118   6.997  14.844  0.00  0.00    +0.000 S 
ATOM      8  C   UNL     1      48.809   6.053  16.225  0.00  0.00    +0.000 A 
ATOM      9  N   UNL     1      49.510   6.244  17.377  0.00  0.00    +0.000 NA
ATOM     10  C   UNL     1      49.137   5.491  18.358  0.00  0.00    +0.000 A 
ATOM     11  N   UNL     1      48.135   4.560  18.292  0.00  0.00    +0.000 N 
ATOM     12  C   UNL     1      47.457   4.279  17.131  0.00  0.00    +0.000 A 
ATOM     13  O   UNL     1      46.658   3.349  17.077  0.00  0.00    +0.000 OA
ATOM     14  C   UNL     1      47.808   5.124  16.006  0.00  0.00    +0.000 A 
ATOM     15  H   UNL     1      47.908   3.984  19.089  0.00  0.00    +0.000 HD
ENDBRANCH   2   5
BRANCH   3  16
ATOM     16  C   UNL     1      43.894   4.321  13.246  0.00  0.00    +0.000 C 
BRANCH  16  17
ATOM     17  C   UNL     1      44.194   4.129  11.783  0.00  0.00    +0.000 A 
ATOM     18  C   UNL     1      44.728   5.186  11.045  0.00  0.00    +0.000 A 
ATOM     19  C   UNL     1      44.999   5.037   9.684  0.00  0.00    +0.000 A 
ATOM     20  C   UNL     1      44.773   3.820   9.031  0.00  0.00    +0.000 A 
ATOM     21  C   UNL     1      44.199   2.773   9.764  0.00  0.00    +0.000 A 
ATOM     22  C   UNL     1      43.901   2.928  11.125  0.00  0.00    +0.000 A 
BRANCH  20  23
ATOM     23  C   UNL     1      45.051   3.668   7.551  0.00  0.00    +0.000 C 
BRANCH  23  24
ATOM     24  C   UNL     1      46.497   3.300   7.155  0.00  0.00    +0.000 C 
ATOM     25  C   UNL     1      46.723   3.089   5.664  0.00  0.00    +0.000 C 
ATOM     26  C   UNL     1      47.928   2.177   5.594  0.00  0.00    +0.000 C 
ATOM     27  C   UNL     1      47.877   1.374   6.880  0.00  0.00    +0.000 C 
ATOM     28  N   UNL     1      46.847   1.984   7.722  0.00  0.00    +0.000 NA
ATOM     29  H   UNL     1      47.175   2.081   8.682  0.00  0.00    +0.000 HD
ENDBRANCH  23  24
ENDBRANCH  20  23
ENDBRANCH  16  17
ENDBRANCH   3  16
TORSDOF 5
ENDMDL
MODEL 2
REMARK VINA RESULT:    -7.893      1.682      2.355
REMARK INTER + INTRA:         -10.663
REMARK INTER:                  -9.726
REMARK INTRA:                  -0.938
REMARK UNBOUND:                -0.464
REMARK  Name = 
REMARK  5 active torsions:
REMARK  status: ('A' for Active; 'I' for Inactive)
REMARK    1  A    between atoms: C_2  and  C_17
REMARK    2  A    between atoms: N_3  and  C_4
REMARK    3  A    between atoms: C_4  and  C_5
REMARK    4  A    between atoms: C_8  and  C_9
REMARK    5  A    between atoms: C_9  and  C_10
REMARK                            x       y       z     vdW  Elec       q    Type
REMARK                         _______ _______ _______ _____ _____    ______ ____
ROOT
ATOM      1  O   UNL     1      48.687   6.799  12.936  0.00  0.00    +0.000 OA
ATOM      2  C   UNL     1      47.991   6.729  13.944  0.00  0.00    +0.000 C 
ATOM      3  N   UNL     1      46.645   6.993  13.936  0.00  0.00    +0.000 N 
ATOM      4  H   UNL     1      46.167   7.114  14.820  0.00  0.00    +0.000 HD
ENDROOT
BRANCH   2   5
ATOM      5  C   UNL     1      48.546   6.287  15.230  0.00  0.00    +0.000 A 
ATOM      6  C   UNL     1      49.550   7.023  15.841  0.00  0.00    +0.000 A 
ATOM      7  S   UNL     1      50.112   6.335  17.298  0.00  0.00    +0.000 S 
ATOM      8  C   UNL     1      48.990   5.061  17.193  0.00  0.00    +0.000 A 
ATOM      9  N   UNL     1      48.927   4.101  18.157  0.00  0.00    +0.000 NA
ATOM     10  C   UNL     1      47.997   3.223  17.975  0.00  0.00    +0.000 A 
ATOM     11  N   UNL     1      47.131   3.211  16.915  0.00  0.00    +0.000 N 
ATOM     12  C   UNL     1      47.209   4.113  15.880  0.00  0.00    +0.000 A 
ATOM     13  O   UNL     1      46.501   3.993  14.885  0.00  0.00    +0.000 OA
ATOM     14  C   UNL     1      48.211   5.146  16.054  0.00  0.00    +0.000 A 
ATOM     15  H   UNL     1      46.440   2.482  16.815  0.00  0.00    +0.000 HD
ENDBRANCH   2   5
BRANCH   3  16
ATOM     16  C   UNL     1      45.956   7.518  12.787  0.00  0.00    +0.000 C 
BRANCH  16  17
ATOM     17  C   UNL     1      45.690   6.437  11.772  0.00  0.00    +0.000 A 
ATOM     18  C   UNL     1      44.898   5.342  12.124  0.00  0.00    +0.000 A 
ATOM     19  C   UNL     1      44.651   4.320  11.207  0.00  0.00    +0.000 A 
ATOM     20  C   UNL     1      45.162   4.378   9.905  0.00  0.00    +0.000 A 
ATOM     21  C   UNL     1      45.989   5.458   9.567  0.00  0.00    +0.000 A 
ATOM     22  C   UNL     1      46.261   6.472  10.494  0.00  0.00    +0.000 A 
BRANCH  20  23
ATOM     23  C   UNL     1      44.907   3.258   8.919  0.00  0.00    +0.000 C 
BRANCH  23  24
ATOM     24  C   UNL     1      46.151   2.614   8.271  0.00  0.00    +0.000 C 
ATOM     25  C   UNL     1      46.292   2.851   6.773  0.00  0.00    +0.000 C 
ATOM     26  C   UNL     1      47.131   1.688   6.288  0.00  0.00    +0.000 C 
ATOM     27  C   UNL     1      46.821   0.562   7.257  0.00  0.00    +0.000 C 
ATOM     28  N   UNL     1      46.051   1.145   8.356  0.00  0.00    +0.000 NA
ATOM     29  H   UNL     1      46.394   0.812   9.255  0.00  0.00    +0.000 HD
ENDBRANCH  23  24
ENDBRANCH  20  23
ENDBRANCH  16  17
ENDBRANCH   3  16
TORSDOF 5
ENDMDL
MODEL 3
REMARK VINA RESULT:    -7.883      1.921      2.991
REMARK INTER + INTRA:         -10.651
REMARK INTER:                  -9.957
REMARK INTRA:                  -0.694
REMARK UNBOUND:                -0.464
REMARK  Name = 
REMARK  5 active torsions:
REMARK  status: ('A' for Active; 'I' for Inactive)
REMARK    1  A    between atoms: C_2  and  C_17
REMARK    2  A    between atoms: N_3  and  C_4
REMARK    3  A    between atoms: C_4  and  C_5
REMARK    4  A    between atoms: C_8  and  C_9
REMARK    5  A    between atoms: C_9  and  C_10
REMARK                            x       y       z     vdW  Elec       q    Type
REMARK                         _______ _______ _______ _____ _____    ______ ____
ROOT
ATOM      1  O   UNL     1      46.892   3.670  14.282  0.00  0.00    +0.000 OA
ATOM      2  C   UNL     1      46.816   4.892  14.197  0.00  0.00    +0.000 C 
ATOM      3  N   UNL     1      45.672   5.538  13.803  0.00  0.00    +0.000 N 
ATOM      4  H   UNL     1      45.727   6.519  13.560  0.00  0.00    +0.000 HD
ENDROOT
BRANCH   2   5
ATOM      5  C   UNL     1      47.939   5.758  14.579  0.00  0.00    +0.000 A 
ATOM      6  C   UNL     1      48.462   5.691  15.861  0.00  0.00    +0.000 A 
ATOM      7  S   UNL     1      49.723   6.805  16.144  0.00  0.00    +0.000 S 
ATOM      8  C   UNL     1      49.653   7.375  14.543  0.00  0.00    +0.000 A 
ATOM      9  N   UNL     1      50.499   8.350  14.109  0.00  0.00    +0.000 NA
ATOM     10  C   UNL     1      50.368   8.651  12.859  0.00  0.00    +0.000 A 
ATOM     11  N   UNL     1      49.465   8.074  12.007  0.00  0.00    +0.000 N 
ATOM     12  C   UNL     1      48.541   7.145  12.421  0.00  0.00    +0.000 A 
ATOM     13  O   UNL     1      47.664   6.747  11.661  0.00  0.00    +0.000 OA
ATOM     14  C   UNL     1      48.670   6.741  13.807  0.00  0.00    +0.000 A 
ATOM     15  H   UNL     1      49.394   8.371  11.045  0.00  0.00    +0.000 HD
ENDBRANCH   2   5
BRANCH   3  16
ATOM     16  C   UNL     1      44.510   4.846  13.313  0.00  0.00    +0.000 C 
BRANCH  16  17
ATOM     17  C   UNL     1      44.636   4.544  11.843  0.00  0.00    +0.000 A 
ATOM     18  C   UNL     1      44.218   3.304  11.356  0.00  0.00    +0.000 A 
ATOM     19  C   UNL     1      44.340   2.995  10.001  0.00  0.00    +0.000 A 
ATOM     20  C   UNL     1      44.855   3.926   9.091  0.00  0.00    +0.000 A 
ATOM     21  C   UNL     1      45.312   5.154   9.588  0.00  0.00    +0.000 A 
ATOM     22  C   UNL     1      45.215   5.457  10.952  0.00  0.00    +0.000 A 
BRANCH  20  23
ATOM     23  C   UNL     1      45.004   3.579   7.625  0.00  0.00    +0.000 C 
BRANCH  23  24
ATOM     24  C   UNL     1      46.438   3.313   7.121  0.00  0.00    +0.000 C 
ATOM     25  C   UNL     1      46.558   3.056   5.624  0.00  0.00    +0.000 C 
ATOM     26  C   UNL     1      47.826   2.243   5.485  0.00  0.00    +0.000 C 
ATOM     27  C   UNL     1      47.949   1.496   6.800  0.00  0.00    +0.000 C 
ATOM     28  N   UNL     1      46.944   2.056   7.704  0.00  0.00    +0.000 NA
ATOM     29  H   UNL     1      47.340   2.222   8.628  0.00  0.00    +0.000 HD
ENDBRANCH  23  24
ENDBRANCH  20  23
ENDBRANCH  16  17
ENDBRANCH   3  16
TORSDOF 5
ENDMDL
MODEL 4
REMARK VINA RESULT:    -7.558      2.189      3.453
REMARK INTER + INTRA:         -10.231
REMARK INTER:                  -9.360
REMARK INTRA:                  -0.871
REMARK UNBOUND:                -0.464
REMARK  Name = 
REMARK  5 active torsions:
REMARK  status: ('A' for Active; 'I' for Inactive)
REMARK    1  A    between atoms: C_2  and  C_17
REMARK    2  A    between atoms: N_3  and  C_4
REMARK    3  A    between atoms: C_4  and  C_5
REMARK    4  A    between atoms: C_8  and  C_9
REMARK    5  A    between atoms: C_9  and  C_10
REMARK                            x       y       z     vdW  Elec       q    Type
REMARK                         _______ _______ _______ _____ _____    ______ ____
ROOT
ATOM      1  O   UNL     1      50.133   7.308  14.494  0.00  0.00    +0.000 OA
ATOM      2  C   UNL     1      49.158   7.126  15.217  0.00  0.00    +0.000 C 
ATOM      3  N   UNL     1      47.872   7.350  14.797  0.00  0.00    +0.000 N 
ATOM      4  H   UNL     1      47.132   7.376  15.489  0.00  0.00    +0.000 HD
ENDROOT
BRANCH   2   5
ATOM      5  C   UNL     1      49.301   6.587  16.576  0.00  0.00    +0.000 A 
ATOM      6  C   UNL     1      49.984   7.311  17.541  0.00  0.00    +0.000 A 
ATOM      7  S   UNL     1      50.099   6.509  19.043  0.00  0.00    +0.000 S 
ATOM      8  C   UNL     1      49.188   5.191  18.472  0.00  0.00    +0.000 A 
ATOM      9  N   UNL     1      48.899   4.135  19.281  0.00  0.00    +0.000 NA
ATOM     10  C   UNL     1      48.159   3.229  18.732  0.00  0.00    +0.000 A 
ATOM     11  N   UNL     1      47.689   3.278  17.447  0.00  0.00    +0.000 N 
ATOM     12  C   UNL     1      48.020   4.285  16.571  0.00  0.00    +0.000 A 
ATOM     13  O   UNL     1      47.688   4.228  15.391  0.00  0.00    +0.000 OA
ATOM     14  C   UNL     1      48.817   5.349  17.149  0.00  0.00    +0.000 A 
ATOM     15  H   UNL     1      47.134   2.525  17.067  0.00  0.00    +0.000 HD
ENDBRANCH   2   5
BRANCH   3  16
ATOM     16  C   UNL     1      47.554   7.956  13.532  0.00  0.00    +0.000 C 
BRANCH  16  17
ATOM     17  C   UNL     1      46.582   7.110  12.753  0.00  0.00    +0.000 A 
ATOM     18  C   UNL     1      45.481   7.713  12.142  0.00  0.00    +0.000 A 
ATOM     19  C   UNL     1      44.557   6.948  11.429  0.00  0.00    +0.000 A 
ATOM     20  C   UNL     1      44.724   5.565  11.282  0.00  0.00    +0.000 A 
ATOM     21  C   UNL     1      45.807   4.957  11.929  0.00  0.00    +0.000 A 
ATOM     22  C   UNL     1      46.722   5.719  12.669  0.00  0.00    +0.000 A 
BRANCH  20  23
ATOM     23  C   UNL     1      43.710   4.736  10.523  0.00  0.00    +0.000 C 
BRANCH  23  24
ATOM     24  C   UNL     1      44.200   4.069   9.220  0.00  0.00    +0.000 C 
ATOM     25  C   UNL     1      44.816   2.687   9.397  0.00  0.00    +0.000 C 
ATOM     26  C   UNL     1      45.735   2.534   8.204  0.00  0.00    +0.000 C 
ATOM     27  C   UNL     1      46.153   3.951   7.857  0.00  0.00    +0.000 C 
ATOM     28  N   UNL     1      45.316   4.849   8.652  0.00  0.00    +0.000 NA
ATOM     29  H   UNL     1      44.964   5.617   8.082  0.00  0.00    +0.000 HD
ENDBRANCH  23  24
ENDBRANCH  20  23
ENDBRANCH  16  17
ENDBRANCH   3  16
TORSDOF 5
ENDMDL
MODEL 5
REMARK VINA RESULT:    -7.476      3.863      8.825
REMARK INTER + INTRA:         -10.125
REMARK INTER:                  -9.388
REMARK INTRA:                  -0.737
REMARK UNBOUND:                -0.464
REMARK  Name = 
REMARK  5 active torsions:
REMARK  status: ('A' for Active; 'I' for Inactive)
REMARK    1  A    between atoms: C_2  and  C_17
REMARK    2  A    between atoms: N_3  and  C_4
REMARK    3  A    between atoms: C_4  and  C_5
REMARK    4  A    between atoms: C_8  and  C_9
REMARK    5  A    between atoms: C_9  and  C_10
REMARK                            x       y       z     vdW  Elec       q    Type
REMARK                         _______ _______ _______ _____ _____    ______ ____
ROOT
ATOM      1  O   UNL     1      47.230   3.014  14.099  0.00  0.00    +0.000 OA
ATOM      2  C   UNL     1      46.831   4.096  14.519  0.00  0.00    +0.000 C 
ATOM      3  N   UNL     1      46.826   4.417  15.852  0.00  0.00    +0.000 N 
ATOM      4  H   UNL     1      46.306   5.233  16.154  0.00  0.00    +0.000 HD
ENDROOT
BRANCH   2   5
ATOM      5  C   UNL     1      46.389   5.157  13.605  0.00  0.00    +0.000 A 
ATOM      6  C   UNL     1      47.225   6.229  13.331  0.00  0.00    +0.000 A 
ATOM      7  S   UNL     1      46.529   7.391  12.294  0.00  0.00    +0.000 S 
ATOM      8  C   UNL     1      45.107   6.472  12.128  0.00  0.00    +0.000 A 
ATOM      9  N   UNL     1      44.082   6.902  11.342  0.00  0.00    +0.000 NA
ATOM     10  C   UNL     1      43.086   6.082  11.269  0.00  0.00    +0.000 A 
ATOM     11  N   UNL     1      43.017   4.877  11.915  0.00  0.00    +0.000 N 
ATOM     12  C   UNL     1      43.992   4.440  12.779  0.00  0.00    +0.000 A 
ATOM     13  O   UNL     1      43.837   3.418  13.440  0.00  0.00    +0.000 OA
ATOM     14  C   UNL     1      45.153   5.305  12.867  0.00  0.00    +0.000 A 
ATOM     15  H   UNL     1      42.199   4.291  11.838  0.00  0.00    +0.000 HD
ENDBRANCH   2   5
BRANCH   3  16
ATOM     16  C   UNL     1      47.143   3.471  16.889  0.00  0.00    +0.000 C 
BRANCH  16  17
ATOM     17  C   UNL     1      48.626   3.426  17.147  0.00  0.00    +0.000 A 
ATOM     18  C   UNL     1      49.303   4.601  17.477  0.00  0.00    +0.000 A 
ATOM     19  C   UNL     1      50.680   4.587  17.705  0.00  0.00    +0.000 A 
ATOM     20  C   UNL     1      51.412   3.395  17.639  0.00  0.00    +0.000 A 
ATOM     21  C   UNL     1      50.737   2.225  17.269  0.00  0.00    +0.000 A 
ATOM     22  C   UNL     1      49.359   2.240  17.013  0.00  0.00    +0.000 A 
BRANCH  20  23
ATOM     23  C   UNL     1      52.908   3.388  17.869  0.00  0.00    +0.000 C 
BRANCH  23  24
ATOM     24  C   UNL     1      53.529   2.051  18.325  0.00  0.00    +0.000 C 
ATOM     25  C   UNL     1      54.549   2.165  19.451  0.00  0.00    +0.000 C 
ATOM     26  C   UNL     1      55.423   0.940  19.288  0.00  0.00    +0.000 C 
ATOM     27  C   UNL     1      55.367   0.623  17.805  0.00  0.00    +0.000 C 
ATOM     28  N   UNL     1      54.325   1.472  17.227  0.00  0.00    +0.000 NA
ATOM     29  H   UNL     1      53.731   0.937  16.595  0.00  0.00    +0.000 HD
ENDBRANCH  23  24
ENDBRANCH  20  23
ENDBRANCH  16  17
ENDBRANCH   3  16
TORSDOF 5
ENDMDL
MODEL 6
REMARK VINA RESULT:    -7.397      1.570      2.142
REMARK INTER + INTRA:         -10.023
REMARK INTER:                  -9.519
REMARK INTRA:                  -0.504
REMARK UNBOUND:                -0.464
REMARK  Name = 
REMARK  5 active torsions:
REMARK  status: ('A' for Active; 'I' for Inactive)
REMARK    1  A    between atoms: C_2  and  C_17
REMARK    2  A    between atoms: N_3  and  C_4
REMARK    3  A    between atoms: C_4  and  C_5
REMARK    4  A    between atoms: C_8  and  C_9
REMARK    5  A    between atoms: C_9  and  C_10
REMARK                            x       y       z     vdW  Elec       q    Type
REMARK                         _______ _______ _______ _____ _____    ______ ____
ROOT
ATOM      1  O   UNL     1      47.633   4.577  14.041  0.00  0.00    +0.000 OA
ATOM      2  C   UNL     1      47.250   5.735  13.905  0.00  0.00    +0.000 C 
ATOM      3  N   UNL     1      45.948   6.056  13.618  0.00  0.00    +0.000 N 
ATOM      4  H   UNL     1      45.734   7.001  13.323  0.00  0.00    +0.000 HD
ENDROOT
BRANCH   2   5
ATOM      5  C   UNL     1      48.157   6.872  14.109  0.00  0.00    +0.000 A 
ATOM      6  C   UNL     1      48.132   7.945  13.231  0.00  0.00    +0.000 A 
ATOM      7  S   UNL     1      49.288   9.148  13.589  0.00  0.00    +0.000 S 
ATOM      8  C   UNL     1      49.823   8.303  14.965  0.00  0.00    +0.000 A 
ATOM      9  N   UNL     1      50.813   8.804  15.754  0.00  0.00    +0.000 NA
ATOM     10  C   UNL     1      51.085   8.082  16.791  0.00  0.00    +0.000 A 
ATOM     11  N   UNL     1      50.463   6.903  17.106  0.00  0.00    +0.000 N 
ATOM     12  C   UNL     1      49.516   6.322  16.298  0.00  0.00    +0.000 A 
ATOM     13  O   UNL     1      49.076   5.204  16.546  0.00  0.00    +0.000 OA
ATOM     14  C   UNL     1      49.144   7.111  15.140  0.00  0.00    +0.000 A 
ATOM     15  H   UNL     1      50.738   6.372  17.919  0.00  0.00    +0.000 HD
ENDBRANCH   2   5
BRANCH   3  16
ATOM     16  C   UNL     1      44.948   5.070  13.304  0.00  0.00    +0.000 C 
BRANCH  16  17
ATOM     17  C   UNL     1      44.985   4.705  11.843  0.00  0.00    +0.000 A 
ATOM     18  C   UNL     1      44.579   3.431  11.442  0.00  0.00    +0.000 A 
ATOM     19  C   UNL     1      44.620   3.064  10.096  0.00  0.00    +0.000 A 
ATOM     20  C   UNL     1      45.038   3.969   9.112  0.00  0.00    +0.000 A 
ATOM     21  C   UNL     1      45.483   5.232   9.522  0.00  0.00    +0.000 A 
ATOM     22  C   UNL     1      45.469   5.595  10.876  0.00  0.00    +0.000 A 
BRANCH  20  23
ATOM     23  C   UNL     1      45.099   3.560   7.656  0.00  0.00    +0.000 C 
BRANCH  23  24
ATOM     24  C   UNL     1      46.505   3.338   7.060  0.00  0.00    +0.000 C 
ATOM     25  C   UNL     1      46.531   3.025   5.570  0.00  0.00    +0.000 C 
ATOM     26  C   UNL     1      47.825   2.265   5.371  0.00  0.00    +0.000 C 
ATOM     27  C   UNL     1      48.076   1.580   6.701  0.00  0.00    +0.000 C 
ATOM     28  N   UNL     1      47.112   2.131   7.653  0.00  0.00    +0.000 NA
ATOM     29  H   UNL     1      47.563   2.354   8.539  0.00  0.00    +0.000 HD
ENDBRANCH  23  24
ENDBRANCH  20  23
ENDBRANCH  16  17
ENDBRANCH   3  16
TORSDOF 5
ENDMDL
MODEL 7
REMARK VINA RESULT:    -7.242      3.913      8.828
REMARK INTER + INTRA:          -9.822
REMARK INTER:                  -9.043
REMARK INTRA:                  -0.779
REMARK UNBOUND:                -0.464
REMARK  Name = 
REMARK  5 active torsions:
REMARK  status: ('A' for Active; 'I' for Inactive)
REMARK    1  A    between atoms: C_2  and  C_17
REMARK    2  A    between atoms: N_3  and  C_4
REMARK    3  A    between atoms: C_4  and  C_5
REMARK    4  A    between atoms: C_8  and  C_9
REMARK    5  A    between atoms: C_9  and  C_10
REMARK                            x       y       z     vdW  Elec       q    Type
REMARK                         _______ _______ _______ _____ _____    ______ ____
ROOT
ATOM      1  O   UNL     1      47.288   3.070  14.152  0.00  0.00    +0.000 OA
ATOM      2  C   UNL     1      46.901   4.150  14.588  0.00  0.00    +0.000 C 
ATOM      3  N   UNL     1      46.879   4.444  15.927  0.00  0.00    +0.000 N 
ATOM      4  H   UNL     1      46.369   5.262  16.238  0.00  0.00    +0.000 HD
ENDROOT
BRANCH   2   5
ATOM      5  C   UNL     1      46.493   5.238  13.690  0.00  0.00    +0.000 A 
ATOM      6  C   UNL     1      47.362   6.288  13.432  0.00  0.00    +0.000 A 
ATOM      7  S   UNL     1      46.703   7.486  12.412  0.00  0.00    +0.000 S 
ATOM      8  C   UNL     1      45.254   6.614  12.231  0.00  0.00    +0.000 A 
ATOM      9  N   UNL     1      44.244   7.088  11.451  0.00  0.00    +0.000 NA
ATOM     10  C   UNL     1      43.223   6.300  11.365  0.00  0.00    +0.000 A 
ATOM     11  N   UNL     1      43.117   5.088  11.993  0.00  0.00    +0.000 N 
ATOM     12  C   UNL     1      44.077   4.608  12.851  0.00  0.00    +0.000 A 
ATOM     13  O   UNL     1      43.889   3.581  13.497  0.00  0.00    +0.000 OA
ATOM     14  C   UNL     1      45.263   5.435  12.953  0.00  0.00    +0.000 A 
ATOM     15  H   UNL     1      42.280   4.529  11.906  0.00  0.00    +0.000 HD
ENDBRANCH   2   5
BRANCH   3  16
ATOM     16  C   UNL     1      47.162   3.470  16.948  0.00  0.00    +0.000 C 
BRANCH  16  17
ATOM     17  C   UNL     1      48.642   3.371  17.208  0.00  0.00    +0.000 A 
ATOM     18  C   UNL     1      49.333   4.486  17.687  0.00  0.00    +0.000 A 
ATOM     19  C   UNL     1      50.708   4.423  17.919  0.00  0.00    +0.000 A 
ATOM     20  C   UNL     1      51.423   3.238  17.710  0.00  0.00    +0.000 A 
ATOM     21  C   UNL     1      50.735   2.133  17.192  0.00  0.00    +0.000 A 
ATOM     22  C   UNL     1      49.360   2.201  16.931  0.00  0.00    +0.000 A 
BRANCH  20  23
ATOM     23  C   UNL     1      52.917   3.180  17.946  0.00  0.00    +0.000 C 
BRANCH  23  24
ATOM     24  C   UNL     1      53.623   4.522  18.232  0.00  0.00    +0.000 C 
ATOM     25  C   UNL     1      54.270   5.180  17.020  0.00  0.00    +0.000 C 
ATOM     26  C   UNL     1      55.359   6.052  17.606  0.00  0.00    +0.000 C 
ATOM     27  C   UNL     1      55.757   5.356  18.894  0.00  0.00    +0.000 C 
ATOM     28  N   UNL     1      54.772   4.299  19.129  0.00  0.00    +0.000 NA
ATOM     29  H   UNL     1      54.473   4.293  20.102  0.00  0.00    +0.000 HD
ENDBRANCH  23  24
ENDBRANCH  20  23
ENDBRANCH  16  17
ENDBRANCH   3  16
TORSDOF 5
ENDMDL
MODEL 8
REMARK VINA RESULT:    -7.092      3.698      8.406
REMARK INTER + INTRA:          -9.628
REMARK INTER:                  -8.812
REMARK INTRA:                  -0.816
REMARK UNBOUND:                -0.464
REMARK  Name = 
REMARK  5 active torsions:
REMARK  status: ('A' for Active; 'I' for Inactive)
REMARK    1  A    between atoms: C_2  and  C_17
REMARK    2  A    between atoms: N_3  and  C_4
REMARK    3  A    between atoms: C_4  and  C_5
REMARK    4  A    between atoms: C_8  and  C_9
REMARK    5  A    between atoms: C_9  and  C_10
REMARK                            x       y       z     vdW  Elec       q    Type
REMARK                         _______ _______ _______ _____ _____    ______ ____
ROOT
ATOM      1  O   UNL     1      49.016   6.512  12.866  0.00  0.00    +0.000 OA
ATOM      2  C   UNL     1      47.934   6.805  13.366  0.00  0.00    +0.000 C 
ATOM      3  N   UNL     1      47.824   7.565  14.502  0.00  0.00    +0.000 N 
ATOM      4  H   UNL     1      46.930   7.606  14.976  0.00  0.00    +0.000 HD
ENDROOT
BRANCH   2   5
ATOM      5  C   UNL     1      46.666   6.414  12.736  0.00  0.00    +0.000 A 
ATOM      6  C   UNL     1      45.892   7.363  12.087  0.00  0.00    +0.000 A 
ATOM      7  S   UNL     1      44.430   6.743  11.462  0.00  0.00    +0.000 S 
ATOM      8  C   UNL     1      44.811   5.170  11.985  0.00  0.00    +0.000 A 
ATOM      9  N   UNL     1      43.965   4.128  11.749  0.00  0.00    +0.000 NA
ATOM     10  C   UNL     1      44.403   2.983  12.157  0.00  0.00    +0.000 A 
ATOM     11  N   UNL     1      45.602   2.785  12.787  0.00  0.00    +0.000 N 
ATOM     12  C   UNL     1      46.449   3.816  13.116  0.00  0.00    +0.000 A 
ATOM     13  O   UNL     1      47.452   3.616  13.794  0.00  0.00    +0.000 OA
ATOM     14  C   UNL     1      46.025   5.120  12.644  0.00  0.00    +0.000 A 
ATOM     15  H   UNL     1      45.877   1.867  13.105  0.00  0.00    +0.000 HD
ENDBRANCH   2   5
BRANCH   3  16
ATOM     16  C   UNL     1      48.959   7.960  15.294  0.00  0.00    +0.000 C 
BRANCH  16  17
ATOM     17  C   UNL     1      49.462   6.815  16.133  0.00  0.00    +0.000 A 
ATOM     18  C   UNL     1      50.825   6.718  16.418  0.00  0.00    +0.000 A 
ATOM     19  C   UNL     1      51.317   5.657  17.179  0.00  0.00    +0.000 A 
ATOM     20  C   UNL     1      50.458   4.682  17.702  0.00  0.00    +0.000 A 
ATOM     21  C   UNL     1      49.097   4.760  17.380  0.00  0.00    +0.000 A 
ATOM     22  C   UNL     1      48.603   5.809  16.593  0.00  0.00    +0.000 A 
BRANCH  20  23
ATOM     23  C   UNL     1      50.999   3.523  18.511  0.00  0.00    +0.000 C 
BRANCH  23  24
ATOM     24  C   UNL     1      52.183   2.746  17.897  0.00  0.00    +0.000 C 
ATOM     25  C   UNL     1      51.840   1.359  17.371  0.00  0.00    +0.000 C 
ATOM     26  C   UNL     1      53.151   0.605  17.422  0.00  0.00    +0.000 C 
ATOM     27  C   UNL     1      53.922   1.253  18.557  0.00  0.00    +0.000 C 
ATOM     28  N   UNL     1      53.182   2.455  18.943  0.00  0.00    +0.000 NA
ATOM     29  H   UNL     1      53.814   3.245  19.066  0.00  0.00    +0.000 HD
ENDBRANCH  23  24
ENDBRANCH  20  23
ENDBRANCH  16  17
ENDBRANCH   3  16
TORSDOF 5
ENDMDL
MODEL 9
REMARK VINA RESULT:    -7.010      2.904      3.543
REMARK INTER + INTRA:          -9.523
REMARK INTER:                  -8.784
REMARK INTRA:                  -0.739
REMARK UNBOUND:                -0.464
REMARK  Name = 
REMARK  5 active torsions:
REMARK  status: ('A' for Active; 'I' for Inactive)
REMARK    1  A    between atoms: C_2  and  C_17
REMARK    2  A    between atoms: N_3  and  C_4
REMARK    3  A    between atoms: C_4  and  C_5
REMARK    4  A    between atoms: C_8  and  C_9
REMARK    5  A    between atoms: C_9  and  C_10
REMARK                            x       y       z     vdW  Elec       q    Type
REMARK                         _______ _______ _______ _____ _____    ______ ____
ROOT
ATOM      1  O   UNL     1      47.204   8.306  13.949  0.00  0.00    +0.000 OA
ATOM      2  C   UNL     1      48.165   7.561  13.783  0.00  0.00    +0.000 C 
ATOM      3  N   UNL     1      48.040   6.198  13.699  0.00  0.00    +0.000 N 
ATOM      4  H   UNL     1      48.875   5.628  13.763  0.00  0.00    +0.000 HD
ENDROOT
BRANCH   2   5
ATOM      5  C   UNL     1      49.522   8.090  13.595  0.00  0.00    +0.000 A 
ATOM      6  C   UNL     1      49.786   8.971  12.558  0.00  0.00    +0.000 A 
ATOM      7  S   UNL     1      51.423   9.440  12.457  0.00  0.00    +0.000 S 
ATOM      8  C   UNL     1      51.826   8.526  13.834  0.00  0.00    +0.000 A 
ATOM      9  N   UNL     1      53.102   8.502  14.311  0.00  0.00    +0.000 NA
ATOM     10  C   UNL     1      53.254   7.807  15.390  0.00  0.00    +0.000 A 
ATOM     11  N   UNL     1      52.252   7.129  16.030  0.00  0.00    +0.000 N 
ATOM     12  C   UNL     1      50.969   7.061  15.542  0.00  0.00    +0.000 A 
ATOM     13  O   UNL     1      50.130   6.339  16.071  0.00  0.00    +0.000 OA
ATOM     14  C   UNL     1      50.733   7.857  14.353  0.00  0.00    +0.000 A 
ATOM     15  H   UNL     1      52.440   6.582  16.858  0.00  0.00    +0.000 HD
ENDBRANCH   2   5
BRANCH   3  16
ATOM     16  C   UNL     1      46.802   5.507  13.945  0.00  0.00    +0.000 C 
BRANCH  16  17
ATOM     17  C   UNL     1      46.142   5.100  12.654  0.00  0.00    +0.000 A 
ATOM     18  C   UNL     1      46.116   5.993  11.582  0.00  0.00    +0.000 A 
ATOM     19  C   UNL     1      45.496   5.645  10.382  0.00  0.00    +0.000 A 
ATOM     20  C   UNL     1      44.911   4.385  10.209  0.00  0.00    +0.000 A 
ATOM     21  C   UNL     1      44.902   3.505  11.299  0.00  0.00    +0.000 A 
ATOM     22  C   UNL     1      45.501   3.862  12.515  0.00  0.00    +0.000 A 
BRANCH  20  23
ATOM     23  C   UNL     1      44.223   4.018   8.911  0.00  0.00    +0.000 C 
BRANCH  23  24
ATOM     24  C   UNL     1      45.056   3.210   7.894  0.00  0.00    +0.000 C 
ATOM     25  C   UNL     1      45.752   1.980   8.464  0.00  0.00    +0.000 C 
ATOM     26  C   UNL     1      46.925   1.752   7.535  0.00  0.00    +0.000 C 
ATOM     27  C   UNL     1      47.265   3.131   7.001  0.00  0.00    +0.000 C 
ATOM     28  N   UNL     1      46.187   4.027   7.416  0.00  0.00    +0.000 NA
ATOM     29  H   UNL     1      45.896   4.627   6.645  0.00  0.00    +0.000 HD
ENDBRANCH  23  24
ENDBRANCH  20  23
ENDBRANCH  16  17
ENDBRANCH   3  16
TORSDOF 5
ENDMDL
