MODEL 1
REMARK VINA RESULT:    -7.788      0.000      0.000
REMARK INTER + INTRA:         -13.091
REMARK INTER:                 -12.113
REMARK INTRA:                  -0.978
REMARK UNBOUND:                -0.978
REMARK  Name = 
REMARK  10 active torsions:
REMARK  status: ('A' for Active; 'I' for Inactive)
REMARK    1  A    between atoms: N_1  and  C_2
REMARK    2  A    between atoms: C_2  and  C_3
REMARK    3  A    between atoms: C_3  and  C_4
REMARK    4  A    between atoms: C_4  and  C_5
REMARK    5  A    between atoms: C_5  and  C_6
REMARK    6  A    between atoms: C_6  and  N_7
REMARK    7  A    between atoms: C_8  and  C_10
REMARK    8  A    between atoms: C_14  and  N_15
REMARK    9  A    between atoms: N_15  and  C_16
REMARK   10  A    between atoms: C_16  and  C_17
REMARK                            x       y       z     vdW  Elec       q    Type
REMARK                         _______ _______ _______ _____ _____    ______ ____
ROOT
ATOM      1  C   UNL     1      46.368   4.746  13.630  0.00  0.00    +0.000 A 
ATOM      2  C   UNL     1      46.618   6.088  13.351  0.00  0.00    +0.000 A 
ATOM      3  C   UNL     1      46.074   6.632  12.197  0.00  0.00    +0.000 A 
ATOM      4  C   UNL     1      45.287   5.828  11.379  0.00  0.00    +0.000 A 
ATOM      5  C   UNL     1      45.047   4.494  11.729  0.00  0.00    +0.000 A 
ATOM      6  N   UNL     1      45.602   3.937  12.833  0.00  0.00    +0.000 NA
ENDROOT
BRANCH   1   8
ATOM      7  N   UNL     1      47.003   4.825  16.029  0.00  0.00    +0.000 N 
ATOM      8  C   UNL     1      47.011   4.117  14.839  0.00  0.00    +0.000 C 
ATOM      9  O   UNL     1      47.517   2.980  14.757  0.00  0.00    +0.000 OA
ATOM     10  H   UNL     1      46.506   5.708  16.064  0.00  0.00    +0.000 HD
BRANCH   7  11
ATOM     11  C   UNL     1      47.617   4.302  17.236  0.00  0.00    +0.000 C 
BRANCH  11  12
ATOM     12  C   UNL     1      48.830   5.119  17.687  0.00  0.00    +0.000 C 
BRANCH  12  13
ATOM     13  C   UNL     1      49.863   4.239  18.399  0.00  0.00    +0.000 C 
BRANCH  13  14
ATOM     14  C   UNL     1      50.824   3.592  17.399  0.00  0.00    +0.000 C 
BRANCH  14  15
ATOM     15  C   UNL     1      50.600   2.085  17.323  0.00  0.00    +0.000 C 
BRANCH  15  16
ATOM     16  N   UNL     1      49.798   1.760  16.151  0.00  0.00    +0.000 NA
ATOM     17  H   UNL     1      50.355   1.905  15.310  0.00  0.00    +0.000 HD
ATOM     18  H   UNL     1      49.009   2.402  16.088  0.00  0.00    +0.000 HD
ENDBRANCH  15  16
ENDBRANCH  14  15
ENDBRANCH  13  14
ENDBRANCH  12  13
ENDBRANCH  11  12
ENDBRANCH   7  11
ENDBRANCH   1   8
BRANCH   5  19
ATOM     19  N   UNL     1      44.270   3.728  10.869  0.00  0.00    +0.000 N 
ATOM     20  H   UNL     1      44.168   2.749  11.123  0.00  0.00    +0.000 HD
BRANCH  19  21
ATOM     21  C   UNL     1      44.156   4.052   9.454  0.00  0.00    +0.000 C 
BRANCH  21  22
ATOM     22  C   UNL     1      45.236   3.464   8.570  0.00  0.00    +0.000 A 
ATOM     23  C   UNL     1      45.451   2.088   8.573  0.00  0.00    +0.000 A 
ATOM     24  C   UNL     1      46.460   1.580   7.768  0.00  0.00    +0.000 A 
ATOM     25 CL   UNL     1      46.757  -0.114   7.745  0.00  0.00    +0.000 Cl
ATOM     26  C   UNL     1      47.230   2.428   6.988  0.00  0.00    +0.000 A 
ATOM     27  C   UNL     1      46.946   3.779   7.042  0.00  0.00    +0.000 A 
ATOM     28  N   UNL     1      45.981   4.315   7.821  0.00  0.00    +0.000 NA
ENDBRANCH  21  22
ENDBRANCH  19  21
ENDBRANCH   5  19
TORSDOF 10
ENDMDL
MODEL 2
REMARK VINA RESULT:    -7.108      1.618      2.033
REMARK INTER + INTRA:         -12.034
REMARK INTER:                 -11.368
REMARK INTRA:                  -0.666
REMARK UNBOUND:                -0.978
REMARK  Name = 
REMARK  10 active torsions:
REMARK  status: ('A' for Active; 'I' for Inactive)
REMARK    1  A    between atoms: N_1  and  C_2
REMARK    2  A    between atoms: C_2  and  C_3
REMARK    3  A    between atoms: C_3  and  C_4
REMARK    4  A    between atoms: C_4  and  C_5
REMARK    5  A    between atoms: C_5  and  C_6
REMARK    6  A    between atoms: C_6  and  N_7
REMARK    7  A    between atoms: C_8  and  C_10
REMARK    8  A    between atoms: C_14  and  N_15
REMARK    9  A    between atoms: N_15  and  C_16
REMARK   10  A    between atoms: C_16  and  C_17
REMARK                            x       y       z     vdW  Elec       q    Type
REMARK                         _______ _______ _______ _____ _____    ______ ____
ROOT
ATOM      1  C   UNL     1      46.344   4.896  13.080  0.00  0.00    +0.000 A 
ATOM      2  C   UNL     1      46.672   6.227  12.824  0.00  0.00    +0.000 A 
ATOM      3  C   UNL     1      46.199   6.809  11.659  0.00  0.00    +0.000 A 
ATOM      4  C   UNL     1      45.401   6.055  10.804  0.00  0.00    +0.000 A 
ATOM      5  C   UNL     1      45.080   4.732  11.131  0.00  0.00    +0.000 A 
ATOM      6  N   UNL     1      45.565   4.136  12.247  0.00  0.00    +0.000 NA
ENDROOT
BRANCH   1   8
ATOM      7  N   UNL     1      46.926   4.933  15.493  0.00  0.00    +0.000 N 
ATOM      8  C   UNL     1      46.909   4.224  14.304  0.00  0.00    +0.000 C 
ATOM      9  O   UNL     1      47.330   3.052  14.234  0.00  0.00    +0.000 OA
ATOM     10  H   UNL     1      46.495   5.850  15.516  0.00  0.00    +0.000 HD
BRANCH   7  11
ATOM     11  C   UNL     1      47.471   4.367  16.715  0.00  0.00    +0.000 C 
BRANCH  11  12
ATOM     12  C   UNL     1      48.714   5.110  17.209  0.00  0.00    +0.000 C 
BRANCH  12  13
ATOM     13  C   UNL     1      49.472   4.292  18.260  0.00  0.00    +0.000 C 
BRANCH  13  14
ATOM     14  C   UNL     1      49.840   5.151  19.472  0.00  0.00    +0.000 C 
BRANCH  14  15
ATOM     15  C   UNL     1      49.089   4.689  20.718  0.00  0.00    +0.000 C 
BRANCH  15  16
ATOM     16  N   UNL     1      48.344   3.472  20.428  0.00  0.00    +0.000 NA
ATOM     17  H   UNL     1      47.391   3.715  20.162  0.00  0.00    +0.000 HD
ATOM     18  H   UNL     1      48.272   2.906  21.272  0.00  0.00    +0.000 HD
ENDBRANCH  15  16
ENDBRANCH  14  15
ENDBRANCH  13  14
ENDBRANCH  12  13
ENDBRANCH  11  12
ENDBRANCH   7  11
ENDBRANCH   1   8
BRANCH   5  19
ATOM     19  N   UNL     1      44.296   4.015  10.235  0.00  0.00    +0.000 N 
ATOM     20  H   UNL     1      43.932   3.131  10.579  0.00  0.00    +0.000 HD
BRANCH  19  21
ATOM     21  C   UNL     1      44.487   4.129   8.796  0.00  0.00    +0.000 C 
BRANCH  21  22
ATOM     22  C   UNL     1      45.388   3.078   8.181  0.00  0.00    +0.000 A 
ATOM     23  C   UNL     1      46.103   3.379   7.024  0.00  0.00    +0.000 A 
ATOM     24  C   UNL     1      46.904   2.391   6.473  0.00  0.00    +0.000 A 
ATOM     25 CL   UNL     1      47.801   2.723   5.043  0.00  0.00    +0.000 Cl
ATOM     26  C   UNL     1      46.984   1.140   7.064  0.00  0.00    +0.000 A 
ATOM     27  C   UNL     1      46.246   0.928   8.213  0.00  0.00    +0.000 A 
ATOM     28  N   UNL     1      45.444   1.859   8.775  0.00  0.00    +0.000 NA
ENDBRANCH  21  22
ENDBRANCH  19  21
ENDBRANCH   5  19
TORSDOF 10
ENDMDL
MODEL 3
REMARK VINA RESULT:    -6.830      1.524      2.362
REMARK INTER + INTRA:         -11.602
REMARK INTER:                 -10.873
REMARK INTRA:                  -0.729
REMARK UNBOUND:                -0.978
REMARK  Name = 
REMARK  10 active torsions:
REMARK  status: ('A' for Active; 'I' for Inactive)
REMARK    1  A    between atoms: N_1  and  C_2
REMARK    2  A    between atoms: C_2  and  C_3
REMARK    3  A    between atoms: C_3  and  C_4
REMARK    4  A    between atoms: C_4  and  C_5
REMARK    5  A    between atoms: C_5  and  C_6
REMARK    6  A    between atoms: C_6  and  N_7
REMARK    7  A    between atoms: C_8  and  C_10
REMARK    8  A    between atoms: C_14  and  N_15
REMARK    9  A    between atoms: N_15  and  C_16
REMARK   10  A    between atoms: C_16  and  C_17
REMARK                            x       y       z     vdW  Elec       q    Type
REMARK                         _______ _______ _______ _____ _____    ______ ____
ROOT
ATOM      1  C   UNL     1      46.235   5.358  13.173  0.00  0.00    +0.000 A 
ATOM      2  C   UNL     1      46.502   6.719  13.319  0.00  0.00    +0.000 A 
ATOM      3  C   UNL     1      45.995   7.594  12.372  0.00  0.00    +0.000 A 
ATOM      4  C   UNL     1      45.226   7.088  11.328  0.00  0.00    +0.000 A 
ATOM      5  C   UNL     1      44.967   5.714  11.252  0.00  0.00    +0.000 A 
ATOM      6  N   UNL     1      45.486   4.841  12.149  0.00  0.00    +0.000 NA
ENDROOT
BRANCH   1   8
ATOM      7  N   UNL     1      46.956   4.771  15.475  0.00  0.00    +0.000 N 
ATOM      8  C   UNL     1      46.838   4.384  14.151  0.00  0.00    +0.000 C 
ATOM      9  O   UNL     1      47.201   3.255  13.764  0.00  0.00    +0.000 OA
ATOM     10  H   UNL     1      46.569   5.665  15.754  0.00  0.00    +0.000 HD
BRANCH   7  11
ATOM     11  C   UNL     1      47.543   3.900  16.478  0.00  0.00    +0.000 C 
BRANCH  11  12
ATOM     12  C   UNL     1      48.687   4.567  17.245  0.00  0.00    +0.000 C 
BRANCH  12  13
ATOM     13  C   UNL     1      48.703   6.083  17.017  0.00  0.00    +0.000 C 
BRANCH  13  14
ATOM     14  C   UNL     1      48.355   6.840  18.301  0.00  0.00    +0.000 C 
BRANCH  14  15
ATOM     15  C   UNL     1      49.526   7.704  18.761  0.00  0.00    +0.000 C 
BRANCH  15  16
ATOM     16  N   UNL     1      49.101   9.091  18.888  0.00  0.00    +0.000 NA
ATOM     17  H   UNL     1      49.285   9.582  18.014  0.00  0.00    +0.000 HD
ATOM     18  H   UNL     1      49.660   9.556  19.601  0.00  0.00    +0.000 HD
ENDBRANCH  15  16
ENDBRANCH  14  15
ENDBRANCH  13  14
ENDBRANCH  12  13
ENDBRANCH  11  12
ENDBRANCH   7  11
ENDBRANCH   1   8
BRANCH   5  19
ATOM     19  N   UNL     1      44.209   5.256  10.181  0.00  0.00    +0.000 N 
ATOM     20  H   UNL     1      43.403   5.825   9.937  0.00  0.00    +0.000 HD
BRANCH  19  21
ATOM     21  C   UNL     1      44.134   3.839   9.854  0.00  0.00    +0.000 C 
BRANCH  21  22
ATOM     22  C   UNL     1      45.160   3.355   8.851  0.00  0.00    +0.000 A 
ATOM     23  C   UNL     1      45.443   1.994   8.761  0.00  0.00    +0.000 A 
ATOM     24  C   UNL     1      46.402   1.582   7.848  0.00  0.00    +0.000 A 
ATOM     25 CL   UNL     1      46.780  -0.091   7.709  0.00  0.00    +0.000 Cl
ATOM     26  C   UNL     1      47.057   2.507   7.052  0.00  0.00    +0.000 A 
ATOM     27  C   UNL     1      46.712   3.837   7.202  0.00  0.00    +0.000 A 
ATOM     28  N   UNL     1      45.794   4.281   8.088  0.00  0.00    +0.000 NA
ENDBRANCH  21  22
ENDBRANCH  19  21
ENDBRANCH   5  19
TORSDOF 10
ENDMDL
MODEL 4
REMARK VINA RESULT:    -6.762      1.939      2.815
REMARK INTER + INTRA:         -11.495
REMARK INTER:                 -10.326
REMARK INTRA:                  -1.169
REMARK UNBOUND:                -0.978
REMARK  Name = 
REMARK  10 active torsions:
REMARK  status: ('A' for Active; 'I' for Inactive)
REMARK    1  A    between atoms: N_1  and  C_2
REMARK    2  A    between atoms: C_2  and  C_3
REMARK    3  A    between atoms: C_3  and  C_4
REMARK    4  A    between atoms: C_4  and  C_5
REMARK    5  A    between atoms: C_5  and  C_6
REMARK    6  A    between atoms: C_6  and  N_7
REMARK    7  A    between atoms: C_8  and  C_10
REMARK    8  A    between atoms: C_14  and  N_15
REMARK    9  A    between atoms: N_15  and  C_16
REMARK   10  A    between atoms: C_16  and  C_17
REMARK                            x       y       z     vdW  Elec       q    Type
REMARK                         _______ _______ _______ _____ _____    ______ ____
ROOT
ATOM      1  C   UNL     1      46.633   5.111  13.863  0.00  0.00    +0.000 A 
ATOM      2  C   UNL     1      47.579   5.961  13.292  0.00  0.00    +0.000 A 
ATOM      3  C   UNL     1      47.148   6.891  12.358  0.00  0.00    +0.000 A 
ATOM      4  C   UNL     1      45.794   6.956  12.046  0.00  0.00    +0.000 A 
ATOM      5  C   UNL     1      44.888   6.095  12.677  0.00  0.00    +0.000 A 
ATOM      6  N   UNL     1      45.297   5.155  13.564  0.00  0.00    +0.000 NA
ENDROOT
BRANCH   1   8
ATOM      7  N   UNL     1      47.012   4.306  16.182  0.00  0.00    +0.000 N 
ATOM      8  C   UNL     1      47.092   4.045  14.824  0.00  0.00    +0.000 C 
ATOM      9  O   UNL     1      47.514   2.954  14.391  0.00  0.00    +0.000 OA
ATOM     10  H   UNL     1      46.584   5.174  16.483  0.00  0.00    +0.000 HD
BRANCH   7  11
ATOM     11  C   UNL     1      47.452   3.342  17.174  0.00  0.00    +0.000 C 
BRANCH  11  12
ATOM     12  C   UNL     1      48.925   3.508  17.551  0.00  0.00    +0.000 C 
BRANCH  12  13
ATOM     13  C   UNL     1      49.388   4.958  17.370  0.00  0.00    +0.000 C 
BRANCH  13  14
ATOM     14  C   UNL     1      49.130   5.785  18.631  0.00  0.00    +0.000 C 
BRANCH  14  15
ATOM     15  C   UNL     1      48.458   7.111  18.288  0.00  0.00    +0.000 C 
BRANCH  15  16
ATOM     16  N   UNL     1      48.163   7.165  16.863  0.00  0.00    +0.000 NA
ATOM     17  H   UNL     1      48.566   8.013  16.467  0.00  0.00    +0.000 HD
ATOM     18  H   UNL     1      47.156   7.234  16.725  0.00  0.00    +0.000 HD
ENDBRANCH  15  16
ENDBRANCH  14  15
ENDBRANCH  13  14
ENDBRANCH  12  13
ENDBRANCH  11  12
ENDBRANCH   7  11
ENDBRANCH   1   8
BRANCH   5  19
ATOM     19  N   UNL     1      43.549   6.186  12.316  0.00  0.00    +0.000 N 
ATOM     20  H   UNL     1      42.880   6.067  13.073  0.00  0.00    +0.000 HD
BRANCH  19  21
ATOM     21  C   UNL     1      43.095   5.830  10.980  0.00  0.00    +0.000 C 
BRANCH  21  22
ATOM     22  C   UNL     1      43.738   4.591  10.391  0.00  0.00    +0.000 A 
ATOM     23  C   UNL     1      44.589   4.714   9.296  0.00  0.00    +0.000 A 
ATOM     24  C   UNL     1      45.147   3.561   8.766  0.00  0.00    +0.000 A 
ATOM     25 CL   UNL     1      46.202   3.671   7.412  0.00  0.00    +0.000 Cl
ATOM     26  C   UNL     1      44.858   2.323   9.318  0.00  0.00    +0.000 A 
ATOM     27  C   UNL     1      44.009   2.292  10.407  0.00  0.00    +0.000 A 
ATOM     28  N   UNL     1      43.433   3.390  10.945  0.00  0.00    +0.000 NA
ENDBRANCH  21  22
ENDBRANCH  19  21
ENDBRANCH   5  19
TORSDOF 10
ENDMDL
MODEL 5
REMARK VINA RESULT:    -6.595      2.842      8.060
REMARK INTER + INTRA:         -11.236
REMARK INTER:                 -10.567
REMARK INTRA:                  -0.669
REMARK UNBOUND:                -0.978
REMARK  Name = 
REMARK  10 active torsions:
REMARK  status: ('A' for Active; 'I' for Inactive)
REMARK    1  A    between atoms: N_1  and  C_2
REMARK    2  A    between atoms: C_2  and  C_3
REMARK    3  A    between atoms: C_3  and  C_4
REMARK    4  A    between atoms: C_4  and  C_5
REMARK    5  A    between atoms: C_5  and  C_6
REMARK    6  A    between atoms: C_6  and  N_7
REMARK    7  A    between atoms: C_8  and  C_10
REMARK    8  A    between atoms: C_14  and  N_15
REMARK    9  A    between atoms: N_15  and  C_16
REMARK   10  A    between atoms: C_16  and  C_17
REMARK                            x       y       z     vdW  Elec       q    Type
REMARK                         _______ _______ _______ _____ _____    ______ ____
ROOT
ATOM      1  C   UNL     1      45.688   5.579  12.275  0.00  0.00    +0.000 A 
ATOM      2  C   UNL     1      44.904   6.721  12.119  0.00  0.00    +0.000 A 
ATOM      3  C   UNL     1      45.397   7.926  12.593  0.00  0.00    +0.000 A 
ATOM      4  C   UNL     1      46.657   7.955  13.183  0.00  0.00    +0.000 A 
ATOM      5  C   UNL     1      47.410   6.779  13.283  0.00  0.00    +0.000 A 
ATOM      6  N   UNL     1      46.928   5.586  12.859  0.00  0.00    +0.000 NA
ENDROOT
BRANCH   1   8
ATOM      7  N   UNL     1      45.138   3.953  10.480  0.00  0.00    +0.000 N 
ATOM      8  C   UNL     1      45.139   4.247  11.834  0.00  0.00    +0.000 C 
ATOM      9  O   UNL     1      44.716   3.434  12.680  0.00  0.00    +0.000 OA
ATOM     10  H   UNL     1      45.570   4.612   9.842  0.00  0.00    +0.000 HD
BRANCH   7  11
ATOM     11  C   UNL     1      44.609   2.701   9.968  0.00  0.00    +0.000 C 
BRANCH  11  12
ATOM     12  C   UNL     1      45.261   2.278   8.650  0.00  0.00    +0.000 C 
BRANCH  12  13
ATOM     13  C   UNL     1      45.820   3.485   7.890  0.00  0.00    +0.000 C 
BRANCH  13  14
ATOM     14  C   UNL     1      46.554   3.049   6.619  0.00  0.00    +0.000 C 
BRANCH  14  15
ATOM     15  C   UNL     1      47.538   1.922   6.915  0.00  0.00    +0.000 C 
BRANCH  15  16
ATOM     16  N   UNL     1      48.635   1.955   5.958  0.00  0.00    +0.000 NA
ATOM     17  H   UNL     1      49.513   1.776   6.445  0.00  0.00    +0.000 HD
ATOM     18  H   UNL     1      48.713   2.889   5.560  0.00  0.00    +0.000 HD
ENDBRANCH  15  16
ENDBRANCH  14  15
ENDBRANCH  13  14
ENDBRANCH  12  13
ENDBRANCH  11  12
ENDBRANCH   7  11
ENDBRANCH   1   8
BRANCH   5  19
ATOM     19  N   UNL     1      48.654   6.857  13.897  0.00  0.00    +0.000 N 
ATOM     20  H   UNL     1      49.394   6.311  13.463  0.00  0.00    +0.000 HD
BRANCH  19  21
ATOM     21  C   UNL     1      48.783   7.115  15.324  0.00  0.00    +0.000 C 
BRANCH  21  22
ATOM     22  C   UNL     1      49.105   5.901  16.171  0.00  0.00    +0.000 A 
ATOM     23  C   UNL     1      48.101   4.978  16.457  0.00  0.00    +0.000 A 
ATOM     24  C   UNL     1      48.420   3.887  17.251  0.00  0.00    +0.000 A 
ATOM     25 CL   UNL     1      47.208   2.726  17.627  0.00  0.00    +0.000 Cl
ATOM     26  C   UNL     1      49.705   3.730  17.745  0.00  0.00    +0.000 A 
ATOM     27  C   UNL     1      50.640   4.689  17.409  0.00  0.00    +0.000 A 
ATOM     28  N   UNL     1      50.369   5.773  16.649  0.00  0.00    +0.000 NA
ENDBRANCH  21  22
ENDBRANCH  19  21
ENDBRANCH   5  19
TORSDOF 10
ENDMDL
MODEL 6
REMARK VINA RESULT:    -6.453      3.290      4.171
REMARK INTER + INTRA:         -11.015
REMARK INTER:                  -9.938
REMARK INTRA:                  -1.076
REMARK UNBOUND:                -0.978
REMARK  Name = 
REMARK  10 active torsions:
REMARK  status: ('A' for Active; 'I' for Inactive)
REMARK    1  A    between atoms: N_1  and  C_2
REMARK    2  A    between atoms: C_2  and  C_3
REMARK    3  A    between atoms: C_3  and  C_4
REMARK    4  A    between atoms: C_4  and  C_5
REMARK    5  A    between atoms: C_5  and  C_6
REMARK    6  A    between atoms: C_6  and  N_7
REMARK    7  A    between atoms: C_8  and  C_10
REMARK    8  A    between atoms: C_14  and  N_15
REMARK    9  A    between atoms: N_15  and  C_16
REMARK   10  A    between atoms: C_16  and  C_17
REMARK                            x       y       z     vdW  Elec       q    Type
REMARK                         _______ _______ _______ _____ _____    ______ ____
ROOT
ATOM      1  C   UNL     1      47.202   6.431  12.364  0.00  0.00    +0.000 A 
ATOM      2  C   UNL     1      47.068   5.660  13.518  0.00  0.00    +0.000 A 
ATOM      3  C   UNL     1      46.011   4.766  13.592  0.00  0.00    +0.000 A 
ATOM      4  C   UNL     1      45.142   4.656  12.511  0.00  0.00    +0.000 A 
ATOM      5  C   UNL     1      45.348   5.436  11.366  0.00  0.00    +0.000 A 
ATOM      6  N   UNL     1      46.353   6.342  11.292  0.00  0.00    +0.000 NA
ENDROOT
BRANCH   1   8
ATOM      7  N   UNL     1      49.552   7.118  12.776  0.00  0.00    +0.000 N 
ATOM      8  C   UNL     1      48.300   7.460  12.294  0.00  0.00    +0.000 C 
ATOM      9  O   UNL     1      48.074   8.581  11.796  0.00  0.00    +0.000 OA
ATOM     10  H   UNL     1      49.705   6.168  13.094  0.00  0.00    +0.000 HD
BRANCH   7  11
ATOM     11  C   UNL     1      50.660   8.057  12.765  0.00  0.00    +0.000 C 
BRANCH  11  12
ATOM     12  C   UNL     1      50.939   8.662  14.143  0.00  0.00    +0.000 C 
BRANCH  12  13
ATOM     13  C   UNL     1      50.682  10.172  14.152  0.00  0.00    +0.000 C 
BRANCH  13  14
ATOM     14  C   UNL     1      49.215  10.484  14.458  0.00  0.00    +0.000 C 
BRANCH  14  15
ATOM     15  C   UNL     1      48.763   9.787  15.737  0.00  0.00    +0.000 C 
BRANCH  15  16
ATOM     16  N   UNL     1      47.560   9.007  15.481  0.00  0.00    +0.000 NA
ATOM     17  H   UNL     1      47.078   9.388  14.669  0.00  0.00    +0.000 HD
ATOM     18  H   UNL     1      46.918   9.100  16.267  0.00  0.00    +0.000 HD
ENDBRANCH  15  16
ENDBRANCH  14  15
ENDBRANCH  13  14
ENDBRANCH  12  13
ENDBRANCH  11  12
ENDBRANCH   7  11
ENDBRANCH   1   8
BRANCH   5  19
ATOM     19  N   UNL     1      44.441   5.304  10.321  0.00  0.00    +0.000 N 
ATOM     20  H   UNL     1      43.703   6.002  10.289  0.00  0.00    +0.000 HD
BRANCH  19  21
ATOM     21  C   UNL     1      44.142   4.007   9.733  0.00  0.00    +0.000 C 
BRANCH  21  22
ATOM     22  C   UNL     1      45.188   3.479   8.773  0.00  0.00    +0.000 A 
ATOM     23  C   UNL     1      45.431   2.109   8.708  0.00  0.00    +0.000 A 
ATOM     24  C   UNL     1      46.408   1.656   7.834  0.00  0.00    +0.000 A 
ATOM     25 CL   UNL     1      46.738  -0.028   7.726  0.00  0.00    +0.000 Cl
ATOM     26  C   UNL     1      47.120   2.552   7.052  0.00  0.00    +0.000 A 
ATOM     27  C   UNL     1      46.811   3.893   7.175  0.00  0.00    +0.000 A 
ATOM     28  N   UNL     1      45.877   4.376   8.023  0.00  0.00    +0.000 NA
ENDBRANCH  21  22
ENDBRANCH  19  21
ENDBRANCH   5  19
TORSDOF 10
ENDMDL
MODEL 7
REMARK VINA RESULT:    -6.434      3.144      5.011
REMARK INTER + INTRA:         -10.985
REMARK INTER:                 -10.191
REMARK INTRA:                  -0.794
REMARK UNBOUND:                -0.978
REMARK  Name = 
REMARK  10 active torsions:
REMARK  status: ('A' for Active; 'I' for Inactive)
REMARK    1  A    between atoms: N_1  and  C_2
REMARK    2  A    between atoms: C_2  and  C_3
REMARK    3  A    between atoms: C_3  and  C_4
REMARK    4  A    between atoms: C_4  and  C_5
REMARK    5  A    between atoms: C_5  and  C_6
REMARK    6  A    between atoms: C_6  and  N_7
REMARK    7  A    between atoms: C_8  and  C_10
REMARK    8  A    between atoms: C_14  and  N_15
REMARK    9  A    between atoms: N_15  and  C_16
REMARK   10  A    between atoms: C_16  and  C_17
REMARK                            x       y       z     vdW  Elec       q    Type
REMARK                         _______ _______ _______ _____ _____    ______ ____
ROOT
ATOM      1  C   UNL     1      47.102   5.831  12.744  0.00  0.00    +0.000 A 
ATOM      2  C   UNL     1      46.813   4.809  13.646  0.00  0.00    +0.000 A 
ATOM      3  C   UNL     1      45.768   3.947  13.350  0.00  0.00    +0.000 A 
ATOM      4  C   UNL     1      45.067   4.120  12.161  0.00  0.00    +0.000 A 
ATOM      5  C   UNL     1      45.426   5.147  11.280  0.00  0.00    +0.000 A 
ATOM      6  N   UNL     1      46.419   6.021  11.572  0.00  0.00    +0.000 NA
ENDROOT
BRANCH   1   8
ATOM      7  N   UNL     1      48.429   7.857  12.196  0.00  0.00    +0.000 N 
ATOM      8  C   UNL     1      48.185   6.822  13.083  0.00  0.00    +0.000 C 
ATOM      9  O   UNL     1      48.824   6.709  14.148  0.00  0.00    +0.000 OA
ATOM     10  H   UNL     1      47.826   7.953  11.386  0.00  0.00    +0.000 HD
BRANCH   7  11
ATOM     11  C   UNL     1      49.467   8.844  12.436  0.00  0.00    +0.000 C 
BRANCH  11  12
ATOM     12  C   UNL     1      48.922  10.272  12.506  0.00  0.00    +0.000 C 
BRANCH  12  13
ATOM     13  C   UNL     1      48.041  10.594  11.295  0.00  0.00    +0.000 C 
BRANCH  13  14
ATOM     14  C   UNL     1      46.632  11.006  11.727  0.00  0.00    +0.000 C 
BRANCH  14  15
ATOM     15  C   UNL     1      45.821   9.795  12.177  0.00  0.00    +0.000 C 
BRANCH  15  16
ATOM     16  N   UNL     1      44.436  10.181  12.409  0.00  0.00    +0.000 NA
ATOM     17  H   UNL     1      44.412  11.031  12.972  0.00  0.00    +0.000 HD
ATOM     18  H   UNL     1      43.967   9.461  12.956  0.00  0.00    +0.000 HD
ENDBRANCH  15  16
ENDBRANCH  14  15
ENDBRANCH  13  14
ENDBRANCH  12  13
ENDBRANCH  11  12
ENDBRANCH   7  11
ENDBRANCH   1   8
BRANCH   5  19
ATOM     19  N   UNL     1      44.682   5.290  10.114  0.00  0.00    +0.000 N 
ATOM     20  H   UNL     1      44.091   6.116  10.068  0.00  0.00    +0.000 HD
BRANCH  19  21
ATOM     21  C   UNL     1      44.255   4.135   9.337  0.00  0.00    +0.000 C 
BRANCH  21  22
ATOM     22  C   UNL     1      45.332   3.503   8.480  0.00  0.00    +0.000 A 
ATOM     23  C   UNL     1      45.522   2.124   8.523  0.00  0.00    +0.000 A 
ATOM     24  C   UNL     1      46.528   1.575   7.742  0.00  0.00    +0.000 A 
ATOM     25 CL   UNL     1      46.795  -0.124   7.770  0.00  0.00    +0.000 Cl
ATOM     26  C   UNL     1      47.319   2.387   6.945  0.00  0.00    +0.000 A 
ATOM     27  C   UNL     1      47.059   3.743   6.957  0.00  0.00    +0.000 A 
ATOM     28  N   UNL     1      46.098   4.319   7.713  0.00  0.00    +0.000 NA
ENDBRANCH  21  22
ENDBRANCH  19  21
ENDBRANCH   5  19
TORSDOF 10
ENDMDL
MODEL 8
REMARK VINA RESULT:    -6.409      3.092      8.301
REMARK INTER + INTRA:         -10.947
REMARK INTER:                 -10.363
REMARK INTRA:                  -0.584
REMARK UNBOUND:                -0.978
REMARK  Name = 
REMARK  10 active torsions:
REMARK  status: ('A' for Active; 'I' for Inactive)
REMARK    1  A    between atoms: N_1  and  C_2
REMARK    2  A    between atoms: C_2  and  C_3
REMARK    3  A    between atoms: C_3  and  C_4
REMARK    4  A    between atoms: C_4  and  C_5
REMARK    5  A    between atoms: C_5  and  C_6
REMARK    6  A    between atoms: C_6  and  N_7
REMARK    7  A    between atoms: C_8  and  C_10
REMARK    8  A    between atoms: C_14  and  N_15
REMARK    9  A    between atoms: N_15  and  C_16
REMARK   10  A    between atoms: C_16  and  C_17
REMARK                            x       y       z     vdW  Elec       q    Type
REMARK                         _______ _______ _______ _____ _____    ______ ____
ROOT
ATOM      1  C   UNL     1      46.282   5.489  12.491  0.00  0.00    +0.000 A 
ATOM      2  C   UNL     1      46.737   6.580  11.753  0.00  0.00    +0.000 A 
ATOM      3  C   UNL     1      47.608   7.470  12.363  0.00  0.00    +0.000 A 
ATOM      4  C   UNL     1      48.011   7.228  13.673  0.00  0.00    +0.000 A 
ATOM      5  C   UNL     1      47.544   6.096  14.352  0.00  0.00    +0.000 A 
ATOM      6  N   UNL     1      46.662   5.238  13.783  0.00  0.00    +0.000 NA
ENDROOT
BRANCH   1   8
ATOM      7  N   UNL     1      45.296   4.386  10.496  0.00  0.00    +0.000 N 
ATOM      8  C   UNL     1      45.278   4.552  11.871  0.00  0.00    +0.000 C 
ATOM      9  O   UNL     1      44.468   3.937  12.594  0.00  0.00    +0.000 OA
ATOM     10  H   UNL     1      46.028   4.844   9.964  0.00  0.00    +0.000 HD
BRANCH   7  11
ATOM     11  C   UNL     1      44.351   3.519   9.817  0.00  0.00    +0.000 C 
BRANCH  11  12
ATOM     12  C   UNL     1      44.973   2.777   8.631  0.00  0.00    +0.000 C 
BRANCH  12  13
ATOM     13  C   UNL     1      45.963   3.668   7.873  0.00  0.00    +0.000 C 
BRANCH  13  14
ATOM     14  C   UNL     1      46.468   2.979   6.603  0.00  0.00    +0.000 C 
BRANCH  14  15
ATOM     15  C   UNL     1      47.631   2.042   6.914  0.00  0.00    +0.000 C 
BRANCH  15  16
ATOM     16  N   UNL     1      48.474   1.885   5.737  0.00  0.00    +0.000 NA
ATOM     17  H   UNL     1      49.325   2.433   5.856  0.00  0.00    +0.000 HD
ATOM     18  H   UNL     1      47.997   2.269   4.922  0.00  0.00    +0.000 HD
ENDBRANCH  15  16
ENDBRANCH  14  15
ENDBRANCH  13  14
ENDBRANCH  12  13
ENDBRANCH  11  12
ENDBRANCH   7  11
ENDBRANCH   1   8
BRANCH   5  19
ATOM     19  N   UNL     1      47.960   5.910  15.664  0.00  0.00    +0.000 N 
ATOM     20  H   UNL     1      48.823   6.381  15.923  0.00  0.00    +0.000 HD
BRANCH  19  21
ATOM     21  C   UNL     1      47.628   4.701  16.404  0.00  0.00    +0.000 C 
BRANCH  21  22
ATOM     22  C   UNL     1      48.809   3.827  16.772  0.00  0.00    +0.000 A 
ATOM     23  C   UNL     1      49.837   4.355  17.551  0.00  0.00    +0.000 A 
ATOM     24  C   UNL     1      50.915   3.538  17.856  0.00  0.00    +0.000 A 
ATOM     25 CL   UNL     1      52.205   4.154  18.813  0.00  0.00    +0.000 Cl
ATOM     26  C   UNL     1      50.960   2.233  17.392  0.00  0.00    +0.000 A 
ATOM     27  C   UNL     1      49.897   1.788  16.631  0.00  0.00    +0.000 A 
ATOM     28  N   UNL     1      48.834   2.555  16.300  0.00  0.00    +0.000 NA
ENDBRANCH  21  22
ENDBRANCH  19  21
ENDBRANCH   5  19
TORSDOF 10
ENDMDL
MODEL 9
REMARK VINA RESULT:    -6.158      3.350      4.416
REMARK INTER + INTRA:         -10.556
REMARK INTER:                  -9.754
REMARK INTRA:                  -0.801
REMARK UNBOUND:                -0.978
REMARK  Name = 
REMARK  10 active torsions:
REMARK  status: ('A' for Active; 'I' for Inactive)
REMARK    1  A    between atoms: N_1  and  C_2
REMARK    2  A    between atoms: C_2  and  C_3
REMARK    3  A    between atoms: C_3  and  C_4
REMARK    4  A    between atoms: C_4  and  C_5
REMARK    5  A    between atoms: C_5  and  C_6
REMARK    6  A    between atoms: C_6  and  N_7
REMARK    7  A    between atoms: C_8  and  C_10
REMARK    8  A    between atoms: C_14  and  N_15
REMARK    9  A    between atoms: N_15  and  C_16
REMARK   10  A    between atoms: C_16  and  C_17
REMARK                            x       y       z     vdW  Elec       q    Type
REMARK                         _______ _______ _______ _____ _____    ______ ____
ROOT
ATOM      1  C   UNL     1      46.865   6.120  12.815  0.00  0.00    +0.000 A 
ATOM      2  C   UNL     1      47.009   4.984  13.610  0.00  0.00    +0.000 A 
ATOM      3  C   UNL     1      46.221   3.879  13.329  0.00  0.00    +0.000 A 
ATOM      4  C   UNL     1      45.336   3.938  12.256  0.00  0.00    +0.000 A 
ATOM      5  C   UNL     1      45.259   5.097  11.475  0.00  0.00    +0.000 A 
ATOM      6  N   UNL     1      45.996   6.199  11.760  0.00  0.00    +0.000 NA
ENDROOT
BRANCH   1   8
ATOM      7  N   UNL     1      47.847   8.305  12.161  0.00  0.00    +0.000 N 
ATOM      8  C   UNL     1      47.660   7.355  13.151  0.00  0.00    +0.000 C 
ATOM      9  O   UNL     1      48.116   7.510  14.302  0.00  0.00    +0.000 OA
ATOM     10  H   UNL     1      47.385   8.171  11.268  0.00  0.00    +0.000 HD
BRANCH   7  11
ATOM     11  C   UNL     1      48.616   9.514  12.394  0.00  0.00    +0.000 C 
BRANCH  11  12
ATOM     12  C   UNL     1      49.859   9.607  11.507  0.00  0.00    +0.000 C 
BRANCH  12  13
ATOM     13  C   UNL     1      50.936   8.610  11.947  0.00  0.00    +0.000 C 
BRANCH  13  14
ATOM     14  C   UNL     1      51.353   7.697  10.792  0.00  0.00    +0.000 C 
BRANCH  14  15
ATOM     15  C   UNL     1      52.871   7.676  10.632  0.00  0.00    +0.000 C 
BRANCH  15  16
ATOM     16  N   UNL     1      53.503   7.429  11.920  0.00  0.00    +0.000 NA
ATOM     17  H   UNL     1      52.860   7.688  12.667  0.00  0.00    +0.000 HD
ATOM     18  H   UNL     1      54.319   8.030  12.022  0.00  0.00    +0.000 HD
ENDBRANCH  15  16
ENDBRANCH  14  15
ENDBRANCH  13  14
ENDBRANCH  12  13
ENDBRANCH  11  12
ENDBRANCH   7  11
ENDBRANCH   1   8
BRANCH   5  19
ATOM     19  N   UNL     1      44.346   5.112  10.427  0.00  0.00    +0.000 N 
ATOM     20  H   UNL     1      43.619   5.820  10.487  0.00  0.00    +0.000 HD
BRANCH  19  21
ATOM     21  C   UNL     1      44.024   3.905   9.681  0.00  0.00    +0.000 C 
BRANCH  21  22
ATOM     22  C   UNL     1      45.111   3.416   8.747  0.00  0.00    +0.000 A 
ATOM     23  C   UNL     1      45.398   2.054   8.680  0.00  0.00    +0.000 A 
ATOM     24  C   UNL     1      46.411   1.638   7.831  0.00  0.00    +0.000 A 
ATOM     25 CL   UNL     1      46.796  -0.035   7.722  0.00  0.00    +0.000 Cl
ATOM     26  C   UNL     1      47.117   2.560   7.074  0.00  0.00    +0.000 A 
ATOM     27  C   UNL     1      46.764   3.890   7.197  0.00  0.00    +0.000 A 
ATOM     28  N   UNL     1      45.792   4.339   8.022  0.00  0.00    +0.000 NA
ENDBRANCH  21  22
ENDBRANCH  19  21
ENDBRANCH   5  19
TORSDOF 10
ENDMDL
