MODEL 1
REMARK VINA RESULT:    -9.076      0.000      0.000
REMARK INTER + INTRA:         -12.449
REMARK INTER:                 -11.729
REMARK INTRA:                  -0.720
REMARK UNBOUND:                -0.720
REMARK  Name = 
REMARK  5 active torsions:
REMARK  status: ('A' for Active; 'I' for Inactive)
REMARK    1  A    between atoms: C_2  and  C_4
REMARK    2  A    between atoms: C_7  and  N_8
REMARK    3  A    between atoms: N_8  and  C_9
REMARK    4  A    between atoms: C_9  and  C_10
REMARK    5  A    between atoms: C_15  and  C_16
REMARK                            x       y       z     vdW  Elec       q    Type
REMARK                         _______ _______ _______ _____ _____    ______ ____
ROOT
ATOM      1  C   UNL     1      43.630   4.423  11.205  0.00  0.00    +0.000 C 
ENDROOT
BRANCH   1   2
ATOM      2  C   UNL     1      44.886   4.846  11.945  0.00  0.00    +0.000 A 
ATOM      3  C   UNL     1      45.469   3.993  12.888  0.00  0.00    +0.000 A 
ATOM      4  C   UNL     1      46.609   4.393  13.568  0.00  0.00    +0.000 A 
ATOM      5  F   UNL     1      47.159   3.573  14.473  0.00  0.00    +0.000 F 
ATOM      6  C   UNL     1      47.189   5.638  13.336  0.00  0.00    +0.000 A 
ATOM      7  C   UNL     1      46.646   6.525  12.390  0.00  0.00    +0.000 A 
ATOM      8  C   UNL     1      45.491   6.094  11.698  0.00  0.00    +0.000 A 
BRANCH   7   9
ATOM      9  C   UNL     1      47.260   7.857  12.143  0.00  0.00    +0.000 A 
ATOM     10  C   UNL     1      46.506   9.046  12.213  0.00  0.00    +0.000 A 
ATOM     11  C   UNL     1      47.078  10.299  11.960  0.00  0.00    +0.000 A 
ATOM     12  C   UNL     1      48.429  10.396  11.643  0.00  0.00    +0.000 A 
ATOM     13  C   UNL     1      49.196   9.239  11.576  0.00  0.00    +0.000 A 
ATOM     14 CL   UNL     1      50.871   9.349  11.193  0.00  0.00    +0.000 Cl
ATOM     15  C   UNL     1      48.622   7.987  11.813  0.00  0.00    +0.000 A 
ENDBRANCH   7   9
ENDBRANCH   1   2
BRANCH   1  16
ATOM     16  N   UNL     1      43.774   4.770   9.795  0.00  0.00    +0.000 N 
ATOM     17  H   UNL     1      43.999   5.754   9.676  0.00  0.00    +0.000 HD
BRANCH  16  21
ATOM     18  C   UNL     1      46.401   2.329   7.779  0.00  0.00    +0.000 A 
ATOM     19  C   UNL     1      46.389   3.694   7.545  0.00  0.00    +0.000 A 
ATOM     20  N   UNL     1      45.533   4.541   8.184  0.00  0.00    +0.000 NA
ATOM     21  C   UNL     1      44.678   3.984   9.068  0.00  0.00    +0.000 A 
ATOM     22  C   UNL     1      44.723   2.600   9.301  0.00  0.00    +0.000 A 
ATOM     23  N   UNL     1      45.561   1.736   8.669  0.00  0.00    +0.000 NA
BRANCH  18  25
ATOM     24  N   UNL     1      48.461   2.071   6.532  0.00  0.00    +0.000 N 
ATOM     25  C   UNL     1      47.349   1.451   7.038  0.00  0.00    +0.000 C 
ATOM     26  O   UNL     1      47.156   0.251   6.894  0.00  0.00    +0.000 OA
ATOM     27  H   UNL     1      49.147   1.530   6.026  0.00  0.00    +0.000 HD
ATOM     28  H   UNL     1      48.597   3.066   6.675  0.00  0.00    +0.000 HD
ENDBRANCH  18  25
ENDBRANCH  16  21
ENDBRANCH   1  16
TORSDOF 5
ENDMDL
MODEL 2
REMARK VINA RESULT:    -8.520      2.506      3.964
REMARK INTER + INTRA:         -11.730
REMARK INTER:                 -11.033
REMARK INTRA:                  -0.697
REMARK UNBOUND:                -0.720
REMARK  Name = 
REMARK  5 active torsions:
REMARK  status: ('A' for Active; 'I' for Inactive)
REMARK    1  A    between atoms: C_2  and  C_4
REMARK    2  A    between atoms: C_7  and  N_8
REMARK    3  A    between atoms: N_8  and  C_9
REMARK    4  A    between atoms: C_9  and  C_10
REMARK    5  A    between atoms: C_15  and  C_16
REMARK                            x       y       z     vdW  Elec       q    Type
REMARK                         _______ _______ _______ _____ _____    ______ ____
ROOT
ATOM      1  C   UNL     1      43.977   4.458  11.437  0.00  0.00    +0.000 C 
ENDROOT
BRANCH   1   2
ATOM      2  C   UNL     1      45.096   5.236  12.104  0.00  0.00    +0.000 A 
ATOM      3  C   UNL     1      45.514   6.462  11.576  0.00  0.00    +0.000 A 
ATOM      4  C   UNL     1      46.546   7.160  12.185  0.00  0.00    +0.000 A 
ATOM      5  F   UNL     1      46.943   8.331  11.671  0.00  0.00    +0.000 F 
ATOM      6  C   UNL     1      47.186   6.661  13.316  0.00  0.00    +0.000 A 
ATOM      7  C   UNL     1      46.795   5.438  13.890  0.00  0.00    +0.000 A 
ATOM      8  C   UNL     1      45.733   4.747  13.262  0.00  0.00    +0.000 A 
BRANCH   7   9
ATOM      9  C   UNL     1      47.479   4.899  15.095  0.00  0.00    +0.000 A 
ATOM     10  C   UNL     1      47.336   3.554  15.491  0.00  0.00    +0.000 A 
ATOM     11  C   UNL     1      47.963   3.050  16.637  0.00  0.00    +0.000 A 
ATOM     12  C   UNL     1      48.766   3.881  17.412  0.00  0.00    +0.000 A 
ATOM     13  C   UNL     1      48.930   5.209  17.039  0.00  0.00    +0.000 A 
ATOM     14 CL   UNL     1      49.929   6.243  17.987  0.00  0.00    +0.000 Cl
ATOM     15  C   UNL     1      48.292   5.716  15.904  0.00  0.00    +0.000 A 
ENDBRANCH   7   9
ENDBRANCH   1   2
BRANCH   1  16
ATOM     16  N   UNL     1      43.947   4.799  10.018  0.00  0.00    +0.000 N 
ATOM     17  H   UNL     1      44.084   5.795   9.872  0.00  0.00    +0.000 HD
BRANCH  16  21
ATOM     18  C   UNL     1      46.514   2.529   7.740  0.00  0.00    +0.000 A 
ATOM     19  C   UNL     1      46.436   3.901   7.557  0.00  0.00    +0.000 A 
ATOM     20  N   UNL     1      45.597   4.692   8.283  0.00  0.00    +0.000 NA
ATOM     21  C   UNL     1      44.827   4.072   9.203  0.00  0.00    +0.000 A 
ATOM     22  C   UNL     1      44.937   2.684   9.382  0.00  0.00    +0.000 A 
ATOM     23  N   UNL     1      45.759   1.875   8.663  0.00  0.00    +0.000 NA
BRANCH  18  25
ATOM     24  N   UNL     1      48.552   2.366   6.443  0.00  0.00    +0.000 N 
ATOM     25  C   UNL     1      47.439   1.714   6.905  0.00  0.00    +0.000 C 
ATOM     26  O   UNL     1      47.227   0.536   6.650  0.00  0.00    +0.000 OA
ATOM     27  H   UNL     1      49.224   1.867   5.878  0.00  0.00    +0.000 HD
ATOM     28  H   UNL     1      48.704   3.341   6.678  0.00  0.00    +0.000 HD
ENDBRANCH  18  25
ENDBRANCH  16  21
ENDBRANCH   1  16
TORSDOF 5
ENDMDL
MODEL 3
REMARK VINA RESULT:    -8.319      4.502      7.290
REMARK INTER + INTRA:         -11.471
REMARK INTER:                 -11.075
REMARK INTRA:                  -0.396
REMARK UNBOUND:                -0.720
REMARK  Name = 
REMARK  5 active torsions:
REMARK  status: ('A' for Active; 'I' for Inactive)
REMARK    1  A    between atoms: C_2  and  C_4
REMARK    2  A    between atoms: C_7  and  N_8
REMARK    3  A    between atoms: N_8  and  C_9
REMARK    4  A    between atoms: C_9  and  C_10
REMARK    5  A    between atoms: C_15  and  C_16
REMARK                            x       y       z     vdW  Elec       q    Type
REMARK                         _______ _______ _______ _____ _____    ______ ____
ROOT
ATOM      1  C   UNL     1      46.192   7.322  11.794  0.00  0.00    +0.000 C 
ENDROOT
BRANCH   1   2
ATOM      2  C   UNL     1      45.384   6.233  11.112  0.00  0.00    +0.000 A 
ATOM      3  C   UNL     1      44.063   5.988  11.500  0.00  0.00    +0.000 A 
ATOM      4  C   UNL     1      43.337   4.982  10.880  0.00  0.00    +0.000 A 
ATOM      5  F   UNL     1      42.073   4.751  11.261  0.00  0.00    +0.000 F 
ATOM      6  C   UNL     1      43.900   4.198   9.877  0.00  0.00    +0.000 A 
ATOM      7  C   UNL     1      45.221   4.413   9.445  0.00  0.00    +0.000 A 
ATOM      8  C   UNL     1      45.941   5.451  10.080  0.00  0.00    +0.000 A 
BRANCH   7   9
ATOM      9  C   UNL     1      45.827   3.576   8.377  0.00  0.00    +0.000 A 
ATOM     10  C   UNL     1      46.333   4.140   7.188  0.00  0.00    +0.000 A 
ATOM     11  C   UNL     1      46.885   3.351   6.172  0.00  0.00    +0.000 A 
ATOM     12  C   UNL     1      46.961   1.970   6.327  0.00  0.00    +0.000 A 
ATOM     13  C   UNL     1      46.477   1.390   7.493  0.00  0.00    +0.000 A 
ATOM     14 CL   UNL     1      46.573  -0.317   7.698  0.00  0.00    +0.000 Cl
ATOM     15  C   UNL     1      45.911   2.176   8.501  0.00  0.00    +0.000 A 
ENDBRANCH   7   9
ENDBRANCH   1   2
BRANCH   1  16
ATOM     16  N   UNL     1      47.483   6.770  12.194  0.00  0.00    +0.000 N 
ATOM     17  H   UNL     1      48.190   7.495  12.269  0.00  0.00    +0.000 HD
BRANCH  16  21
ATOM     18  C   UNL     1      47.596   4.577  15.674  0.00  0.00    +0.000 A 
ATOM     19  C   UNL     1      46.860   4.134  14.586  0.00  0.00    +0.000 A 
ATOM     20  N   UNL     1      46.788   4.829  13.416  0.00  0.00    +0.000 NA
ATOM     21  C   UNL     1      47.472   5.992  13.360  0.00  0.00    +0.000 A 
ATOM     22  C   UNL     1      48.225   6.410  14.469  0.00  0.00    +0.000 A 
ATOM     23  N   UNL     1      48.304   5.738  15.648  0.00  0.00    +0.000 NA
BRANCH  18  25
ATOM     24  N   UNL     1      48.820   3.770  17.600  0.00  0.00    +0.000 N 
ATOM     25  C   UNL     1      47.625   3.781  16.932  0.00  0.00    +0.000 C 
ATOM     26  O   UNL     1      46.644   3.179  17.350  0.00  0.00    +0.000 OA
ATOM     27  H   UNL     1      48.904   3.255  18.465  0.00  0.00    +0.000 HD
ATOM     28  H   UNL     1      49.613   4.285  17.233  0.00  0.00    +0.000 HD
ENDBRANCH  18  25
ENDBRANCH  16  21
ENDBRANCH   1  16
TORSDOF 5
ENDMDL
MODEL 4
REMARK VINA RESULT:    -8.267      2.188      2.704
REMARK INTER + INTRA:         -11.403
REMARK INTER:                 -10.601
REMARK INTRA:                  -0.801
REMARK UNBOUND:                -0.720
REMARK  Name = 
REMARK  5 active torsions:
REMARK  status: ('A' for Active; 'I' for Inactive)
REMARK    1  A    between atoms: C_2  and  C_4
REMARK    2  A    between atoms: C_7  and  N_8
REMARK    3  A    between atoms: N_8  and  C_9
REMARK    4  A    between atoms: C_9  and  C_10
REMARK    5  A    between atoms: C_15  and  C_16
REMARK                            x       y       z     vdW  Elec       q    Type
REMARK                         _______ _______ _______ _____ _____    ______ ____
ROOT
ATOM      1  C   UNL     1      44.374   3.470  11.831  0.00  0.00    +0.000 C 
ENDROOT
BRANCH   1   2
ATOM      2  C   UNL     1      45.201   4.634  12.346  0.00  0.00    +0.000 A 
ATOM      3  C   UNL     1      46.214   4.417  13.285  0.00  0.00    +0.000 A 
ATOM      4  C   UNL     1      46.955   5.489  13.760  0.00  0.00    +0.000 A 
ATOM      5  F   UNL     1      47.921   5.275  14.663  0.00  0.00    +0.000 F 
ATOM      6  C   UNL     1      46.706   6.789  13.325  0.00  0.00    +0.000 A 
ATOM      7  C   UNL     1      45.705   7.055  12.374  0.00  0.00    +0.000 A 
ATOM      8  C   UNL     1      44.969   5.948  11.892  0.00  0.00    +0.000 A 
BRANCH   7   9
ATOM      9  C   UNL     1      45.434   8.441  11.910  0.00  0.00    +0.000 A 
ATOM     10  C   UNL     1      46.323   9.502  12.177  0.00  0.00    +0.000 A 
ATOM     11  C   UNL     1      46.059  10.811  11.759  0.00  0.00    +0.000 A 
ATOM     12  C   UNL     1      44.898  11.092  11.045  0.00  0.00    +0.000 A 
ATOM     13  C   UNL     1      44.009  10.063  10.761  0.00  0.00    +0.000 A 
ATOM     14 CL   UNL     1      42.574  10.399   9.871  0.00  0.00    +0.000 Cl
ATOM     15  C   UNL     1      44.265   8.759  11.192  0.00  0.00    +0.000 A 
ENDBRANCH   7   9
ENDBRANCH   1   2
BRANCH   1  16
ATOM     16  N   UNL     1      43.963   3.755  10.460  0.00  0.00    +0.000 N 
ATOM     17  H   UNL     1      43.735   4.737  10.337  0.00  0.00    +0.000 HD
BRANCH  16  21
ATOM     18  C   UNL     1      46.565   2.707   7.450  0.00  0.00    +0.000 A 
ATOM     19  C   UNL     1      46.043   1.742   8.296  0.00  0.00    +0.000 A 
ATOM     20  N   UNL     1      45.183   2.042   9.311  0.00  0.00    +0.000 NA
ATOM     21  C   UNL     1      44.858   3.344   9.462  0.00  0.00    +0.000 A 
ATOM     22  C   UNL     1      45.385   4.300   8.580  0.00  0.00    +0.000 A 
ATOM     23  N   UNL     1      46.251   4.025   7.568  0.00  0.00    +0.000 NA
BRANCH  18  25
ATOM     24  N   UNL     1      47.397   3.023   5.198  0.00  0.00    +0.000 N 
ATOM     25  C   UNL     1      47.512   2.320   6.368  0.00  0.00    +0.000 C 
ATOM     26  O   UNL     1      48.346   1.435   6.512  0.00  0.00    +0.000 OA
ATOM     27  H   UNL     1      48.015   2.815   4.427  0.00  0.00    +0.000 HD
ATOM     28  H   UNL     1      46.701   3.756   5.112  0.00  0.00    +0.000 HD
ENDBRANCH  18  25
ENDBRANCH  16  21
ENDBRANCH   1  16
TORSDOF 5
ENDMDL
MODEL 5
REMARK VINA RESULT:    -8.058      2.235      2.869
REMARK INTER + INTRA:         -11.133
REMARK INTER:                 -10.422
REMARK INTRA:                  -0.712
REMARK UNBOUND:                -0.720
REMARK  Name = 
REMARK  5 active torsions:
REMARK  status: ('A' for Active; 'I' for Inactive)
REMARK    1  A    between atoms: C_2  and  C_4
REMARK    2  A    between atoms: C_7  and  N_8
REMARK    3  A    between atoms: N_8  and  C_9
REMARK    4  A    between atoms: C_9  and  C_10
REMARK    5  A    between atoms: C_15  and  C_16
REMARK                            x       y       z     vdW  Elec       q    Type
REMARK                         _______ _______ _______ _____ _____    ______ ____
ROOT
ATOM      1  C   UNL     1      44.296   3.684  11.721  0.00  0.00    +0.000 C 
ENDROOT
BRANCH   1   2
ATOM      2  C   UNL     1      44.719   5.141  11.767  0.00  0.00    +0.000 A 
ATOM      3  C   UNL     1      43.822   6.147  11.394  0.00  0.00    +0.000 A 
ATOM      4  C   UNL     1      44.222   7.475  11.427  0.00  0.00    +0.000 A 
ATOM      5  F   UNL     1      43.359   8.432  11.064  0.00  0.00    +0.000 F 
ATOM      6  C   UNL     1      45.510   7.832  11.820  0.00  0.00    +0.000 A 
ATOM      7  C   UNL     1      46.443   6.857  12.214  0.00  0.00    +0.000 A 
ATOM      8  C   UNL     1      46.014   5.510  12.186  0.00  0.00    +0.000 A 
BRANCH   7   9
ATOM      9  C   UNL     1      47.820   7.234  12.630  0.00  0.00    +0.000 A 
ATOM     10  C   UNL     1      48.698   7.914  11.762  0.00  0.00    +0.000 A 
ATOM     11  C   UNL     1      50.002   8.251  12.145  0.00  0.00    +0.000 A 
ATOM     12  C   UNL     1      50.459   7.928  13.419  0.00  0.00    +0.000 A 
ATOM     13  C   UNL     1      49.610   7.264  14.296  0.00  0.00    +0.000 A 
ATOM     14 CL   UNL     1      50.162   6.867  15.878  0.00  0.00    +0.000 Cl
ATOM     15  C   UNL     1      48.314   6.914  13.909  0.00  0.00    +0.000 A 
ENDBRANCH   7   9
ENDBRANCH   1   2
BRANCH   1  16
ATOM     16  N   UNL     1      43.756   3.393  10.397  0.00  0.00    +0.000 N 
ATOM     17  H   UNL     1      43.142   4.135  10.075  0.00  0.00    +0.000 HD
BRANCH  16  21
ATOM     18  C   UNL     1      46.495   2.674   7.413  0.00  0.00    +0.000 A 
ATOM     19  C   UNL     1      46.102   1.656   8.266  0.00  0.00    +0.000 A 
ATOM     20  N   UNL     1      45.203   1.848   9.273  0.00  0.00    +0.000 NA
ATOM     21  C   UNL     1      44.705   3.096   9.409  0.00  0.00    +0.000 A 
ATOM     22  C   UNL     1      45.105   4.106   8.519  0.00  0.00    +0.000 A 
ATOM     23  N   UNL     1      46.007   3.939   7.516  0.00  0.00    +0.000 NA
BRANCH  18  25
ATOM     24  N   UNL     1      47.342   3.138   5.192  0.00  0.00    +0.000 N 
ATOM     25  C   UNL     1      47.494   2.407   6.340  0.00  0.00    +0.000 C 
ATOM     26  O   UNL     1      48.397   1.591   6.473  0.00  0.00    +0.000 OA
ATOM     27  H   UNL     1      47.991   3.010   4.429  0.00  0.00    +0.000 HD
ATOM     28  H   UNL     1      46.588   3.812   5.115  0.00  0.00    +0.000 HD
ENDBRANCH  18  25
ENDBRANCH  16  21
ENDBRANCH   1  16
TORSDOF 5
ENDMDL
MODEL 6
REMARK VINA RESULT:    -7.839      1.956      2.492
REMARK INTER + INTRA:         -10.849
REMARK INTER:                 -10.137
REMARK INTRA:                  -0.713
REMARK UNBOUND:                -0.720
REMARK  Name = 
REMARK  5 active torsions:
REMARK  status: ('A' for Active; 'I' for Inactive)
REMARK    1  A    between atoms: C_2  and  C_4
REMARK    2  A    between atoms: C_7  and  N_8
REMARK    3  A    between atoms: N_8  and  C_9
REMARK    4  A    between atoms: C_9  and  C_10
REMARK    5  A    between atoms: C_15  and  C_16
REMARK                            x       y       z     vdW  Elec       q    Type
REMARK                         _______ _______ _______ _____ _____    ______ ____
ROOT
ATOM      1  C   UNL     1      44.375   3.950  11.762  0.00  0.00    +0.000 C 
ENDROOT
BRANCH   1   2
ATOM      2  C   UNL     1      44.861   5.388  11.796  0.00  0.00    +0.000 A 
ATOM      3  C   UNL     1      44.005   6.430  11.427  0.00  0.00    +0.000 A 
ATOM      4  C   UNL     1      44.463   7.739  11.448  0.00  0.00    +0.000 A 
ATOM      5  F   UNL     1      43.638   8.731  11.089  0.00  0.00    +0.000 F 
ATOM      6  C   UNL     1      45.768   8.041  11.827  0.00  0.00    +0.000 A 
ATOM      7  C   UNL     1      46.663   7.029  12.217  0.00  0.00    +0.000 A 
ATOM      8  C   UNL     1      46.174   5.702  12.201  0.00  0.00    +0.000 A 
BRANCH   7   9
ATOM      9  C   UNL     1      48.059   7.347  12.617  0.00  0.00    +0.000 A 
ATOM     10  C   UNL     1      48.525   7.122  13.928  0.00  0.00    +0.000 A 
ATOM     11  C   UNL     1      49.833   7.440  14.313  0.00  0.00    +0.000 A 
ATOM     12  C   UNL     1      50.718   7.982  13.386  0.00  0.00    +0.000 A 
ATOM     13  C   UNL     1      50.286   8.207  12.084  0.00  0.00    +0.000 A 
ATOM     14 CL   UNL     1      51.376   8.868  10.927  0.00  0.00    +0.000 Cl
ATOM     15  C   UNL     1      48.975   7.903  11.705  0.00  0.00    +0.000 A 
ENDBRANCH   7   9
ENDBRANCH   1   2
BRANCH   1  16
ATOM     16  N   UNL     1      43.786   3.684  10.454  0.00  0.00    +0.000 N 
ATOM     17  H   UNL     1      43.166   4.436  10.165  0.00  0.00    +0.000 HD
BRANCH  16  21
ATOM     18  C   UNL     1      46.493   2.679   7.523  0.00  0.00    +0.000 A 
ATOM     19  C   UNL     1      46.069   3.990   7.670  0.00  0.00    +0.000 A 
ATOM     20  N   UNL     1      45.169   4.369   8.622  0.00  0.00    +0.000 NA
ATOM     21  C   UNL     1      44.697   3.395   9.428  0.00  0.00    +0.000 A 
ATOM     22  C   UNL     1      45.156   2.077   9.271  0.00  0.00    +0.000 A 
ATOM     23  N   UNL     1      46.044   1.676   8.324  0.00  0.00    +0.000 NA
BRANCH  18  25
ATOM     24  N   UNL     1      47.395   3.073   5.311  0.00  0.00    +0.000 N 
ATOM     25  C   UNL     1      47.467   2.323   6.454  0.00  0.00    +0.000 C 
ATOM     26  O   UNL     1      48.286   1.423   6.587  0.00  0.00    +0.000 OA
ATOM     27  H   UNL     1      48.033   2.888   4.550  0.00  0.00    +0.000 HD
ATOM     28  H   UNL     1      46.710   3.818   5.234  0.00  0.00    +0.000 HD
ENDBRANCH  18  25
ENDBRANCH  16  21
ENDBRANCH   1  16
TORSDOF 5
ENDMDL
MODEL 7
REMARK VINA RESULT:    -7.836      1.715      2.206
REMARK INTER + INTRA:         -10.846
REMARK INTER:                 -10.087
REMARK INTRA:                  -0.758
REMARK UNBOUND:                -0.720
REMARK  Name = 
REMARK  5 active torsions:
REMARK  status: ('A' for Active; 'I' for Inactive)
REMARK    1  A    between atoms: C_2  and  C_4
REMARK    2  A    between atoms: C_7  and  N_8
REMARK    3  A    between atoms: N_8  and  C_9
REMARK    4  A    between atoms: C_9  and  C_10
REMARK    5  A    between atoms: C_15  and  C_16
REMARK                            x       y       z     vdW  Elec       q    Type
REMARK                         _______ _______ _______ _____ _____    ______ ____
ROOT
ATOM      1  C   UNL     1      44.607   5.835  10.971  0.00  0.00    +0.000 C 
ENDROOT
BRANCH   1   2
ATOM      2  C   UNL     1      45.704   5.778  12.019  0.00  0.00    +0.000 A 
ATOM      3  C   UNL     1      45.552   4.976  13.155  0.00  0.00    +0.000 A 
ATOM      4  C   UNL     1      46.554   4.941  14.113  0.00  0.00    +0.000 A 
ATOM      5  F   UNL     1      46.399   4.174  15.200  0.00  0.00    +0.000 F 
ATOM      6  C   UNL     1      47.715   5.697  13.972  0.00  0.00    +0.000 A 
ATOM      7  C   UNL     1      47.918   6.509  12.843  0.00  0.00    +0.000 A 
ATOM      8  C   UNL     1      46.892   6.523  11.870  0.00  0.00    +0.000 A 
BRANCH   7   9
ATOM      9  C   UNL     1      49.155   7.321  12.691  0.00  0.00    +0.000 A 
ATOM     10  C   UNL     1      49.634   7.714  11.425  0.00  0.00    +0.000 A 
ATOM     11  C   UNL     1      50.810   8.461  11.278  0.00  0.00    +0.000 A 
ATOM     12  C   UNL     1      51.531   8.849  12.403  0.00  0.00    +0.000 A 
ATOM     13  C   UNL     1      51.075   8.482  13.663  0.00  0.00    +0.000 A 
ATOM     14 CL   UNL     1      51.956   8.965  15.062  0.00  0.00    +0.000 Cl
ATOM     15  C   UNL     1      49.910   7.723  13.808  0.00  0.00    +0.000 A 
ENDBRANCH   7   9
ENDBRANCH   1   2
BRANCH   1  16
ATOM     16  N   UNL     1      44.233   4.473  10.607  0.00  0.00    +0.000 N 
ATOM     17  H   UNL     1      43.246   4.408  10.373  0.00  0.00    +0.000 HD
BRANCH  16  21
ATOM     18  C   UNL     1      46.489   2.903   7.545  0.00  0.00    +0.000 A 
ATOM     19  C   UNL     1      45.856   2.068   8.452  0.00  0.00    +0.000 A 
ATOM     20  N   UNL     1      45.104   2.542   9.485  0.00  0.00    +0.000 NA
ATOM     21  C   UNL     1      45.003   3.884   9.593  0.00  0.00    +0.000 A 
ATOM     22  C   UNL     1      45.639   4.709   8.651  0.00  0.00    +0.000 A 
ATOM     23  N   UNL     1      46.401   4.258   7.619  0.00  0.00    +0.000 NA
BRANCH  18  25
ATOM     24  N   UNL     1      47.288   3.017   5.262  0.00  0.00    +0.000 N 
ATOM     25  C   UNL     1      47.311   2.326   6.445  0.00  0.00    +0.000 C 
ATOM     26  O   UNL     1      47.971   1.305   6.585  0.00  0.00    +0.000 OA
ATOM     27  H   UNL     1      47.830   2.683   4.478  0.00  0.00    +0.000 HD
ATOM     28  H   UNL     1      46.737   3.864   5.179  0.00  0.00    +0.000 HD
ENDBRANCH  18  25
ENDBRANCH  16  21
ENDBRANCH   1  16
TORSDOF 5
ENDMDL
MODEL 8
REMARK VINA RESULT:    -7.824      5.422      8.010
REMARK INTER + INTRA:         -10.830
REMARK INTER:                 -10.262
REMARK INTRA:                  -0.568
REMARK UNBOUND:                -0.720
REMARK  Name = 
REMARK  5 active torsions:
REMARK  status: ('A' for Active; 'I' for Inactive)
REMARK    1  A    between atoms: C_2  and  C_4
REMARK    2  A    between atoms: C_7  and  N_8
REMARK    3  A    between atoms: N_8  and  C_9
REMARK    4  A    between atoms: C_9  and  C_10
REMARK    5  A    between atoms: C_15  and  C_16
REMARK                            x       y       z     vdW  Elec       q    Type
REMARK                         _______ _______ _______ _____ _____    ______ ____
ROOT
ATOM      1  C   UNL     1      45.897   5.041  13.970  0.00  0.00    +0.000 C 
ENDROOT
BRANCH   1   2
ATOM      2  C   UNL     1      45.077   4.854  12.706  0.00  0.00    +0.000 A 
ATOM      3  C   UNL     1      43.723   5.205  12.687  0.00  0.00    +0.000 A 
ATOM      4  C   UNL     1      42.979   5.018  11.532  0.00  0.00    +0.000 A 
ATOM      5  F   UNL     1      41.682   5.352  11.522  0.00  0.00    +0.000 F 
ATOM      6  C   UNL     1      43.551   4.477  10.384  0.00  0.00    +0.000 A 
ATOM      7  C   UNL     1      44.910   4.119  10.351  0.00  0.00    +0.000 A 
ATOM      8  C   UNL     1      45.656   4.329  11.534  0.00  0.00    +0.000 A 
BRANCH   7   9
ATOM      9  C   UNL     1      45.524   3.537   9.128  0.00  0.00    +0.000 A 
ATOM     10  C   UNL     1      45.903   4.341   8.034  0.00  0.00    +0.000 A 
ATOM     11  C   UNL     1      46.463   3.793   6.873  0.00  0.00    +0.000 A 
ATOM     12  C   UNL     1      46.672   2.420   6.783  0.00  0.00    +0.000 A 
ATOM     13  C   UNL     1      46.314   1.607   7.851  0.00  0.00    +0.000 A 
ATOM     14 CL   UNL     1      46.577  -0.092   7.754  0.00  0.00    +0.000 Cl
ATOM     15  C   UNL     1      45.742   2.152   9.004  0.00  0.00    +0.000 A 
ENDBRANCH   7   9
ENDBRANCH   1   2
BRANCH   1  16
ATOM     16  N   UNL     1      46.749   3.871  14.156  0.00  0.00    +0.000 N 
ATOM     17  H   UNL     1      47.348   3.715  13.351  0.00  0.00    +0.000 HD
BRANCH  16  21
ATOM     18  C   UNL     1      49.020   4.019  17.583  0.00  0.00    +0.000 A 
ATOM     19  C   UNL     1      48.773   2.809  16.955  0.00  0.00    +0.000 A 
ATOM     20  N   UNL     1      48.022   2.710  15.822  0.00  0.00    +0.000 NA
ATOM     21  C   UNL     1      47.515   3.861  15.330  0.00  0.00    +0.000 A 
ATOM     22  C   UNL     1      47.795   5.077  15.975  0.00  0.00    +0.000 A 
ATOM     23  N   UNL     1      48.533   5.197  17.110  0.00  0.00    +0.000 NA
BRANCH  18  25
ATOM     24  N   UNL     1      49.141   3.931  20.000  0.00  0.00    +0.000 N 
ATOM     25  C   UNL     1      49.837   4.063  18.828  0.00  0.00    +0.000 C 
ATOM     26  O   UNL     1      51.053   4.201  18.810  0.00  0.00    +0.000 OA
ATOM     27  H   UNL     1      49.637   3.944  20.880  0.00  0.00    +0.000 HD
ATOM     28  H   UNL     1      48.134   3.810  19.982  0.00  0.00    +0.000 HD
ENDBRANCH  18  25
ENDBRANCH  16  21
ENDBRANCH   1  16
TORSDOF 5
ENDMDL
MODEL 9
REMARK VINA RESULT:    -7.039      4.562      7.296
REMARK INTER + INTRA:          -9.816
REMARK INTER:                  -9.108
REMARK INTRA:                  -0.708
REMARK UNBOUND:                -0.720
REMARK  Name = 
REMARK  5 active torsions:
REMARK  status: ('A' for Active; 'I' for Inactive)
REMARK    1  A    between atoms: C_2  and  C_4
REMARK    2  A    between atoms: C_7  and  N_8
REMARK    3  A    between atoms: N_8  and  C_9
REMARK    4  A    between atoms: C_9  and  C_10
REMARK    5  A    between atoms: C_15  and  C_16
REMARK                            x       y       z     vdW  Elec       q    Type
REMARK                         _______ _______ _______ _____ _____    ______ ____
ROOT
ATOM      1  C   UNL     1      45.301   7.305  11.405  0.00  0.00    +0.000 C 
ENDROOT
BRANCH   1   2
ATOM      2  C   UNL     1      44.900   5.889  11.035  0.00  0.00    +0.000 A 
ATOM      3  C   UNL     1      43.915   5.221  11.770  0.00  0.00    +0.000 A 
ATOM      4  C   UNL     1      43.565   3.922  11.433  0.00  0.00    +0.000 A 
ATOM      5  F   UNL     1      42.625   3.287  12.144  0.00  0.00    +0.000 F 
ATOM      6  C   UNL     1      44.181   3.259  10.374  0.00  0.00    +0.000 A 
ATOM      7  C   UNL     1      45.168   3.893   9.599  0.00  0.00    +0.000 A 
ATOM      8  C   UNL     1      45.503   5.222   9.950  0.00  0.00    +0.000 A 
BRANCH   7   9
ATOM      9  C   UNL     1      45.831   3.188   8.470  0.00  0.00    +0.000 A 
ATOM     10  C   UNL     1      46.346   3.886   7.358  0.00  0.00    +0.000 A 
ATOM     11  C   UNL     1      46.952   3.222   6.285  0.00  0.00    +0.000 A 
ATOM     12  C   UNL     1      47.073   1.836   6.304  0.00  0.00    +0.000 A 
ATOM     13  C   UNL     1      46.581   1.125   7.392  0.00  0.00    +0.000 A 
ATOM     14 CL   UNL     1      46.734  -0.590   7.429  0.00  0.00    +0.000 Cl
ATOM     15  C   UNL     1      45.962   1.786   8.456  0.00  0.00    +0.000 A 
ENDBRANCH   7   9
ENDBRANCH   1   2
BRANCH   1  16
ATOM     16  N   UNL     1      45.870   7.297  12.748  0.00  0.00    +0.000 N 
ATOM     17  H   UNL     1      45.671   6.426  13.231  0.00  0.00    +0.000 HD
BRANCH  16  21
ATOM     18  C   UNL     1      49.884   8.108  13.152  0.00  0.00    +0.000 A 
ATOM     19  C   UNL     1      49.202   8.483  12.006  0.00  0.00    +0.000 A 
ATOM     20  N   UNL     1      47.875   8.230  11.824  0.00  0.00    +0.000 NA
ATOM     21  C   UNL     1      47.241   7.584  12.826  0.00  0.00    +0.000 A 
ATOM     22  C   UNL     1      47.949   7.230  13.985  0.00  0.00    +0.000 A 
ATOM     23  N   UNL     1      49.274   7.463  14.183  0.00  0.00    +0.000 NA
BRANCH  18  25
ATOM     24  N   UNL     1      52.129   7.959  12.258  0.00  0.00    +0.000 N 
ATOM     25  C   UNL     1      51.338   8.398  13.287  0.00  0.00    +0.000 C 
ATOM     26  O   UNL     1      51.802   8.995  14.250  0.00  0.00    +0.000 OA
ATOM     27  H   UNL     1      53.124   8.131  12.285  0.00  0.00    +0.000 HD
ATOM     28  H   UNL     1      51.715   7.474  11.470  0.00  0.00    +0.000 HD
ENDBRANCH  18  25
ENDBRANCH  16  21
ENDBRANCH   1  16
TORSDOF 5
ENDMDL
