MODEL 1
REMARK VINA RESULT:    -7.413      0.000      0.000
REMARK INTER + INTRA:          -9.106
REMARK INTER:                  -8.714
REMARK INTRA:                  -0.393
REMARK UNBOUND:                -0.393
REMARK  Name = 
REMARK  4 active torsions:
REMARK  status: ('A' for Active; 'I' for Inactive)
REMARK    1  A    between atoms: C_1  and  O_2
REMARK    2  A    between atoms: O_2  and  C_3
REMARK    3  A    between atoms: N_10  and  C_11
REMARK    4  A    between atoms: C_11  and  C_12
REMARK                            x       y       z     vdW  Elec       q    Type
REMARK                         _______ _______ _______ _____ _____    ______ ____
ROOT
ATOM      1  C   UNL     1      46.732   6.171  12.981  0.00  0.00    +0.000 A 
ATOM      2  C   UNL     1      46.802   6.562  11.645  0.00  0.00    +0.000 A 
ATOM      3  C   UNL     1      46.021   5.936  10.661  0.00  0.00    +0.000 A 
ATOM      4  C   UNL     1      45.166   4.894  11.054  0.00  0.00    +0.000 A 
ATOM      5  C   UNL     1      45.054   4.507  12.391  0.00  0.00    +0.000 A 
ATOM      6  C   UNL     1      44.102   3.454  12.452  0.00  0.00    +0.000 A 
ATOM      7  C   UNL     1      43.695   3.186  11.166  0.00  0.00    +0.000 A 
ATOM      8  N   UNL     1      44.348   4.055  10.319  0.00  0.00    +0.000 N 
ATOM      9  C   UNL     1      45.849   5.153  13.361  0.00  0.00    +0.000 A 
ENDROOT
BRANCH   1  11
ATOM     10  C   UNL     1      48.820   7.030  13.729  0.00  0.00    +0.000 C 
ATOM     11  O   UNL     1      47.469   6.693  14.011  0.00  0.00    +0.000 OA
ENDBRANCH   1  11
BRANCH   8  12
ATOM     12  C   UNL     1      44.362   3.914   8.866  0.00  0.00    +0.000 C 
BRANCH  12  13
ATOM     13  C   UNL     1      45.522   3.127   8.312  0.00  0.00    +0.000 A 
ATOM     14  C   UNL     1      46.425   3.691   7.411  0.00  0.00    +0.000 A 
ATOM     15  C   UNL     1      47.364   2.871   6.784  0.00  0.00    +0.000 A 
ATOM     16  C   UNL     1      47.385   1.513   7.071  0.00  0.00    +0.000 A 
ATOM     17  C   UNL     1      46.470   1.030   7.988  0.00  0.00    +0.000 A 
ATOM     18  N   UNL     1      45.544   1.800   8.605  0.00  0.00    +0.000 NA
ENDBRANCH  12  13
ENDBRANCH   8  12
TORSDOF 3
ENDMDL
MODEL 2
REMARK VINA RESULT:    -6.858      1.719      2.681
REMARK INTER + INTRA:          -8.454
REMARK INTER:                  -8.035
REMARK INTRA:                  -0.419
REMARK UNBOUND:                -0.393
REMARK  Name = 
REMARK  4 active torsions:
REMARK  status: ('A' for Active; 'I' for Inactive)
REMARK    1  A    between atoms: C_1  and  O_2
REMARK    2  A    between atoms: O_2  and  C_3
REMARK    3  A    between atoms: N_10  and  C_11
REMARK    4  A    between atoms: C_11  and  C_12
REMARK                            x       y       z     vdW  Elec       q    Type
REMARK                         _______ _______ _______ _____ _____    ______ ____
ROOT
ATOM      1  C   UNL     1      47.170   4.594  14.487  0.00  0.00    +0.000 A 
ATOM      2  C   UNL     1      46.808   3.475  13.739  0.00  0.00    +0.000 A 
ATOM      3  C   UNL     1      46.061   3.599  12.557  0.00  0.00    +0.000 A 
ATOM      4  C   UNL     1      45.678   4.885  12.145  0.00  0.00    +0.000 A 
ATOM      5  C   UNL     1      46.057   6.024  12.859  0.00  0.00    +0.000 A 
ATOM      6  C   UNL     1      45.531   7.152  12.173  0.00  0.00    +0.000 A 
ATOM      7  C   UNL     1      44.808   6.687  11.100  0.00  0.00    +0.000 A 
ATOM      8  N   UNL     1      44.892   5.312  11.089  0.00  0.00    +0.000 N 
ATOM      9  C   UNL     1      46.809   5.872  14.043  0.00  0.00    +0.000 A 
ENDROOT
BRANCH   1  11
ATOM     10  C   UNL     1      47.220   4.012  16.792  0.00  0.00    +0.000 C 
ATOM     11  O   UNL     1      47.870   4.582  15.664  0.00  0.00    +0.000 OA
ENDBRANCH   1  11
BRANCH   8  12
ATOM     12  C   UNL     1      44.058   4.455  10.251  0.00  0.00    +0.000 C 
BRANCH  12  13
ATOM     13  C   UNL     1      44.801   3.663   9.206  0.00  0.00    +0.000 A 
ATOM     14  C   UNL     1      44.962   2.281   9.311  0.00  0.00    +0.000 A 
ATOM     15  C   UNL     1      45.815   1.625   8.423  0.00  0.00    +0.000 A 
ATOM     16  C   UNL     1      46.484   2.358   7.452  0.00  0.00    +0.000 A 
ATOM     17  C   UNL     1      46.261   3.720   7.398  0.00  0.00    +0.000 A 
ATOM     18  N   UNL     1      45.446   4.384   8.250  0.00  0.00    +0.000 NA
ENDBRANCH  12  13
ENDBRANCH   8  12
TORSDOF 3
ENDMDL
MODEL 3
REMARK VINA RESULT:    -6.618      2.726      5.850
REMARK INTER + INTRA:          -8.171
REMARK INTER:                  -7.779
REMARK INTRA:                  -0.393
REMARK UNBOUND:                -0.393
REMARK  Name = 
REMARK  4 active torsions:
REMARK  status: ('A' for Active; 'I' for Inactive)
REMARK    1  A    between atoms: C_1  and  O_2
REMARK    2  A    between atoms: O_2  and  C_3
REMARK    3  A    between atoms: N_10  and  C_11
REMARK    4  A    between atoms: C_11  and  C_12
REMARK                            x       y       z     vdW  Elec       q    Type
REMARK                         _______ _______ _______ _____ _____    ______ ____
ROOT
ATOM      1  C   UNL     1      46.000   2.667   8.028  0.00  0.00    +0.000 A 
ATOM      2  C   UNL     1      46.135   4.053   8.000  0.00  0.00    +0.000 A 
ATOM      3  C   UNL     1      45.483   4.868   8.940  0.00  0.00    +0.000 A 
ATOM      4  C   UNL     1      44.681   4.250   9.912  0.00  0.00    +0.000 A 
ATOM      5  C   UNL     1      44.557   2.861   9.981  0.00  0.00    +0.000 A 
ATOM      6  C   UNL     1      43.702   2.562  11.075  0.00  0.00    +0.000 A 
ATOM      7  C   UNL     1      43.284   3.756  11.614  0.00  0.00    +0.000 A 
ATOM      8  N   UNL     1      43.873   4.778  10.903  0.00  0.00    +0.000 N 
ATOM      9  C   UNL     1      45.224   2.065   9.025  0.00  0.00    +0.000 A 
ENDROOT
BRANCH   1  11
ATOM     10  C   UNL     1      47.908   2.042   6.754  0.00  0.00    +0.000 C 
ATOM     11  O   UNL     1      46.566   1.787   7.144  0.00  0.00    +0.000 OA
ENDBRANCH   1  11
BRANCH   8  12
ATOM     12  C   UNL     1      43.479   6.180  11.020  0.00  0.00    +0.000 C 
BRANCH  12  13
ATOM     13  C   UNL     1      44.534   7.094  11.586  0.00  0.00    +0.000 A 
ATOM     14  C   UNL     1      45.495   6.635  12.487  0.00  0.00    +0.000 A 
ATOM     15  C   UNL     1      46.326   7.556  13.126  0.00  0.00    +0.000 A 
ATOM     16  C   UNL     1      46.185   8.909  12.849  0.00  0.00    +0.000 A 
ATOM     17  C   UNL     1      45.223   9.287  11.932  0.00  0.00    +0.000 A 
ATOM     18  N   UNL     1      44.398   8.418  11.304  0.00  0.00    +0.000 NA
ENDBRANCH  12  13
ENDBRANCH   8  12
TORSDOF 3
ENDMDL
MODEL 4
REMARK VINA RESULT:    -5.997      2.416      3.107
REMARK INTER + INTRA:          -7.442
REMARK INTER:                  -7.047
REMARK INTRA:                  -0.395
REMARK UNBOUND:                -0.393
REMARK  Name = 
REMARK  4 active torsions:
REMARK  status: ('A' for Active; 'I' for Inactive)
REMARK    1  A    between atoms: C_1  and  O_2
REMARK    2  A    between atoms: O_2  and  C_3
REMARK    3  A    between atoms: N_10  and  C_11
REMARK    4  A    between atoms: C_11  and  C_12
REMARK                            x       y       z     vdW  Elec       q    Type
REMARK                         _______ _______ _______ _____ _____    ______ ____
ROOT
ATOM      1  C   UNL     1      45.183   9.299  11.918  0.00  0.00    +0.000 A 
ATOM      2  C   UNL     1      44.108   8.950  11.104  0.00  0.00    +0.000 A 
ATOM      3  C   UNL     1      43.763   7.606  10.890  0.00  0.00    +0.000 A 
ATOM      4  C   UNL     1      44.536   6.614  11.513  0.00  0.00    +0.000 A 
ATOM      5  C   UNL     1      45.597   6.939  12.359  0.00  0.00    +0.000 A 
ATOM      6  C   UNL     1      46.151   5.722  12.837  0.00  0.00    +0.000 A 
ATOM      7  C   UNL     1      45.464   4.690  12.242  0.00  0.00    +0.000 A 
ATOM      8  N   UNL     1      44.489   5.233  11.434  0.00  0.00    +0.000 N 
ATOM      9  C   UNL     1      45.922   8.298  12.560  0.00  0.00    +0.000 A 
ENDROOT
BRANCH   1  11
ATOM     10  C   UNL     1      45.541  11.503  11.099  0.00  0.00    +0.000 C 
ATOM     11  O   UNL     1      45.620  10.572  12.171  0.00  0.00    +0.000 OA
ENDBRANCH   1  11
BRANCH   8  12
ATOM     12  C   UNL     1      43.725   4.464  10.455  0.00  0.00    +0.000 C 
BRANCH  12  13
ATOM     13  C   UNL     1      44.552   3.749   9.418  0.00  0.00    +0.000 A 
ATOM     14  C   UNL     1      44.728   2.365   9.448  0.00  0.00    +0.000 A 
ATOM     15  C   UNL     1      45.651   1.777   8.584  0.00  0.00    +0.000 A 
ATOM     16  C   UNL     1      46.372   2.577   7.708  0.00  0.00    +0.000 A 
ATOM     17  C   UNL     1      46.131   3.938   7.723  0.00  0.00    +0.000 A 
ATOM     18  N   UNL     1      45.248   4.537   8.555  0.00  0.00    +0.000 NA
ENDBRANCH  12  13
ENDBRANCH   8  12
TORSDOF 3
ENDMDL
MODEL 5
REMARK VINA RESULT:    -5.883      1.620      2.493
REMARK INTER + INTRA:          -7.308
REMARK INTER:                  -6.833
REMARK INTRA:                  -0.475
REMARK UNBOUND:                -0.393
REMARK  Name = 
REMARK  4 active torsions:
REMARK  status: ('A' for Active; 'I' for Inactive)
REMARK    1  A    between atoms: C_1  and  O_2
REMARK    2  A    between atoms: O_2  and  C_3
REMARK    3  A    between atoms: N_10  and  C_11
REMARK    4  A    between atoms: C_11  and  C_12
REMARK                            x       y       z     vdW  Elec       q    Type
REMARK                         _______ _______ _______ _____ _____    ______ ____
ROOT
ATOM      1  C   UNL     1      48.416   7.934  13.132  0.00  0.00    +0.000 A 
ATOM      2  C   UNL     1      47.483   8.287  12.160  0.00  0.00    +0.000 A 
ATOM      3  C   UNL     1      46.396   7.451  11.857  0.00  0.00    +0.000 A 
ATOM      4  C   UNL     1      46.274   6.240  12.555  0.00  0.00    +0.000 A 
ATOM      5  C   UNL     1      47.177   5.880  13.557  0.00  0.00    +0.000 A 
ATOM      6  C   UNL     1      46.764   4.623  14.073  0.00  0.00    +0.000 A 
ATOM      7  C   UNL     1      45.664   4.219  13.353  0.00  0.00    +0.000 A 
ATOM      8  N   UNL     1      45.373   5.197  12.428  0.00  0.00    +0.000 N 
ATOM      9  C   UNL     1      48.260   6.738  13.844  0.00  0.00    +0.000 A 
ENDROOT
BRANCH   1  11
ATOM     10  C   UNL     1      50.510   7.992  14.259  0.00  0.00    +0.000 C 
ATOM     11  O   UNL     1      49.524   8.659  13.484  0.00  0.00    +0.000 OA
ENDBRANCH   1  11
BRANCH   8  12
ATOM     12  C   UNL     1      44.432   5.017  11.326  0.00  0.00    +0.000 C 
BRANCH  12  13
ATOM     13  C   UNL     1      44.952   4.206  10.168  0.00  0.00    +0.000 A 
ATOM     14  C   UNL     1      45.594   4.805   9.084  0.00  0.00    +0.000 A 
ATOM     15  C   UNL     1      45.885   4.038   7.955  0.00  0.00    +0.000 A 
ATOM     16  C   UNL     1      45.535   2.694   7.934  0.00  0.00    +0.000 A 
ATOM     17  C   UNL     1      44.917   2.167   9.052  0.00  0.00    +0.000 A 
ATOM     18  N   UNL     1      44.616   2.888  10.157  0.00  0.00    +0.000 NA
ENDBRANCH  12  13
ENDBRANCH   8  12
TORSDOF 3
ENDMDL
MODEL 6
REMARK VINA RESULT:    -5.662      2.077      3.632
REMARK INTER + INTRA:          -7.048
REMARK INTER:                  -6.659
REMARK INTRA:                  -0.389
REMARK UNBOUND:                -0.393
REMARK  Name = 
REMARK  4 active torsions:
REMARK  status: ('A' for Active; 'I' for Inactive)
REMARK    1  A    between atoms: C_1  and  O_2
REMARK    2  A    between atoms: O_2  and  C_3
REMARK    3  A    between atoms: N_10  and  C_11
REMARK    4  A    between atoms: C_11  and  C_12
REMARK                            x       y       z     vdW  Elec       q    Type
REMARK                         _______ _______ _______ _____ _____    ______ ____
ROOT
ATOM      1  C   UNL     1      47.921   5.157  15.661  0.00  0.00    +0.000 A 
ATOM      2  C   UNL     1      46.893   4.363  15.159  0.00  0.00    +0.000 A 
ATOM      3  C   UNL     1      46.305   4.635  13.913  0.00  0.00    +0.000 A 
ATOM      4  C   UNL     1      46.776   5.737  13.183  0.00  0.00    +0.000 A 
ATOM      5  C   UNL     1      47.828   6.527  13.650  0.00  0.00    +0.000 A 
ATOM      6  C   UNL     1      48.070   7.533  12.677  0.00  0.00    +0.000 A 
ATOM      7  C   UNL     1      47.143   7.375  11.674  0.00  0.00    +0.000 A 
ATOM      8  N   UNL     1      46.354   6.290  11.986  0.00  0.00    +0.000 N 
ATOM      9  C   UNL     1      48.403   6.231  14.904  0.00  0.00    +0.000 A 
ENDROOT
BRANCH   1  11
ATOM     10  C   UNL     1      47.706   4.753  17.995  0.00  0.00    +0.000 C 
ATOM     11  O   UNL     1      48.542   4.996  16.872  0.00  0.00    +0.000 OA
ENDBRANCH   1  11
BRANCH   8  12
ATOM     12  C   UNL     1      45.112   5.963  11.291  0.00  0.00    +0.000 C 
BRANCH  12  13
ATOM     13  C   UNL     1      45.203   4.806  10.330  0.00  0.00    +0.000 A 
ATOM     14  C   UNL     1      45.690   4.967   9.033  0.00  0.00    +0.000 A 
ATOM     15  C   UNL     1      45.577   3.913   8.126  0.00  0.00    +0.000 A 
ATOM     16  C   UNL     1      44.988   2.724   8.532  0.00  0.00    +0.000 A 
ATOM     17  C   UNL     1      44.545   2.631   9.838  0.00  0.00    +0.000 A 
ATOM     18  N   UNL     1      44.634   3.639  10.736  0.00  0.00    +0.000 NA
ENDBRANCH  12  13
ENDBRANCH   8  12
TORSDOF 3
ENDMDL
MODEL 7
REMARK VINA RESULT:    -5.315      3.128      6.196
REMARK INTER + INTRA:          -6.640
REMARK INTER:                  -6.218
REMARK INTRA:                  -0.422
REMARK UNBOUND:                -0.393
REMARK  Name = 
REMARK  4 active torsions:
REMARK  status: ('A' for Active; 'I' for Inactive)
REMARK    1  A    between atoms: C_1  and  O_2
REMARK    2  A    between atoms: O_2  and  C_3
REMARK    3  A    between atoms: N_10  and  C_11
REMARK    4  A    between atoms: C_11  and  C_12
REMARK                            x       y       z     vdW  Elec       q    Type
REMARK                         _______ _______ _______ _____ _____    ______ ____
ROOT
ATOM      1  C   UNL     1      44.776   4.028  11.054  0.00  0.00    +0.000 A 
ATOM      2  C   UNL     1      45.132   5.287  10.575  0.00  0.00    +0.000 A 
ATOM      3  C   UNL     1      45.985   6.130  11.306  0.00  0.00    +0.000 A 
ATOM      4  C   UNL     1      46.470   5.674  12.542  0.00  0.00    +0.000 A 
ATOM      5  C   UNL     1      46.154   4.403  13.027  0.00  0.00    +0.000 A 
ATOM      6  C   UNL     1      46.812   4.247  14.276  0.00  0.00    +0.000 A 
ATOM      7  C   UNL     1      47.465   5.425  14.553  0.00  0.00    +0.000 A 
ATOM      8  N   UNL     1      47.250   6.292  13.504  0.00  0.00    +0.000 N 
ATOM      9  C   UNL     1      45.296   3.575  12.272  0.00  0.00    +0.000 A 
ENDROOT
BRANCH   1  11
ATOM     10  C   UNL     1      44.484   2.343   9.401  0.00  0.00    +0.000 C 
ATOM     11  O   UNL     1      43.931   3.143  10.437  0.00  0.00    +0.000 OA
ENDBRANCH   1  11
BRANCH   8  12
ATOM     12  C   UNL     1      47.574   7.715  13.547  0.00  0.00    +0.000 C 
BRANCH  12  13
ATOM     13  C   UNL     1      48.931   8.078  13.002  0.00  0.00    +0.000 A 
ATOM     14  C   UNL     1      49.295   7.783  11.688  0.00  0.00    +0.000 A 
ATOM     15  C   UNL     1      50.620   7.966  11.290  0.00  0.00    +0.000 A 
ATOM     16  C   UNL     1      51.548   8.442  12.206  0.00  0.00    +0.000 A 
ATOM     17  C   UNL     1      51.110   8.729  13.485  0.00  0.00    +0.000 A 
ATOM     18  N   UNL     1      49.834   8.554  13.901  0.00  0.00    +0.000 NA
ENDBRANCH  12  13
ENDBRANCH   8  12
TORSDOF 3
ENDMDL
MODEL 8
REMARK VINA RESULT:    -5.213      1.849      2.948
REMARK INTER + INTRA:          -6.520
REMARK INTER:                  -6.162
REMARK INTRA:                  -0.358
REMARK UNBOUND:                -0.393
REMARK  Name = 
REMARK  4 active torsions:
REMARK  status: ('A' for Active; 'I' for Inactive)
REMARK    1  A    between atoms: C_1  and  O_2
REMARK    2  A    between atoms: O_2  and  C_3
REMARK    3  A    between atoms: N_10  and  C_11
REMARK    4  A    between atoms: C_11  and  C_12
REMARK                            x       y       z     vdW  Elec       q    Type
REMARK                         _______ _______ _______ _____ _____    ______ ____
ROOT
ATOM      1  C   UNL     1      47.623   8.287  13.742  0.00  0.00    +0.000 A 
ATOM      2  C   UNL     1      47.728   6.900  13.660  0.00  0.00    +0.000 A 
ATOM      3  C   UNL     1      46.807   6.143  12.918  0.00  0.00    +0.000 A 
ATOM      4  C   UNL     1      45.767   6.819  12.261  0.00  0.00    +0.000 A 
ATOM      5  C   UNL     1      45.661   8.211  12.301  0.00  0.00    +0.000 A 
ATOM      6  C   UNL     1      44.526   8.575  11.528  0.00  0.00    +0.000 A 
ATOM      7  C   UNL     1      43.938   7.415  11.080  0.00  0.00    +0.000 A 
ATOM      8  N   UNL     1      44.688   6.351  11.533  0.00  0.00    +0.000 N 
ATOM      9  C   UNL     1      46.600   8.949  13.052  0.00  0.00    +0.000 A 
ENDROOT
BRANCH   1  11
ATOM     10  C   UNL     1      49.603   8.525  15.038  0.00  0.00    +0.000 C 
ATOM     11  O   UNL     1      48.448   9.114  14.457  0.00  0.00    +0.000 OA
ENDBRANCH   1  11
BRANCH   8  12
ATOM     12  C   UNL     1      44.244   4.961  11.470  0.00  0.00    +0.000 C 
BRANCH  12  13
ATOM     13  C   UNL     1      44.787   4.169  10.309  0.00  0.00    +0.000 A 
ATOM     14  C   UNL     1      45.432   4.788   9.237  0.00  0.00    +0.000 A 
ATOM     15  C   UNL     1      45.745   4.036   8.104  0.00  0.00    +0.000 A 
ATOM     16  C   UNL     1      45.415   2.689   8.067  0.00  0.00    +0.000 A 
ATOM     17  C   UNL     1      44.794   2.141   9.173  0.00  0.00    +0.000 A 
ATOM     18  N   UNL     1      44.470   2.847  10.281  0.00  0.00    +0.000 NA
ENDBRANCH  12  13
ENDBRANCH   8  12
TORSDOF 3
ENDMDL
MODEL 9
REMARK VINA RESULT:    -5.146      3.106      6.274
REMARK INTER + INTRA:          -6.442
REMARK INTER:                  -5.989
REMARK INTRA:                  -0.452
REMARK UNBOUND:                -0.393
REMARK  Name = 
REMARK  4 active torsions:
REMARK  status: ('A' for Active; 'I' for Inactive)
REMARK    1  A    between atoms: C_1  and  O_2
REMARK    2  A    between atoms: O_2  and  C_3
REMARK    3  A    between atoms: N_10  and  C_11
REMARK    4  A    between atoms: C_11  and  C_12
REMARK                            x       y       z     vdW  Elec       q    Type
REMARK                         _______ _______ _______ _____ _____    ______ ____
ROOT
ATOM      1  C   UNL     1      44.444   3.696  11.122  0.00  0.00    +0.000 A 
ATOM      2  C   UNL     1      45.392   3.465  12.117  0.00  0.00    +0.000 A 
ATOM      3  C   UNL     1      46.004   4.528  12.801  0.00  0.00    +0.000 A 
ATOM      4  C   UNL     1      45.642   5.838  12.452  0.00  0.00    +0.000 A 
ATOM      5  C   UNL     1      44.671   6.094  11.482  0.00  0.00    +0.000 A 
ATOM      6  C   UNL     1      44.527   7.504  11.384  0.00  0.00    +0.000 A 
ATOM      7  C   UNL     1      45.435   8.076  12.243  0.00  0.00    +0.000 A 
ATOM      8  N   UNL     1      46.116   7.064  12.884  0.00  0.00    +0.000 N 
ATOM      9  C   UNL     1      44.070   5.009  10.811  0.00  0.00    +0.000 A 
ENDROOT
BRANCH   1  11
ATOM     10  C   UNL     1      44.532   2.194   9.280  0.00  0.00    +0.000 C 
ATOM     11  O   UNL     1      43.811   2.736  10.378  0.00  0.00    +0.000 OA
ENDBRANCH   1  11
BRANCH   8  12
ATOM     12  C   UNL     1      47.321   7.276  13.682  0.00  0.00    +0.000 C 
BRANCH  12  13
ATOM     13  C   UNL     1      48.444   7.983  12.968  0.00  0.00    +0.000 A 
ATOM     14  C   UNL     1      49.120   7.392  11.901  0.00  0.00    +0.000 A 
ATOM     15  C   UNL     1      50.270   8.003  11.400  0.00  0.00    +0.000 A 
ATOM     16  C   UNL     1      50.716   9.188  11.969  0.00  0.00    +0.000 A 
ATOM     17  C   UNL     1      49.984   9.723  13.012  0.00  0.00    +0.000 A 
ATOM     18  N   UNL     1      48.871   9.149  13.523  0.00  0.00    +0.000 NA
ENDBRANCH  12  13
ENDBRANCH   8  12
TORSDOF 3
ENDMDL
