MODEL 1
REMARK VINA RESULT:    -9.034      0.000      0.000
REMARK INTER + INTRA:         -13.325
REMARK INTER:                 -12.202
REMARK INTRA:                  -1.123
REMARK UNBOUND:                -1.123
REMARK  Name = 
REMARK  6 active torsions:
REMARK  status: ('A' for Active; 'I' for Inactive)
REMARK    1  A    between atoms: C_2  and  C_4
REMARK    2  A    between atoms: C_7  and  N_8
REMARK    3  A    between atoms: N_8  and  C_9
REMARK    4  A    between atoms: C_9  and  C_10
REMARK    5  A    between atoms: C_10  and  C_13
REMARK    6  A    between atoms: C_17  and  C_18
REMARK                            x       y       z     vdW  Elec       q    Type
REMARK                         _______ _______ _______ _____ _____    ______ ____
ROOT
ATOM      1  C   UNL     1      43.298   5.055  12.549  0.00  0.00    +0.000 C 
ATOM      2  F   UNL     1      42.607   6.198  12.270  0.00  0.00    +0.000 F 
ATOM      3  F   UNL     1      42.638   4.479  13.600  0.00  0.00    +0.000 F 
ENDROOT
BRANCH   1   4
ATOM      4  C   UNL     1      44.754   5.337  12.867  0.00  0.00    +0.000 A 
ATOM      5  C   UNL     1      45.589   4.324  13.350  0.00  0.00    +0.000 A 
ATOM      6  C   UNL     1      46.941   4.577  13.565  0.00  0.00    +0.000 A 
ATOM      7  C   UNL     1      47.473   5.835  13.269  0.00  0.00    +0.000 A 
ATOM      8  C   UNL     1      46.677   6.868  12.742  0.00  0.00    +0.000 A 
ATOM      9  C   UNL     1      45.304   6.603  12.587  0.00  0.00    +0.000 A 
BRANCH   8  10
ATOM     10  C   UNL     1      47.272   8.141  12.270  0.00  0.00    +0.000 A 
ATOM     11  C   UNL     1      46.550   9.341  12.351  0.00  0.00    +0.000 A 
ATOM     12  C   UNL     1      47.154  10.534  11.985  0.00  0.00    +0.000 A 
ATOM     13  N   UNL     1      48.423  10.624  11.542  0.00  0.00    +0.000 NA
ATOM     14  C   UNL     1      49.111   9.468  11.460  0.00  0.00    +0.000 A 
ATOM     15  C   UNL     1      48.588   8.227  11.796  0.00  0.00    +0.000 A 
ENDBRANCH   8  10
ENDBRANCH   1   4
BRANCH   1  16
ATOM     16  C   UNL     1      43.211   4.092  11.335  0.00  0.00    +0.000 C 
BRANCH  16  17
ATOM     17  N   UNL     1      43.780   4.652  10.098  0.00  0.00    +0.000 N 
ATOM     18  H   UNL     1      43.115   5.177   9.530  0.00  0.00    +0.000 HD
BRANCH  17  22
ATOM     19  C   UNL     1      46.441   2.362   7.758  0.00  0.00    +0.000 A 
ATOM     20  C   UNL     1      46.426   3.750   7.619  0.00  0.00    +0.000 A 
ATOM     21  C   UNL     1      45.560   4.524   8.401  0.00  0.00    +0.000 A 
ATOM     22  C   UNL     1      44.716   3.941   9.354  0.00  0.00    +0.000 A 
ATOM     23  C   UNL     1      44.723   2.540   9.458  0.00  0.00    +0.000 A 
ATOM     24  C   UNL     1      45.570   1.756   8.667  0.00  0.00    +0.000 A 
BRANCH  19  26
ATOM     25  N   UNL     1      48.468   2.081   6.439  0.00  0.00    +0.000 N 
ATOM     26  C   UNL     1      47.331   1.506   6.935  0.00  0.00    +0.000 C 
ATOM     27  O   UNL     1      47.088   0.321   6.740  0.00  0.00    +0.000 OA
ATOM     28  H   UNL     1      49.117   1.457   5.979  0.00  0.00    +0.000 HD
ATOM     29  H   UNL     1      48.826   2.957   6.792  0.00  0.00    +0.000 HD
ENDBRANCH  19  26
ENDBRANCH  17  22
ENDBRANCH  16  17
ENDBRANCH   1  16
TORSDOF 6
ENDMDL
MODEL 2
REMARK VINA RESULT:    -8.868      2.504      3.659
REMARK INTER + INTRA:         -13.102
REMARK INTER:                 -12.004
REMARK INTRA:                  -1.097
REMARK UNBOUND:                -1.123
REMARK  Name = 
REMARK  6 active torsions:
REMARK  status: ('A' for Active; 'I' for Inactive)
REMARK    1  A    between atoms: C_2  and  C_4
REMARK    2  A    between atoms: C_7  and  N_8
REMARK    3  A    between atoms: N_8  and  C_9
REMARK    4  A    between atoms: C_9  and  C_10
REMARK    5  A    between atoms: C_10  and  C_13
REMARK    6  A    between atoms: C_17  and  C_18
REMARK                            x       y       z     vdW  Elec       q    Type
REMARK                         _______ _______ _______ _____ _____    ______ ____
ROOT
ATOM      1  C   UNL     1      43.741   4.696  12.529  0.00  0.00    +0.000 C 
ATOM      2  F   UNL     1      42.842   5.546  13.103  0.00  0.00    +0.000 F 
ATOM      3  F   UNL     1      43.475   3.467  13.068  0.00  0.00    +0.000 F 
ENDROOT
BRANCH   1   4
ATOM      4  C   UNL     1      45.173   5.135  12.773  0.00  0.00    +0.000 A 
ATOM      5  C   UNL     1      45.801   6.037  11.908  0.00  0.00    +0.000 A 
ATOM      6  C   UNL     1      47.087   6.490  12.185  0.00  0.00    +0.000 A 
ATOM      7  C   UNL     1      47.743   6.067  13.344  0.00  0.00    +0.000 A 
ATOM      8  C   UNL     1      47.131   5.194  14.262  0.00  0.00    +0.000 A 
ATOM      9  C   UNL     1      45.853   4.708  13.930  0.00  0.00    +0.000 A 
BRANCH   8  10
ATOM     10  C   UNL     1      47.755   4.881  15.569  0.00  0.00    +0.000 A 
ATOM     11  C   UNL     1      48.588   5.813  16.206  0.00  0.00    +0.000 A 
ATOM     12  C   UNL     1      49.093   5.536  17.468  0.00  0.00    +0.000 A 
ATOM     13  N   UNL     1      48.832   4.401  18.144  0.00  0.00    +0.000 NA
ATOM     14  C   UNL     1      48.037   3.505  17.526  0.00  0.00    +0.000 A 
ATOM     15  C   UNL     1      47.493   3.690  16.262  0.00  0.00    +0.000 A 
ENDBRANCH   8  10
ENDBRANCH   1   4
BRANCH   1  16
ATOM     16  C   UNL     1      43.477   4.623  11.001  0.00  0.00    +0.000 C 
BRANCH  16  17
ATOM     17  N   UNL     1      43.754   3.301  10.418  0.00  0.00    +0.000 N 
ATOM     18  H   UNL     1      43.696   2.528  11.081  0.00  0.00    +0.000 HD
BRANCH  17  22
ATOM     19  C   UNL     1      46.607   2.649   7.378  0.00  0.00    +0.000 A 
ATOM     20  C   UNL     1      46.159   3.946   7.632  0.00  0.00    +0.000 A 
ATOM     21  C   UNL     1      45.225   4.178   8.649  0.00  0.00    +0.000 A 
ATOM     22  C   UNL     1      44.741   3.138   9.450  0.00  0.00    +0.000 A 
ATOM     23  C   UNL     1      45.181   1.836   9.161  0.00  0.00    +0.000 A 
ATOM     24  C   UNL     1      46.098   1.589   8.133  0.00  0.00    +0.000 A 
BRANCH  19  26
ATOM     25  N   UNL     1      47.588   3.198   5.219  0.00  0.00    +0.000 N 
ATOM     26  C   UNL     1      47.582   2.358   6.298  0.00  0.00    +0.000 C 
ATOM     27  O   UNL     1      48.380   1.432   6.380  0.00  0.00    +0.000 OA
ATOM     28  H   UNL     1      48.332   3.055   4.549  0.00  0.00    +0.000 HD
ATOM     29  H   UNL     1      47.141   4.103   5.239  0.00  0.00    +0.000 HD
ENDBRANCH  19  26
ENDBRANCH  17  22
ENDBRANCH  16  17
ENDBRANCH   1  16
TORSDOF 6
ENDMDL
MODEL 3
REMARK VINA RESULT:    -8.296      2.529      3.457
REMARK INTER + INTRA:         -12.328
REMARK INTER:                 -11.292
REMARK INTRA:                  -1.037
REMARK UNBOUND:                -1.123
REMARK  Name = 
REMARK  6 active torsions:
REMARK  status: ('A' for Active; 'I' for Inactive)
REMARK    1  A    between atoms: C_2  and  C_4
REMARK    2  A    between atoms: C_7  and  N_8
REMARK    3  A    between atoms: N_8  and  C_9
REMARK    4  A    between atoms: C_9  and  C_10
REMARK    5  A    between atoms: C_10  and  C_13
REMARK    6  A    between atoms: C_17  and  C_18
REMARK                            x       y       z     vdW  Elec       q    Type
REMARK                         _______ _______ _______ _____ _____    ______ ____
ROOT
ATOM      1  C   UNL     1      45.152   5.449  12.353  0.00  0.00    +0.000 C 
ATOM      2  F   UNL     1      44.274   5.813  13.332  0.00  0.00    +0.000 F 
ATOM      3  F   UNL     1      45.201   4.082  12.399  0.00  0.00    +0.000 F 
ENDROOT
BRANCH   1   4
ATOM      4  C   UNL     1      46.516   6.083  12.550  0.00  0.00    +0.000 A 
ATOM      5  C   UNL     1      47.098   6.855  11.540  0.00  0.00    +0.000 A 
ATOM      6  C   UNL     1      48.315   7.493  11.762  0.00  0.00    +0.000 A 
ATOM      7  C   UNL     1      48.943   7.388  13.006  0.00  0.00    +0.000 A 
ATOM      8  C   UNL     1      48.371   6.657  14.062  0.00  0.00    +0.000 A 
ATOM      9  C   UNL     1      47.169   5.977  13.794  0.00  0.00    +0.000 A 
BRANCH   8  10
ATOM     10  C   UNL     1      48.948   6.686  15.427  0.00  0.00    +0.000 A 
ATOM     11  C   UNL     1      49.831   7.707  15.810  0.00  0.00    +0.000 A 
ATOM     12  C   UNL     1      50.292   7.765  17.116  0.00  0.00    +0.000 A 
ATOM     13  N   UNL     1      49.942   6.884  18.072  0.00  0.00    +0.000 NA
ATOM     14  C   UNL     1      49.099   5.900  17.699  0.00  0.00    +0.000 A 
ATOM     15  C   UNL     1      48.592   5.756  16.415  0.00  0.00    +0.000 A 
ENDBRANCH   8  10
ENDBRANCH   1   4
BRANCH   1  16
ATOM     16  C   UNL     1      44.583   5.868  10.971  0.00  0.00    +0.000 C 
BRANCH  16  17
ATOM     17  N   UNL     1      43.972   4.756  10.225  0.00  0.00    +0.000 N 
ATOM     18  H   UNL     1      43.264   4.239  10.745  0.00  0.00    +0.000 HD
BRANCH  17  22
ATOM     19  C   UNL     1      46.471   2.468   7.711  0.00  0.00    +0.000 A 
ATOM     20  C   UNL     1      45.626   1.820   8.612  0.00  0.00    +0.000 A 
ATOM     21  C   UNL     1      44.779   2.566   9.441  0.00  0.00    +0.000 A 
ATOM     22  C   UNL     1      44.733   3.963   9.371  0.00  0.00    +0.000 A 
ATOM     23  C   UNL     1      45.612   4.600   8.479  0.00  0.00    +0.000 A 
ATOM     24  C   UNL     1      46.478   3.864   7.662  0.00  0.00    +0.000 A 
BRANCH  19  26
ATOM     25  N   UNL     1      48.501   2.377   6.370  0.00  0.00    +0.000 N 
ATOM     26  C   UNL     1      47.396   1.714   6.829  0.00  0.00    +0.000 C 
ATOM     27  O   UNL     1      47.209   0.534   6.553  0.00  0.00    +0.000 OA
ATOM     28  H   UNL     1      49.177   1.818   5.867  0.00  0.00    +0.000 HD
ATOM     29  H   UNL     1      48.819   3.242   6.782  0.00  0.00    +0.000 HD
ENDBRANCH  19  26
ENDBRANCH  17  22
ENDBRANCH  16  17
ENDBRANCH   1  16
TORSDOF 6
ENDMDL
MODEL 4
REMARK VINA RESULT:    -7.860      1.713      2.735
REMARK INTER + INTRA:         -11.740
REMARK INTER:                 -10.868
REMARK INTRA:                  -0.872
REMARK UNBOUND:                -1.123
REMARK  Name = 
REMARK  6 active torsions:
REMARK  status: ('A' for Active; 'I' for Inactive)
REMARK    1  A    between atoms: C_2  and  C_4
REMARK    2  A    between atoms: C_7  and  N_8
REMARK    3  A    between atoms: N_8  and  C_9
REMARK    4  A    between atoms: C_9  and  C_10
REMARK    5  A    between atoms: C_10  and  C_13
REMARK    6  A    between atoms: C_17  and  C_18
REMARK                            x       y       z     vdW  Elec       q    Type
REMARK                         _______ _______ _______ _____ _____    ______ ____
ROOT
ATOM      1  C   UNL     1      44.985   5.808  12.018  0.00  0.00    +0.000 C 
ATOM      2  F   UNL     1      44.309   5.588  13.182  0.00  0.00    +0.000 F 
ATOM      3  F   UNL     1      45.864   4.766  11.906  0.00  0.00    +0.000 F 
ENDROOT
BRANCH   1   4
ATOM      4  C   UNL     1      45.683   7.155  12.013  0.00  0.00    +0.000 A 
ATOM      5  C   UNL     1      44.945   8.343  12.038  0.00  0.00    +0.000 A 
ATOM      6  C   UNL     1      45.599   9.570  12.110  0.00  0.00    +0.000 A 
ATOM      7  C   UNL     1      46.993   9.616  12.188  0.00  0.00    +0.000 A 
ATOM      8  C   UNL     1      47.770   8.444  12.209  0.00  0.00    +0.000 A 
ATOM      9  C   UNL     1      47.089   7.220  12.079  0.00  0.00    +0.000 A 
BRANCH   8  10
ATOM     10  C   UNL     1      49.230   8.486  12.463  0.00  0.00    +0.000 A 
ATOM     11  C   UNL     1      49.727   8.568  13.773  0.00  0.00    +0.000 A 
ATOM     12  C   UNL     1      51.095   8.520  13.995  0.00  0.00    +0.000 A 
ATOM     13  N   UNL     1      52.007   8.397  13.013  0.00  0.00    +0.000 NA
ATOM     14  C   UNL     1      51.527   8.325  11.755  0.00  0.00    +0.000 A 
ATOM     15  C   UNL     1      50.177   8.373  11.435  0.00  0.00    +0.000 A 
ENDBRANCH   8  10
ENDBRANCH   1   4
BRANCH   1  16
ATOM     16  C   UNL     1      43.994   5.737  10.826  0.00  0.00    +0.000 C 
BRANCH  16  17
ATOM     17  N   UNL     1      43.685   4.363  10.398  0.00  0.00    +0.000 N 
ATOM     18  H   UNL     1      43.300   3.770  11.132  0.00  0.00    +0.000 HD
BRANCH  17  22
ATOM     19  C   UNL     1      46.381   2.446   7.778  0.00  0.00    +0.000 A 
ATOM     20  C   UNL     1      45.620   1.679   8.662  0.00  0.00    +0.000 A 
ATOM     21  C   UNL     1      44.710   2.301   9.525  0.00  0.00    +0.000 A 
ATOM     22  C   UNL     1      44.515   3.687   9.508  0.00  0.00    +0.000 A 
ATOM     23  C   UNL     1      45.311   4.445   8.634  0.00  0.00    +0.000 A 
ATOM     24  C   UNL     1      46.239   3.836   7.781  0.00  0.00    +0.000 A 
BRANCH  19  26
ATOM     25  N   UNL     1      48.424   2.602   6.464  0.00  0.00    +0.000 N 
ATOM     26  C   UNL     1      47.369   1.827   6.860  0.00  0.00    +0.000 C 
ATOM     27  O   UNL     1      47.275   0.659   6.501  0.00  0.00    +0.000 OA
ATOM     28  H   UNL     1      49.146   2.132   5.934  0.00  0.00    +0.000 HD
ATOM     29  H   UNL     1      48.672   3.458   6.939  0.00  0.00    +0.000 HD
ENDBRANCH  19  26
ENDBRANCH  17  22
ENDBRANCH  16  17
ENDBRANCH   1  16
TORSDOF 6
ENDMDL
MODEL 5
REMARK VINA RESULT:    -7.608      3.585      7.186
REMARK INTER + INTRA:         -11.399
REMARK INTER:                 -10.265
REMARK INTRA:                  -1.134
REMARK UNBOUND:                -1.123
REMARK  Name = 
REMARK  6 active torsions:
REMARK  status: ('A' for Active; 'I' for Inactive)
REMARK    1  A    between atoms: C_2  and  C_4
REMARK    2  A    between atoms: C_7  and  N_8
REMARK    3  A    between atoms: N_8  and  C_9
REMARK    4  A    between atoms: C_9  and  C_10
REMARK    5  A    between atoms: C_10  and  C_13
REMARK    6  A    between atoms: C_17  and  C_18
REMARK                            x       y       z     vdW  Elec       q    Type
REMARK                         _______ _______ _______ _____ _____    ______ ____
ROOT
ATOM      1  C   UNL     1      45.887   7.582  12.043  0.00  0.00    +0.000 C 
ATOM      2  F   UNL     1      45.463   8.009  13.267  0.00  0.00    +0.000 F 
ATOM      3  F   UNL     1      45.787   8.673  11.223  0.00  0.00    +0.000 F 
ENDROOT
BRANCH   1   4
ATOM      4  C   UNL     1      45.075   6.404  11.540  0.00  0.00    +0.000 A 
ATOM      5  C   UNL     1      43.720   6.281  11.861  0.00  0.00    +0.000 A 
ATOM      6  C   UNL     1      42.968   5.236  11.330  0.00  0.00    +0.000 A 
ATOM      7  C   UNL     1      43.560   4.325  10.451  0.00  0.00    +0.000 A 
ATOM      8  C   UNL     1      44.909   4.438  10.069  0.00  0.00    +0.000 A 
ATOM      9  C   UNL     1      45.659   5.469  10.662  0.00  0.00    +0.000 A 
BRANCH   8  10
ATOM     10  C   UNL     1      45.489   3.579   9.010  0.00  0.00    +0.000 A 
ATOM     11  C   UNL     1      46.146   4.146   7.908  0.00  0.00    +0.000 A 
ATOM     12  C   UNL     1      46.757   3.324   6.972  0.00  0.00    +0.000 A 
ATOM     13  N   UNL     1      46.762   1.980   7.049  0.00  0.00    +0.000 NA
ATOM     14  C   UNL     1      46.124   1.438   8.105  0.00  0.00    +0.000 A 
ATOM     15  C   UNL     1      45.478   2.179   9.086  0.00  0.00    +0.000 A 
ENDBRANCH   8  10
ENDBRANCH   1   4
BRANCH   1  16
ATOM     16  C   UNL     1      47.384   7.178  12.131  0.00  0.00    +0.000 C 
BRANCH  16  17
ATOM     17  N   UNL     1      47.951   7.310  13.482  0.00  0.00    +0.000 N 
ATOM     18  H   UNL     1      48.811   7.856  13.526  0.00  0.00    +0.000 HD
BRANCH  17  22
ATOM     19  C   UNL     1      47.767   4.247  16.377  0.00  0.00    +0.000 A 
ATOM     20  C   UNL     1      47.045   4.114  15.191  0.00  0.00    +0.000 A 
ATOM     21  C   UNL     1      47.110   5.115  14.215  0.00  0.00    +0.000 A 
ATOM     22  C   UNL     1      47.913   6.249  14.382  0.00  0.00    +0.000 A 
ATOM     23  C   UNL     1      48.609   6.380  15.595  0.00  0.00    +0.000 A 
ATOM     24  C   UNL     1      48.534   5.395  16.587  0.00  0.00    +0.000 A 
BRANCH  19  26
ATOM     25  N   UNL     1      48.830   3.049  18.211  0.00  0.00    +0.000 N 
ATOM     26  C   UNL     1      47.710   3.217  17.444  0.00  0.00    +0.000 C 
ATOM     27  O   UNL     1      46.694   2.568  17.664  0.00  0.00    +0.000 OA
ATOM     28  H   UNL     1      48.737   2.428  19.004  0.00  0.00    +0.000 HD
ATOM     29  H   UNL     1      49.574   3.732  18.233  0.00  0.00    +0.000 HD
ENDBRANCH  19  26
ENDBRANCH  17  22
ENDBRANCH  16  17
ENDBRANCH   1  16
TORSDOF 6
ENDMDL
MODEL 6
REMARK VINA RESULT:    -6.929      4.242      7.658
REMARK INTER + INTRA:         -10.483
REMARK INTER:                  -9.332
REMARK INTRA:                  -1.150
REMARK UNBOUND:                -1.123
REMARK  Name = 
REMARK  6 active torsions:
REMARK  status: ('A' for Active; 'I' for Inactive)
REMARK    1  A    between atoms: C_2  and  C_4
REMARK    2  A    between atoms: C_7  and  N_8
REMARK    3  A    between atoms: N_8  and  C_9
REMARK    4  A    between atoms: C_9  and  C_10
REMARK    5  A    between atoms: C_10  and  C_13
REMARK    6  A    between atoms: C_17  and  C_18
REMARK                            x       y       z     vdW  Elec       q    Type
REMARK                         _______ _______ _______ _____ _____    ______ ____
ROOT
ATOM      1  C   UNL     1      48.908   8.160  12.378  0.00  0.00    +0.000 C 
ATOM      2  F   UNL     1      49.366   9.162  11.572  0.00  0.00    +0.000 F 
ATOM      3  F   UNL     1      49.704   7.081  12.106  0.00  0.00    +0.000 F 
ENDROOT
BRANCH   1   4
ATOM      4  C   UNL     1      47.438   7.868  12.141  0.00  0.00    +0.000 A 
ATOM      5  C   UNL     1      46.468   8.847  12.377  0.00  0.00    +0.000 A 
ATOM      6  C   UNL     1      45.132   8.590  12.083  0.00  0.00    +0.000 A 
ATOM      7  C   UNL     1      44.761   7.365  11.522  0.00  0.00    +0.000 A 
ATOM      8  C   UNL     1      45.711   6.370  11.230  0.00  0.00    +0.000 A 
ATOM      9  C   UNL     1      47.046   6.633  11.588  0.00  0.00    +0.000 A 
BRANCH   8  10
ATOM     10  C   UNL     1      45.345   5.144  10.482  0.00  0.00    +0.000 A 
ATOM     11  C   UNL     1      44.614   4.119  11.100  0.00  0.00    +0.000 A 
ATOM     12  C   UNL     1      44.207   3.020  10.360  0.00  0.00    +0.000 A 
ATOM     13  N   UNL     1      44.473   2.861   9.050  0.00  0.00    +0.000 NA
ATOM     14  C   UNL     1      45.182   3.845   8.460  0.00  0.00    +0.000 A 
ATOM     15  C   UNL     1      45.638   4.977   9.121  0.00  0.00    +0.000 A 
ENDBRANCH   8  10
ENDBRANCH   1   4
BRANCH   1  16
ATOM     16  C   UNL     1      49.121   8.558  13.863  0.00  0.00    +0.000 C 
BRANCH  16  17
ATOM     17  N   UNL     1      49.978   7.619  14.607  0.00  0.00    +0.000 N 
ATOM     18  H   UNL     1      50.788   7.285  14.084  0.00  0.00    +0.000 HD
BRANCH  17  22
ATOM     19  C   UNL     1      48.297   4.583  17.005  0.00  0.00    +0.000 A 
ATOM     20  C   UNL     1      49.501   5.173  17.390  0.00  0.00    +0.000 A 
ATOM     21  C   UNL     1      50.062   6.193  16.612  0.00  0.00    +0.000 A 
ATOM     22  C   UNL     1      49.427   6.667  15.458  0.00  0.00    +0.000 A 
ATOM     23  C   UNL     1      48.231   6.041  15.071  0.00  0.00    +0.000 A 
ATOM     24  C   UNL     1      47.672   5.006  15.829  0.00  0.00    +0.000 A 
BRANCH  19  26
ATOM     25  N   UNL     1      48.293   3.135  18.963  0.00  0.00    +0.000 N 
ATOM     26  C   UNL     1      47.679   3.486  17.792  0.00  0.00    +0.000 C 
ATOM     27  O   UNL     1      46.640   2.942  17.437  0.00  0.00    +0.000 OA
ATOM     28  H   UNL     1      47.798   2.469  19.541  0.00  0.00    +0.000 HD
ATOM     29  H   UNL     1      48.981   3.726  19.408  0.00  0.00    +0.000 HD
ENDBRANCH  19  26
ENDBRANCH  17  22
ENDBRANCH  16  17
ENDBRANCH   1  16
TORSDOF 6
ENDMDL
MODEL 7
REMARK VINA RESULT:    -6.871      3.823      5.913
REMARK INTER + INTRA:         -10.404
REMARK INTER:                  -8.985
REMARK INTRA:                  -1.419
REMARK UNBOUND:                -1.123
REMARK  Name = 
REMARK  6 active torsions:
REMARK  status: ('A' for Active; 'I' for Inactive)
REMARK    1  A    between atoms: C_2  and  C_4
REMARK    2  A    between atoms: C_7  and  N_8
REMARK    3  A    between atoms: N_8  and  C_9
REMARK    4  A    between atoms: C_9  and  C_10
REMARK    5  A    between atoms: C_10  and  C_13
REMARK    6  A    between atoms: C_17  and  C_18
REMARK                            x       y       z     vdW  Elec       q    Type
REMARK                         _______ _______ _______ _____ _____    ______ ____
ROOT
ATOM      1  C   UNL     1      47.911   8.244  12.385  0.00  0.00    +0.000 C 
ATOM      2  F   UNL     1      48.062   7.045  11.751  0.00  0.00    +0.000 F 
ATOM      3  F   UNL     1      48.692   9.125  11.689  0.00  0.00    +0.000 F 
ENDROOT
BRANCH   1   4
ATOM      4  C   UNL     1      48.296   8.163  13.850  0.00  0.00    +0.000 A 
ATOM      5  C   UNL     1      48.390   9.322  14.629  0.00  0.00    +0.000 A 
ATOM      6  C   UNL     1      48.670   9.227  15.989  0.00  0.00    +0.000 A 
ATOM      7  C   UNL     1      48.828   7.973  16.586  0.00  0.00    +0.000 A 
ATOM      8  C   UNL     1      48.698   6.783  15.848  0.00  0.00    +0.000 A 
ATOM      9  C   UNL     1      48.470   6.908  14.465  0.00  0.00    +0.000 A 
BRANCH   8  10
ATOM     10  C   UNL     1      48.695   5.457  16.509  0.00  0.00    +0.000 A 
ATOM     11  C   UNL     1      47.694   4.517  16.224  0.00  0.00    +0.000 A 
ATOM     12  C   UNL     1      47.756   3.251  16.787  0.00  0.00    +0.000 A 
ATOM     13  N   UNL     1      48.739   2.849  17.614  0.00  0.00    +0.000 NA
ATOM     14  C   UNL     1      49.697   3.757  17.891  0.00  0.00    +0.000 A 
ATOM     15  C   UNL     1      49.714   5.049  17.382  0.00  0.00    +0.000 A 
ENDBRANCH   8  10
ENDBRANCH   1   4
BRANCH   1  16
ATOM     16  C   UNL     1      46.434   8.705  12.265  0.00  0.00    +0.000 C 
BRANCH  16  17
ATOM     17  N   UNL     1      45.503   7.923  13.095  0.00  0.00    +0.000 N 
ATOM     18  H   UNL     1      45.668   7.999  14.098  0.00  0.00    +0.000 HD
BRANCH  17  22
ATOM     19  C   UNL     1      44.282   4.149  11.658  0.00  0.00    +0.000 A 
ATOM     20  C   UNL     1      45.041   4.225  12.826  0.00  0.00    +0.000 A 
ATOM     21  C   UNL     1      45.440   5.472  13.323  0.00  0.00    +0.000 A 
ATOM     22  C   UNL     1      45.068   6.665  12.691  0.00  0.00    +0.000 A 
ATOM     23  C   UNL     1      44.329   6.566  11.500  0.00  0.00    +0.000 A 
ATOM     24  C   UNL     1      43.943   5.324  10.983  0.00  0.00    +0.000 A 
BRANCH  19  26
ATOM     25  N   UNL     1      44.582   2.356  10.039  0.00  0.00    +0.000 N 
ATOM     26  C   UNL     1      43.856   2.846  11.089  0.00  0.00    +0.000 C 
ATOM     27  O   UNL     1      42.921   2.209  11.560  0.00  0.00    +0.000 OA
ATOM     28  H   UNL     1      44.351   1.418   9.739  0.00  0.00    +0.000 HD
ATOM     29  H   UNL     1      45.497   2.713   9.804  0.00  0.00    +0.000 HD
ENDBRANCH  19  26
ENDBRANCH  17  22
ENDBRANCH  16  17
ENDBRANCH   1  16
TORSDOF 6
ENDMDL
MODEL 8
REMARK VINA RESULT:    -6.695      5.395      7.266
REMARK INTER + INTRA:         -10.167
REMARK INTER:                  -9.227
REMARK INTRA:                  -0.940
REMARK UNBOUND:                -1.123
REMARK  Name = 
REMARK  6 active torsions:
REMARK  status: ('A' for Active; 'I' for Inactive)
REMARK    1  A    between atoms: C_2  and  C_4
REMARK    2  A    between atoms: C_7  and  N_8
REMARK    3  A    between atoms: N_8  and  C_9
REMARK    4  A    between atoms: C_9  and  C_10
REMARK    5  A    between atoms: C_10  and  C_13
REMARK    6  A    between atoms: C_17  and  C_18
REMARK                            x       y       z     vdW  Elec       q    Type
REMARK                         _______ _______ _______ _____ _____    ______ ____
ROOT
ATOM      1  C   UNL     1      48.989   6.814  15.901  0.00  0.00    +0.000 C 
ATOM      2  F   UNL     1      50.218   7.382  16.074  0.00  0.00    +0.000 F 
ATOM      3  F   UNL     1      48.098   7.707  16.430  0.00  0.00    +0.000 F 
ENDROOT
BRANCH   1   4
ATOM      4  C   UNL     1      48.898   5.449  16.557  0.00  0.00    +0.000 A 
ATOM      5  C   UNL     1      47.677   4.770  16.627  0.00  0.00    +0.000 A 
ATOM      6  C   UNL     1      47.622   3.487  17.163  0.00  0.00    +0.000 A 
ATOM      7  C   UNL     1      48.791   2.862  17.604  0.00  0.00    +0.000 A 
ATOM      8  C   UNL     1      50.045   3.492  17.512  0.00  0.00    +0.000 A 
ATOM      9  C   UNL     1      50.065   4.809  17.018  0.00  0.00    +0.000 A 
BRANCH   8  10
ATOM     10  C   UNL     1      51.301   2.769  17.819  0.00  0.00    +0.000 A 
ATOM     11  C   UNL     1      52.313   3.380  18.574  0.00  0.00    +0.000 A 
ATOM     12  C   UNL     1      53.444   2.658  18.924  0.00  0.00    +0.000 A 
ATOM     13  N   UNL     1      53.645   1.372  18.579  0.00  0.00    +0.000 NA
ATOM     14  C   UNL     1      52.674   0.789  17.848  0.00  0.00    +0.000 A 
ATOM     15  C   UNL     1      51.513   1.434  17.444  0.00  0.00    +0.000 A 
ENDBRANCH   8  10
ENDBRANCH   1   4
BRANCH   1  16
ATOM     16  C   UNL     1      48.695   6.677  14.383  0.00  0.00    +0.000 C 
BRANCH  16  17
ATOM     17  N   UNL     1      47.346   7.128  14.002  0.00  0.00    +0.000 N 
ATOM     18  H   UNL     1      46.795   7.503  14.773  0.00  0.00    +0.000 HD
BRANCH  17  22
ATOM     19  C   UNL     1      44.904   4.972  11.320  0.00  0.00    +0.000 A 
ATOM     20  C   UNL     1      45.352   6.246  10.968  0.00  0.00    +0.000 A 
ATOM     21  C   UNL     1      46.176   6.965  11.841  0.00  0.00    +0.000 A 
ATOM     22  C   UNL     1      46.596   6.426  13.063  0.00  0.00    +0.000 A 
ATOM     23  C   UNL     1      46.111   5.155  13.414  0.00  0.00    +0.000 A 
ATOM     24  C   UNL     1      45.269   4.436  12.558  0.00  0.00    +0.000 A 
BRANCH  19  26
ATOM     25  N   UNL     1      44.032   4.491   9.099  0.00  0.00    +0.000 N 
ATOM     26  C   UNL     1      44.014   4.184  10.431  0.00  0.00    +0.000 C 
ATOM     27  O   UNL     1      43.321   3.268  10.857  0.00  0.00    +0.000 OA
ATOM     28  H   UNL     1      43.510   3.872   8.493  0.00  0.00    +0.000 HD
ATOM     29  H   UNL     1      44.769   5.044   8.683  0.00  0.00    +0.000 HD
ENDBRANCH  19  26
ENDBRANCH  17  22
ENDBRANCH  16  17
ENDBRANCH   1  16
TORSDOF 6
ENDMDL
MODEL 9
REMARK VINA RESULT:    -6.519      3.220      7.277
REMARK INTER + INTRA:          -9.928
REMARK INTER:                  -9.094
REMARK INTRA:                  -0.834
REMARK UNBOUND:                -1.123
REMARK  Name = 
REMARK  6 active torsions:
REMARK  status: ('A' for Active; 'I' for Inactive)
REMARK    1  A    between atoms: C_2  and  C_4
REMARK    2  A    between atoms: C_7  and  N_8
REMARK    3  A    between atoms: N_8  and  C_9
REMARK    4  A    between atoms: C_9  and  C_10
REMARK    5  A    between atoms: C_10  and  C_13
REMARK    6  A    between atoms: C_17  and  C_18
REMARK                            x       y       z     vdW  Elec       q    Type
REMARK                         _______ _______ _______ _____ _____    ______ ____
ROOT
ATOM      1  C   UNL     1      44.604   6.219  11.866  0.00  0.00    +0.000 C 
ATOM      2  F   UNL     1      44.517   6.300  13.226  0.00  0.00    +0.000 F 
ATOM      3  F   UNL     1      43.615   7.036  11.390  0.00  0.00    +0.000 F 
ENDROOT
BRANCH   1   4
ATOM      4  C   UNL     1      44.463   4.792  11.372  0.00  0.00    +0.000 A 
ATOM      5  C   UNL     1      43.509   3.934  11.928  0.00  0.00    +0.000 A 
ATOM      6  C   UNL     1      43.339   2.652  11.414  0.00  0.00    +0.000 A 
ATOM      7  C   UNL     1      44.100   2.230  10.320  0.00  0.00    +0.000 A 
ATOM      8  C   UNL     1      45.039   3.076   9.704  0.00  0.00    +0.000 A 
ATOM      9  C   UNL     1      45.231   4.346  10.278  0.00  0.00    +0.000 A 
BRANCH   8  10
ATOM     10  C   UNL     1      45.721   2.693   8.445  0.00  0.00    +0.000 A 
ATOM     11  C   UNL     1      45.948   3.641   7.436  0.00  0.00    +0.000 A 
ATOM     12  C   UNL     1      46.662   3.283   6.303  0.00  0.00    +0.000 A 
ATOM     13  N   UNL     1      47.168   2.052   6.096  0.00  0.00    +0.000 NA
ATOM     14  C   UNL     1      46.941   1.142   7.064  0.00  0.00    +0.000 A 
ATOM     15  C   UNL     1      46.231   1.405   8.228  0.00  0.00    +0.000 A 
ENDBRANCH   8  10
ENDBRANCH   1   4
BRANCH   1  16
ATOM     16  C   UNL     1      45.971   6.793  11.405  0.00  0.00    +0.000 C 
BRANCH  16  17
ATOM     17  N   UNL     1      46.310   8.082  12.029  0.00  0.00    +0.000 N 
ATOM     18  H   UNL     1      45.932   8.896  11.545  0.00  0.00    +0.000 HD
BRANCH  17  22
ATOM     19  C   UNL     1      50.172   8.513  13.673  0.00  0.00    +0.000 A 
ATOM     20  C   UNL     1      49.705   9.460  12.761  0.00  0.00    +0.000 A 
ATOM     21  C   UNL     1      48.419   9.338  12.220  0.00  0.00    +0.000 A 
ATOM     22  C   UNL     1      47.563   8.296  12.595  0.00  0.00    +0.000 A 
ATOM     23  C   UNL     1      48.062   7.336  13.491  0.00  0.00    +0.000 A 
ATOM     24  C   UNL     1      49.353   7.436  14.021  0.00  0.00    +0.000 A 
BRANCH  19  26
ATOM     25  N   UNL     1      52.032   7.468  14.844  0.00  0.00    +0.000 N 
ATOM     26  C   UNL     1      51.535   8.597  14.254  0.00  0.00    +0.000 C 
ATOM     27  O   UNL     1      52.210   9.617  14.177  0.00  0.00    +0.000 OA
ATOM     28  H   UNL     1      53.001   7.507  15.131  0.00  0.00    +0.000 HD
ATOM     29  H   UNL     1      51.623   6.557  14.694  0.00  0.00    +0.000 HD
ENDBRANCH  19  26
ENDBRANCH  17  22
ENDBRANCH  16  17
ENDBRANCH   1  16
TORSDOF 6
ENDMDL
