MODEL 1
REMARK VINA RESULT:    -9.222      0.000      0.000
REMARK INTER + INTRA:         -12.666
REMARK INTER:                 -11.379
REMARK INTRA:                  -1.287
REMARK UNBOUND:                -1.287
REMARK  Name = 
REMARK  4 active torsions:
REMARK  status: ('A' for Active; 'I' for Inactive)
REMARK    1  A    between atoms: C_2  and  C_4
REMARK    2  A    between atoms: N_8  and  C_9
REMARK    3  A    between atoms: C_9  and  C_10
REMARK    4  A    between atoms: C_14  and  C_15
REMARK                            x       y       z     vdW  Elec       q    Type
REMARK                         _______ _______ _______ _____ _____    ______ ____
ROOT
ATOM      1  C   UNL     1      43.828   4.955  11.390  0.00  0.00    +0.000 C 
ATOM      2  C   UNL     1      42.467   5.180  12.039  0.00  0.00    +0.000 C 
ATOM      3  C   UNL     1      42.986   6.176  11.055  0.00  0.00    +0.000 C 
ENDROOT
BRANCH   1   8
ATOM      4  C   UNL     1      46.563   2.726   7.525  0.00  0.00    +0.000 A 
ATOM      5  C   UNL     1      46.227   4.058   7.695  0.00  0.00    +0.000 A 
ATOM      6  C   UNL     1      45.333   4.412   8.702  0.00  0.00    +0.000 A 
ATOM      7  C   UNL     1      44.854   3.442   9.570  0.00  0.00    +0.000 A 
ATOM      8  N   UNL     1      43.923   3.717  10.580  0.00  0.00    +0.000 N 
ATOM      9  N   UNL     1      45.172   2.136   9.404  0.00  0.00    +0.000 NA
ATOM     10  C   UNL     1      45.992   1.793   8.375  0.00  0.00    +0.000 A 
ATOM     11  H   UNL     1      43.856   2.844  11.107  0.00  0.00    +0.000 HD
BRANCH   4  13
ATOM     12  N   UNL     1      47.289   2.980   5.239  0.00  0.00    +0.000 N 
ATOM     13  C   UNL     1      47.445   2.296   6.420  0.00  0.00    +0.000 C 
ATOM     14  O   UNL     1      48.245   1.401   6.552  0.00  0.00    +0.000 OA
ATOM     15  H   UNL     1      47.899   2.721   4.472  0.00  0.00    +0.000 HD
ATOM     16  H   UNL     1      46.766   3.839   5.163  0.00  0.00    +0.000 HD
ENDBRANCH   4  13
ENDBRANCH   1   8
BRANCH   1  17
ATOM     17  C   UNL     1      45.079   5.181  12.220  0.00  0.00    +0.000 A 
ATOM     18  C   UNL     1      45.591   4.159  13.035  0.00  0.00    +0.000 A 
ATOM     19  C   UNL     1      46.848   4.266  13.617  0.00  0.00    +0.000 A 
ATOM     20  C   UNL     1      47.614   5.401  13.389  0.00  0.00    +0.000 A 
ATOM     21  C   UNL     1      47.142   6.446  12.577  0.00  0.00    +0.000 A 
ATOM     22  C   UNL     1      45.853   6.336  12.045  0.00  0.00    +0.000 A 
BRANCH  21  23
ATOM     23  C   UNL     1      48.033   7.534  12.155  0.00  0.00    +0.000 A 
ATOM     24  C   UNL     1      47.525   8.843  12.083  0.00  0.00    +0.000 A 
ATOM     25  C   UNL     1      48.338   9.919  11.749  0.00  0.00    +0.000 A 
ATOM     26  C   UNL     1      49.687   9.705  11.488  0.00  0.00    +0.000 A 
ATOM     27  C   UNL     1      50.220   8.420  11.566  0.00  0.00    +0.000 A 
ATOM     28  C   UNL     1      49.400   7.340  11.896  0.00  0.00    +0.000 A 
ENDBRANCH  21  23
ENDBRANCH   1  17
TORSDOF 4
ENDMDL
MODEL 2
REMARK VINA RESULT:    -8.902      1.567      3.327
REMARK INTER + INTRA:         -12.271
REMARK INTER:                 -11.424
REMARK INTRA:                  -0.847
REMARK UNBOUND:                -1.287
REMARK  Name = 
REMARK  4 active torsions:
REMARK  status: ('A' for Active; 'I' for Inactive)
REMARK    1  A    between atoms: C_2  and  C_4
REMARK    2  A    between atoms: N_8  and  C_9
REMARK    3  A    between atoms: C_9  and  C_10
REMARK    4  A    between atoms: C_14  and  C_15
REMARK                            x       y       z     vdW  Elec       q    Type
REMARK                         _______ _______ _______ _____ _____    ______ ____
ROOT
ATOM      1  C   UNL     1      43.979   4.913  11.484  0.00  0.00    +0.000 C 
ATOM      2  C   UNL     1      42.831   4.950  12.485  0.00  0.00    +0.000 C 
ATOM      3  C   UNL     1      42.896   5.976  11.402  0.00  0.00    +0.000 C 
ENDROOT
BRANCH   1   8
ATOM      4  C   UNL     1      46.519   2.707   7.474  0.00  0.00    +0.000 A 
ATOM      5  C   UNL     1      46.178   4.036   7.660  0.00  0.00    +0.000 A 
ATOM      6  C   UNL     1      45.338   4.381   8.716  0.00  0.00    +0.000 A 
ATOM      7  C   UNL     1      44.919   3.407   9.610  0.00  0.00    +0.000 A 
ATOM      8  N   UNL     1      44.043   3.674  10.671  0.00  0.00    +0.000 N 
ATOM      9  N   UNL     1      45.242   2.106   9.429  0.00  0.00    +0.000 NA
ATOM     10  C   UNL     1      46.007   1.770   8.356  0.00  0.00    +0.000 A 
ATOM     11  H   UNL     1      44.016   2.802  11.202  0.00  0.00    +0.000 HD
BRANCH   4  13
ATOM     12  N   UNL     1      47.185   3.029   5.178  0.00  0.00    +0.000 N 
ATOM     13  C   UNL     1      47.343   2.284   6.322  0.00  0.00    +0.000 C 
ATOM     14  O   UNL     1      48.099   1.345   6.387  0.00  0.00    +0.000 OA
ATOM     15  H   UNL     1      47.756   2.776   4.381  0.00  0.00    +0.000 HD
ATOM     16  H   UNL     1      46.704   3.916   5.158  0.00  0.00    +0.000 HD
ENDBRANCH   4  13
ENDBRANCH   1   8
BRANCH   1  17
ATOM     17  C   UNL     1      45.358   5.359  11.935  0.00  0.00    +0.000 A 
ATOM     18  C   UNL     1      45.975   6.478  11.353  0.00  0.00    +0.000 A 
ATOM     19  C   UNL     1      47.122   7.035  11.904  0.00  0.00    +0.000 A 
ATOM     20  C   UNL     1      47.671   6.477  13.051  0.00  0.00    +0.000 A 
ATOM     21  C   UNL     1      47.084   5.359  13.669  0.00  0.00    +0.000 A 
ATOM     22  C   UNL     1      45.960   4.787  13.065  0.00  0.00    +0.000 A 
BRANCH  21  23
ATOM     23  C   UNL     1      47.528   4.912  14.994  0.00  0.00    +0.000 A 
ATOM     24  C   UNL     1      48.285   5.787  15.793  0.00  0.00    +0.000 A 
ATOM     25  C   UNL     1      48.679   5.439  17.078  0.00  0.00    +0.000 A 
ATOM     26  C   UNL     1      48.312   4.203  17.598  0.00  0.00    +0.000 A 
ATOM     27  C   UNL     1      47.550   3.321  16.834  0.00  0.00    +0.000 A 
ATOM     28  C   UNL     1      47.161   3.670  15.541  0.00  0.00    +0.000 A 
ENDBRANCH  21  23
ENDBRANCH   1  17
TORSDOF 4
ENDMDL
MODEL 3
REMARK VINA RESULT:    -6.982      3.347      6.826
REMARK INTER + INTRA:          -9.902
REMARK INTER:                  -8.755
REMARK INTRA:                  -1.148
REMARK UNBOUND:                -1.287
REMARK  Name = 
REMARK  4 active torsions:
REMARK  status: ('A' for Active; 'I' for Inactive)
REMARK    1  A    between atoms: C_2  and  C_4
REMARK    2  A    between atoms: N_8  and  C_9
REMARK    3  A    between atoms: C_9  and  C_10
REMARK    4  A    between atoms: C_14  and  C_15
REMARK                            x       y       z     vdW  Elec       q    Type
REMARK                         _______ _______ _______ _____ _____    ______ ____
ROOT
ATOM      1  C   UNL     1      46.091   4.994  13.309  0.00  0.00    +0.000 C 
ATOM      2  C   UNL     1      46.025   4.117  14.554  0.00  0.00    +0.000 C 
ATOM      3  C   UNL     1      47.200   4.008  13.640  0.00  0.00    +0.000 C 
ENDROOT
BRANCH   1   8
ATOM      4  C   UNL     1      48.220   9.495  11.698  0.00  0.00    +0.000 A 
ATOM      5  C   UNL     1      48.785   8.231  11.733  0.00  0.00    +0.000 A 
ATOM      6  C   UNL     1      48.103   7.199  12.373  0.00  0.00    +0.000 A 
ATOM      7  C   UNL     1      46.839   7.429  12.896  0.00  0.00    +0.000 A 
ATOM      8  N   UNL     1      46.112   6.451  13.587  0.00  0.00    +0.000 N 
ATOM      9  N   UNL     1      46.286   8.664  12.872  0.00  0.00    +0.000 NA
ATOM     10  C   UNL     1      46.990   9.680  12.305  0.00  0.00    +0.000 A 
ATOM     11  H   UNL     1      45.198   6.879  13.744  0.00  0.00    +0.000 HD
BRANCH   4  13
ATOM     12  N   UNL     1      50.219  10.839  11.567  0.00  0.00    +0.000 N 
ATOM     13  C   UNL     1      48.943  10.637  11.100  0.00  0.00    +0.000 C 
ATOM     14  O   UNL     1      48.439  11.343  10.259  0.00  0.00    +0.000 OA
ATOM     15  H   UNL     1      50.745  11.601  11.155  0.00  0.00    +0.000 HD
ATOM     16  H   UNL     1      50.717  10.162  12.124  0.00  0.00    +0.000 HD
ENDBRANCH   4  13
ENDBRANCH   1   8
BRANCH   1  17
ATOM     17  C   UNL     1      45.194   4.661  12.131  0.00  0.00    +0.000 A 
ATOM     18  C   UNL     1      43.966   5.319  11.957  0.00  0.00    +0.000 A 
ATOM     19  C   UNL     1      43.246   5.196  10.776  0.00  0.00    +0.000 A 
ATOM     20  C   UNL     1      43.746   4.410   9.747  0.00  0.00    +0.000 A 
ATOM     21  C   UNL     1      44.973   3.736   9.877  0.00  0.00    +0.000 A 
ATOM     22  C   UNL     1      45.653   3.835  11.095  0.00  0.00    +0.000 A 
BRANCH  21  23
ATOM     23  C   UNL     1      45.606   3.094   8.719  0.00  0.00    +0.000 A 
ATOM     24  C   UNL     1      46.018   3.891   7.636  0.00  0.00    +0.000 A 
ATOM     25  C   UNL     1      46.676   3.345   6.542  0.00  0.00    +0.000 A 
ATOM     26  C   UNL     1      46.947   1.982   6.514  0.00  0.00    +0.000 A 
ATOM     27  C   UNL     1      46.562   1.170   7.579  0.00  0.00    +0.000 A 
ATOM     28  C   UNL     1      45.895   1.720   8.674  0.00  0.00    +0.000 A 
ENDBRANCH  21  23
ENDBRANCH   1  17
TORSDOF 4
ENDMDL
MODEL 4
REMARK VINA RESULT:    -6.928      4.327      7.921
REMARK INTER + INTRA:          -9.835
REMARK INTER:                  -9.823
REMARK INTRA:                  -0.012
REMARK UNBOUND:                -1.287
REMARK  Name = 
REMARK  4 active torsions:
REMARK  status: ('A' for Active; 'I' for Inactive)
REMARK    1  A    between atoms: C_2  and  C_4
REMARK    2  A    between atoms: N_8  and  C_9
REMARK    3  A    between atoms: C_9  and  C_10
REMARK    4  A    between atoms: C_14  and  C_15
REMARK                            x       y       z     vdW  Elec       q    Type
REMARK                         _______ _______ _______ _____ _____    ______ ____
ROOT
ATOM      1  C   UNL     1      46.397   5.455  13.055  0.00  0.00    +0.000 C 
ATOM      2  C   UNL     1      47.522   6.387  12.619  0.00  0.00    +0.000 C 
ATOM      3  C   UNL     1      46.365   6.939  13.385  0.00  0.00    +0.000 C 
ENDROOT
BRANCH   1   8
ATOM      4  C   UNL     1      48.251   4.585  17.872  0.00  0.00    +0.000 A 
ATOM      5  C   UNL     1      48.515   5.642  17.018  0.00  0.00    +0.000 A 
ATOM      6  C   UNL     1      48.058   5.586  15.703  0.00  0.00    +0.000 A 
ATOM      7  C   UNL     1      47.282   4.514  15.289  0.00  0.00    +0.000 A 
ATOM      8  N   UNL     1      46.822   4.371  13.974  0.00  0.00    +0.000 N 
ATOM      9  N   UNL     1      47.028   3.473  16.116  0.00  0.00    +0.000 NA
ATOM     10  C   UNL     1      47.536   3.507  17.377  0.00  0.00    +0.000 A 
ATOM     11  H   UNL     1      46.200   3.561  14.010  0.00  0.00    +0.000 HD
BRANCH   4  13
ATOM     12  N   UNL     1      48.360   3.520  20.034  0.00  0.00    +0.000 N 
ATOM     13  C   UNL     1      48.784   4.566  19.250  0.00  0.00    +0.000 C 
ATOM     14  O   UNL     1      49.540   5.417  19.655  0.00  0.00    +0.000 OA
ATOM     15  H   UNL     1      48.729   3.471  20.975  0.00  0.00    +0.000 HD
ATOM     16  H   UNL     1      47.884   2.711  19.665  0.00  0.00    +0.000 HD
ENDBRANCH   4  13
ENDBRANCH   1   8
BRANCH   1  17
ATOM     17  C   UNL     1      45.416   4.954  12.011  0.00  0.00    +0.000 A 
ATOM     18  C   UNL     1      44.128   5.504  11.917  0.00  0.00    +0.000 A 
ATOM     19  C   UNL     1      43.305   5.224  10.833  0.00  0.00    +0.000 A 
ATOM     20  C   UNL     1      43.761   4.387   9.824  0.00  0.00    +0.000 A 
ATOM     21  C   UNL     1      45.046   3.818   9.876  0.00  0.00    +0.000 A 
ATOM     22  C   UNL     1      45.835   4.075  11.002  0.00  0.00    +0.000 A 
BRANCH  21  23
ATOM     23  C   UNL     1      45.610   3.123   8.713  0.00  0.00    +0.000 A 
ATOM     24  C   UNL     1      45.999   3.876   7.590  0.00  0.00    +0.000 A 
ATOM     25  C   UNL     1      46.593   3.277   6.487  0.00  0.00    +0.000 A 
ATOM     26  C   UNL     1      46.821   1.906   6.489  0.00  0.00    +0.000 A 
ATOM     27  C   UNL     1      46.458   1.138   7.593  0.00  0.00    +0.000 A 
ATOM     28  C   UNL     1      45.855   1.740   8.698  0.00  0.00    +0.000 A 
ENDBRANCH  21  23
ENDBRANCH   1  17
TORSDOF 4
ENDMDL
MODEL 5
REMARK VINA RESULT:    -6.729      4.769      8.308
REMARK INTER + INTRA:          -9.590
REMARK INTER:                  -8.503
REMARK INTRA:                  -1.087
REMARK UNBOUND:                -1.287
REMARK  Name = 
REMARK  4 active torsions:
REMARK  status: ('A' for Active; 'I' for Inactive)
REMARK    1  A    between atoms: C_2  and  C_4
REMARK    2  A    between atoms: N_8  and  C_9
REMARK    3  A    between atoms: C_9  and  C_10
REMARK    4  A    between atoms: C_14  and  C_15
REMARK                            x       y       z     vdW  Elec       q    Type
REMARK                         _______ _______ _______ _____ _____    ______ ____
ROOT
ATOM      1  C   UNL     1      48.891   7.663  12.856  0.00  0.00    +0.000 C 
ATOM      2  C   UNL     1      49.890   7.818  11.716  0.00  0.00    +0.000 C 
ATOM      3  C   UNL     1      49.545   9.003  12.557  0.00  0.00    +0.000 C 
ENDROOT
BRANCH   1   8
ATOM      4  C   UNL     1      48.418   6.666  17.972  0.00  0.00    +0.000 A 
ATOM      5  C   UNL     1      48.485   7.890  17.328  0.00  0.00    +0.000 A 
ATOM      6  C   UNL     1      48.796   7.930  15.972  0.00  0.00    +0.000 A 
ATOM      7  C   UNL     1      48.957   6.746  15.267  0.00  0.00    +0.000 A 
ATOM      8  N   UNL     1      49.309   6.709  13.912  0.00  0.00    +0.000 N 
ATOM      9  N   UNL     1      48.902   5.546  15.892  0.00  0.00    +0.000 NA
ATOM     10  C   UNL     1      48.664   5.522  17.231  0.00  0.00    +0.000 A 
ATOM     11  H   UNL     1      49.241   5.721  13.659  0.00  0.00    +0.000 HD
BRANCH   4  13
ATOM     12  N   UNL     1      47.163   5.727  19.806  0.00  0.00    +0.000 N 
ATOM     13  C   UNL     1      48.170   6.581  19.427  0.00  0.00    +0.000 C 
ATOM     14  O   UNL     1      48.812   7.224  20.223  0.00  0.00    +0.000 OA
ATOM     15  H   UNL     1      46.988   5.632  20.799  0.00  0.00    +0.000 HD
ATOM     16  H   UNL     1      46.746   5.053  19.181  0.00  0.00    +0.000 HD
ENDBRANCH   4  13
ENDBRANCH   1   8
BRANCH   1  17
ATOM     17  C   UNL     1      47.418   7.519  12.522  0.00  0.00    +0.000 A 
ATOM     18  C   UNL     1      46.553   8.622  12.607  0.00  0.00    +0.000 A 
ATOM     19  C   UNL     1      45.265   8.566  12.090  0.00  0.00    +0.000 A 
ATOM     20  C   UNL     1      44.822   7.403  11.478  0.00  0.00    +0.000 A 
ATOM     21  C   UNL     1      45.655   6.276  11.367  0.00  0.00    +0.000 A 
ATOM     22  C   UNL     1      46.929   6.340  11.941  0.00  0.00    +0.000 A 
BRANCH  21  23
ATOM     23  C   UNL     1      45.271   5.134  10.528  0.00  0.00    +0.000 A 
ATOM     24  C   UNL     1      45.673   5.112   9.181  0.00  0.00    +0.000 A 
ATOM     25  C   UNL     1      45.390   4.029   8.358  0.00  0.00    +0.000 A 
ATOM     26  C   UNL     1      44.703   2.936   8.873  0.00  0.00    +0.000 A 
ATOM     27  C   UNL     1      44.304   2.926  10.208  0.00  0.00    +0.000 A 
ATOM     28  C   UNL     1      44.584   4.017  11.031  0.00  0.00    +0.000 A 
ENDBRANCH  21  23
ENDBRANCH   1  17
TORSDOF 4
ENDMDL
MODEL 6
REMARK VINA RESULT:    -6.487      3.532      5.904
REMARK INTER + INTRA:          -9.291
REMARK INTER:                  -8.709
REMARK INTRA:                  -0.582
REMARK UNBOUND:                -1.287
REMARK  Name = 
REMARK  4 active torsions:
REMARK  status: ('A' for Active; 'I' for Inactive)
REMARK    1  A    between atoms: C_2  and  C_4
REMARK    2  A    between atoms: N_8  and  C_9
REMARK    3  A    between atoms: C_9  and  C_10
REMARK    4  A    between atoms: C_14  and  C_15
REMARK                            x       y       z     vdW  Elec       q    Type
REMARK                         _______ _______ _______ _____ _____    ______ ____
ROOT
ATOM      1  C   UNL     1      47.499   8.355  13.247  0.00  0.00    +0.000 C 
ATOM      2  C   UNL     1      47.672   9.668  12.494  0.00  0.00    +0.000 C 
ATOM      3  C   UNL     1      48.388   8.448  12.017  0.00  0.00    +0.000 C 
ENDROOT
BRANCH   1   8
ATOM      4  C   UNL     1      44.449   4.516  11.415  0.00  0.00    +0.000 A 
ATOM      5  C   UNL     1      45.509   5.155  10.794  0.00  0.00    +0.000 A 
ATOM      6  C   UNL     1      46.071   6.280  11.392  0.00  0.00    +0.000 A 
ATOM      7  C   UNL     1      45.617   6.699  12.634  0.00  0.00    +0.000 A 
ATOM      8  N   UNL     1      46.107   7.844  13.276  0.00  0.00    +0.000 N 
ATOM      9  N   UNL     1      44.576   6.085  13.242  0.00  0.00    +0.000 NA
ATOM     10  C   UNL     1      43.990   5.028  12.617  0.00  0.00    +0.000 A 
ATOM     11  H   UNL     1      45.668   7.823  14.198  0.00  0.00    +0.000 HD
BRANCH   4  13
ATOM     12  N   UNL     1      44.100   3.141   9.464  0.00  0.00    +0.000 N 
ATOM     13  C   UNL     1      43.771   3.367  10.779  0.00  0.00    +0.000 C 
ATOM     14  O   UNL     1      42.981   2.679  11.380  0.00  0.00    +0.000 OA
ATOM     15  H   UNL     1      43.667   2.345   9.012  0.00  0.00    +0.000 HD
ATOM     16  H   UNL     1      44.882   3.583   9.007  0.00  0.00    +0.000 HD
ENDBRANCH   4  13
ENDBRANCH   1   8
BRANCH   1  17
ATOM     17  C   UNL     1      48.186   8.186  14.590  0.00  0.00    +0.000 A 
ATOM     18  C   UNL     1      48.223   9.242  15.514  0.00  0.00    +0.000 A 
ATOM     19  C   UNL     1      48.639   9.038  16.823  0.00  0.00    +0.000 A 
ATOM     20  C   UNL     1      49.027   7.769  17.228  0.00  0.00    +0.000 A 
ATOM     21  C   UNL     1      49.003   6.681  16.338  0.00  0.00    +0.000 A 
ATOM     22  C   UNL     1      48.628   6.924  15.012  0.00  0.00    +0.000 A 
BRANCH  21  23
ATOM     23  C   UNL     1      49.193   5.308  16.820  0.00  0.00    +0.000 A 
ATOM     24  C   UNL     1      48.148   4.380  16.668  0.00  0.00    +0.000 A 
ATOM     25  C   UNL     1      48.296   3.053  17.051  0.00  0.00    +0.000 A 
ATOM     26  C   UNL     1      49.504   2.623  17.588  0.00  0.00    +0.000 A 
ATOM     27  C   UNL     1      50.561   3.519  17.738  0.00  0.00    +0.000 A 
ATOM     28  C   UNL     1      50.409   4.853  17.358  0.00  0.00    +0.000 A 
ENDBRANCH  21  23
ENDBRANCH   1  17
TORSDOF 4
ENDMDL
MODEL 7
REMARK VINA RESULT:    -6.237      3.355      6.638
REMARK INTER + INTRA:          -8.982
REMARK INTER:                  -8.700
REMARK INTRA:                  -0.282
REMARK UNBOUND:                -1.287
REMARK  Name = 
REMARK  4 active torsions:
REMARK  status: ('A' for Active; 'I' for Inactive)
REMARK    1  A    between atoms: C_2  and  C_4
REMARK    2  A    between atoms: N_8  and  C_9
REMARK    3  A    between atoms: C_9  and  C_10
REMARK    4  A    between atoms: C_14  and  C_15
REMARK                            x       y       z     vdW  Elec       q    Type
REMARK                         _______ _______ _______ _____ _____    ______ ____
ROOT
ATOM      1  C   UNL     1      44.376   6.431  11.822  0.00  0.00    +0.000 C 
ATOM      2  C   UNL     1      44.389   7.462  10.700  0.00  0.00    +0.000 C 
ATOM      3  C   UNL     1      43.128   7.223  11.463  0.00  0.00    +0.000 C 
ENDROOT
BRANCH   1   8
ATOM      4  C   UNL     1      49.211   8.147  12.857  0.00  0.00    +0.000 A 
ATOM      5  C   UNL     1      48.775   7.364  11.801  0.00  0.00    +0.000 A 
ATOM      6  C   UNL     1      47.474   6.867  11.815  0.00  0.00    +0.000 A 
ATOM      7  C   UNL     1      46.611   7.224  12.840  0.00  0.00    +0.000 A 
ATOM      8  N   UNL     1      45.303   6.731  12.940  0.00  0.00    +0.000 N 
ATOM      9  N   UNL     1      47.034   7.981  13.879  0.00  0.00    +0.000 NA
ATOM     10  C   UNL     1      48.326   8.406  13.890  0.00  0.00    +0.000 A 
ATOM     11  H   UNL     1      44.895   7.253  13.718  0.00  0.00    +0.000 HD
BRANCH   4  13
ATOM     12  N   UNL     1      51.440   7.917  13.751  0.00  0.00    +0.000 N 
ATOM     13  C   UNL     1      50.606   8.630  12.923  0.00  0.00    +0.000 C 
ATOM     14  O   UNL     1      50.982   9.589  12.291  0.00  0.00    +0.000 OA
ATOM     15  H   UNL     1      52.408   8.213  13.796  0.00  0.00    +0.000 HD
ATOM     16  H   UNL     1      51.197   7.018  14.137  0.00  0.00    +0.000 HD
ENDBRANCH   4  13
ENDBRANCH   1   8
BRANCH   1  17
ATOM     17  C   UNL     1      44.391   4.957  11.461  0.00  0.00    +0.000 A 
ATOM     18  C   UNL     1      43.460   4.072  12.026  0.00  0.00    +0.000 A 
ATOM     19  C   UNL     1      43.311   2.779  11.540  0.00  0.00    +0.000 A 
ATOM     20  C   UNL     1      44.094   2.352  10.477  0.00  0.00    +0.000 A 
ATOM     21  C   UNL     1      45.037   3.207   9.878  0.00  0.00    +0.000 A 
ATOM     22  C   UNL     1      45.203   4.486  10.419  0.00  0.00    +0.000 A 
BRANCH  21  23
ATOM     23  C   UNL     1      45.698   2.836   8.621  0.00  0.00    +0.000 A 
ATOM     24  C   UNL     1      45.994   3.841   7.683  0.00  0.00    +0.000 A 
ATOM     25  C   UNL     1      46.672   3.556   6.505  0.00  0.00    +0.000 A 
ATOM     26  C   UNL     1      47.080   2.253   6.246  0.00  0.00    +0.000 A 
ATOM     27  C   UNL     1      46.812   1.240   7.164  0.00  0.00    +0.000 A 
ATOM     28  C   UNL     1      46.125   1.527   8.344  0.00  0.00    +0.000 A 
ENDBRANCH  21  23
ENDBRANCH   1  17
TORSDOF 4
ENDMDL
