MODEL 1
REMARK VINA RESULT:    -7.301      0.000      0.000
REMARK INTER + INTRA:         -10.835
REMARK INTER:                  -9.862
REMARK INTRA:                  -0.973
REMARK UNBOUND:                -0.973
REMARK  Name = 
REMARK  7 active torsions:
REMARK  status: ('A' for Active; 'I' for Inactive)
REMARK    1  A    between atoms: C_1  and  C_2
REMARK    2  A    between atoms: C_5  and  C_6
REMARK    3  A    between atoms: N_8  and  C_9
REMARK    4  A    between atoms: C_9  and  C_10
REMARK    5  A    between atoms: C_13  and  C_14
REMARK    6  A    between atoms: C_14  and  N_15
REMARK    7  A    between atoms: C_16  and  C_18
REMARK                            x       y       z     vdW  Elec       q    Type
REMARK                         _______ _______ _______ _____ _____    ______ ____
ROOT
ATOM      1  C   UNL     1      49.939   8.418  14.060  0.00  0.00    +0.000 C 
ATOM      2  C   UNL     1      49.765   7.392  12.931  0.00  0.00    +0.000 C 
ATOM      3  C   UNL     1      48.294   7.147  12.596  0.00  0.00    +0.000 C 
ATOM      4  C   UNL     1      47.560   8.449  12.226  0.00  0.00    +0.000 C 
ATOM      5  C   UNL     1      47.790   9.554  13.272  0.00  0.00    +0.000 C 
ATOM      6  C   UNL     1      49.262   9.734  13.642  0.00  0.00    +0.000 C 
ENDROOT
BRANCH   1   7
ATOM      7  C   UNL     1      49.402   7.905  15.412  0.00  0.00    +0.000 C 
BRANCH   7  10
ATOM      8  C   UNL     1      49.552   5.938  16.911  0.00  0.00    +0.000 C 
ATOM      9  O   UNL     1      48.712   6.367  17.696  0.00  0.00    +0.000 OA
ATOM     10  N   UNL     1      49.934   6.606  15.768  0.00  0.00    +0.000 N 
ATOM     11  H   UNL     1      50.666   6.170  15.215  0.00  0.00    +0.000 HD
BRANCH   8  16
ATOM     12  C   UNL     1      52.016   0.831  17.786  0.00  0.00    +0.000 C 
ATOM     13  C   UNL     1      51.410   2.182  17.567  0.00  0.00    +0.000 A 
ATOM     14  C   UNL     1      52.116   3.351  17.856  0.00  0.00    +0.000 A 
ATOM     15  C   UNL     1      51.514   4.587  17.640  0.00  0.00    +0.000 A 
ATOM     16  C   UNL     1      50.219   4.618  17.144  0.00  0.00    +0.000 A 
ATOM     17  N   UNL     1      49.493   3.497  16.850  0.00  0.00    +0.000 NA
ATOM     18  C   UNL     1      50.115   2.314  17.070  0.00  0.00    +0.000 A 
ENDBRANCH   8  16
ENDBRANCH   7  10
ENDBRANCH   1   7
BRANCH   4  19
ATOM     19  C   UNL     1      46.047   8.222  12.062  0.00  0.00    +0.000 C 
BRANCH  19  20
ATOM     20  N   UNL     1      45.704   6.836  11.843  0.00  0.00    +0.000 N 
ATOM     21  C   UNL     1      44.449   6.428  11.469  0.00  0.00    +0.000 C 
ATOM     22  O   UNL     1      43.525   7.219  11.302  0.00  0.00    +0.000 OA
ATOM     23  H   UNL     1      46.397   6.143  12.106  0.00  0.00    +0.000 HD
BRANCH  21  24
ATOM     24  C   UNL     1      44.288   4.993  11.209  0.00  0.00    +0.000 A 
ATOM     25  C   UNL     1      43.555   4.214  12.094  0.00  0.00    +0.000 A 
ATOM     26  S   UNL     1      43.414   2.584  11.614  0.00  0.00    +0.000 S 
ATOM     27  C   UNL     1      44.369   2.851  10.230  0.00  0.00    +0.000 A 
ATOM     28  N   UNL     1      44.655   1.836   9.373  0.00  0.00    +0.000 NA
ATOM     29  C   UNL     1      45.420   2.170   8.386  0.00  0.00    +0.000 A 
ATOM     30  N   UNL     1      45.921   3.429   8.180  0.00  0.00    +0.000 N 
ATOM     31  C   UNL     1      45.619   4.494   8.992  0.00  0.00    +0.000 A 
ATOM     32  O   UNL     1      46.021   5.625   8.731  0.00  0.00    +0.000 OA
ATOM     33  C   UNL     1      44.780   4.169  10.130  0.00  0.00    +0.000 A 
ATOM     34  H   UNL     1      46.502   3.628   7.380  0.00  0.00    +0.000 HD
ENDBRANCH  21  24
ENDBRANCH  19  20
ENDBRANCH   4  19
TORSDOF 6
ENDMDL
MODEL 2
REMARK VINA RESULT:    -7.199      3.059      5.810
REMARK INTER + INTRA:         -10.697
REMARK INTER:                  -9.708
REMARK INTRA:                  -0.990
REMARK UNBOUND:                -0.973
REMARK  Name = 
REMARK  7 active torsions:
REMARK  status: ('A' for Active; 'I' for Inactive)
REMARK    1  A    between atoms: C_1  and  C_2
REMARK    2  A    between atoms: C_5  and  C_6
REMARK    3  A    between atoms: N_8  and  C_9
REMARK    4  A    between atoms: C_9  and  C_10
REMARK    5  A    between atoms: C_13  and  C_14
REMARK    6  A    between atoms: C_14  and  N_15
REMARK    7  A    between atoms: C_16  and  C_18
REMARK                            x       y       z     vdW  Elec       q    Type
REMARK                         _______ _______ _______ _____ _____    ______ ____
ROOT
ATOM      1  C   UNL     1      48.912   5.639  20.076  0.00  0.00    +0.000 C 
ATOM      2  C   UNL     1      47.602   6.143  19.453  0.00  0.00    +0.000 C 
ATOM      3  C   UNL     1      47.382   5.591  18.046  0.00  0.00    +0.000 C 
ATOM      4  C   UNL     1      47.406   4.051  18.019  0.00  0.00    +0.000 C 
ATOM      5  C   UNL     1      48.648   3.484  18.729  0.00  0.00    +0.000 C 
ATOM      6  C   UNL     1      48.886   4.102  20.106  0.00  0.00    +0.000 C 
ENDROOT
BRANCH   1   7
ATOM      7  C   UNL     1      50.159   6.174  19.342  0.00  0.00    +0.000 C 
BRANCH   7  10
ATOM      8  C   UNL     1      50.150   6.574  16.897  0.00  0.00    +0.000 C 
ATOM      9  O   UNL     1      50.713   5.515  16.636  0.00  0.00    +0.000 OA
ATOM     10  N   UNL     1      49.825   6.966  18.177  0.00  0.00    +0.000 N 
ATOM     11  H   UNL     1      49.395   7.882  18.271  0.00  0.00    +0.000 HD
BRANCH   8  16
ATOM     12  C   UNL     1      48.719  10.177  12.667  0.00  0.00    +0.000 C 
ATOM     13  C   UNL     1      49.060   9.252  13.793  0.00  0.00    +0.000 A 
ATOM     14  C   UNL     1      48.400   9.328  15.021  0.00  0.00    +0.000 A 
ATOM     15  C   UNL     1      48.751   8.450  16.043  0.00  0.00    +0.000 A 
ATOM     16  C   UNL     1      49.755   7.523  15.807  0.00  0.00    +0.000 A 
ATOM     17  N   UNL     1      50.426   7.417  14.621  0.00  0.00    +0.000 NA
ATOM     18  C   UNL     1      50.053   8.286  13.650  0.00  0.00    +0.000 A 
ENDBRANCH   8  16
ENDBRANCH   7  10
ENDBRANCH   1   7
BRANCH   4  19
ATOM     19  C   UNL     1      47.359   3.506  16.580  0.00  0.00    +0.000 C 
BRANCH  19  20
ATOM     20  N   UNL     1      46.841   4.463  15.631  0.00  0.00    +0.000 N 
ATOM     21  C   UNL     1      46.775   4.216  14.283  0.00  0.00    +0.000 C 
ATOM     22  O   UNL     1      47.164   3.161  13.790  0.00  0.00    +0.000 OA
ATOM     23  H   UNL     1      46.641   5.396  15.978  0.00  0.00    +0.000 HD
BRANCH  21  24
ATOM     24  C   UNL     1      46.147   5.260  13.465  0.00  0.00    +0.000 A 
ATOM     25  C   UNL     1      46.823   6.451  13.235  0.00  0.00    +0.000 A 
ATOM     26  S   UNL     1      45.982   7.529  12.218  0.00  0.00    +0.000 S 
ATOM     27  C   UNL     1      44.661   6.462  12.087  0.00  0.00    +0.000 A 
ATOM     28  N   UNL     1      43.567   6.793  11.352  0.00  0.00    +0.000 NA
ATOM     29  C   UNL     1      42.624   5.908  11.371  0.00  0.00    +0.000 A 
ATOM     30  N   UNL     1      42.681   4.722  12.056  0.00  0.00    +0.000 N 
ATOM     31  C   UNL     1      43.784   4.326  12.771  0.00  0.00    +0.000 A 
ATOM     32  O   UNL     1      43.831   3.221  13.306  0.00  0.00    +0.000 OA
ATOM     33  C   UNL     1      44.865   5.294  12.802  0.00  0.00    +0.000 A 
ATOM     34  H   UNL     1      41.915   4.067  12.017  0.00  0.00    +0.000 HD
ENDBRANCH  21  24
ENDBRANCH  19  20
ENDBRANCH   4  19
TORSDOF 6
ENDMDL
MODEL 3
REMARK VINA RESULT:    -7.162      2.824      4.707
REMARK INTER + INTRA:         -10.647
REMARK INTER:                  -9.772
REMARK INTRA:                  -0.875
REMARK UNBOUND:                -0.973
REMARK  Name = 
REMARK  7 active torsions:
REMARK  status: ('A' for Active; 'I' for Inactive)
REMARK    1  A    between atoms: C_1  and  C_2
REMARK    2  A    between atoms: C_5  and  C_6
REMARK    3  A    between atoms: N_8  and  C_9
REMARK    4  A    between atoms: C_9  and  C_10
REMARK    5  A    between atoms: C_13  and  C_14
REMARK    6  A    between atoms: C_14  and  N_15
REMARK    7  A    between atoms: C_16  and  C_18
REMARK                            x       y       z     vdW  Elec       q    Type
REMARK                         _______ _______ _______ _____ _____    ______ ____
ROOT
ATOM      1  C   UNL     1      49.280   4.863  19.884  0.00  0.00    +0.000 C 
ATOM      2  C   UNL     1      48.454   6.133  19.633  0.00  0.00    +0.000 C 
ATOM      3  C   UNL     1      48.640   6.671  18.214  0.00  0.00    +0.000 C 
ATOM      4  C   UNL     1      48.298   5.615  17.146  0.00  0.00    +0.000 C 
ATOM      5  C   UNL     1      49.015   4.279  17.410  0.00  0.00    +0.000 C 
ATOM      6  C   UNL     1      48.873   3.797  18.854  0.00  0.00    +0.000 C 
ENDROOT
BRANCH   1   7
ATOM      7  C   UNL     1      50.799   5.131  19.857  0.00  0.00    +0.000 C 
BRANCH   7  10
ATOM      8  C   UNL     1      52.461   4.159  18.298  0.00  0.00    +0.000 C 
ATOM      9  O   UNL     1      52.729   5.237  17.777  0.00  0.00    +0.000 OA
ATOM     10  N   UNL     1      51.553   4.016  19.325  0.00  0.00    +0.000 N 
ATOM     11  H   UNL     1      51.387   3.067  19.648  0.00  0.00    +0.000 HD
BRANCH   8  16
ATOM     12  C   UNL     1      55.129  -0.607  16.543  0.00  0.00    +0.000 C 
ATOM     13  C   UNL     1      54.399   0.612  17.011  0.00  0.00    +0.000 A 
ATOM     14  C   UNL     1      53.057   0.556  17.391  0.00  0.00    +0.000 A 
ATOM     15  C   UNL     1      52.416   1.715  17.817  0.00  0.00    +0.000 A 
ATOM     16  C   UNL     1      53.136   2.900  17.848  0.00  0.00    +0.000 A 
ATOM     17  N   UNL     1      54.449   2.998  17.483  0.00  0.00    +0.000 NA
ATOM     18  C   UNL     1      55.039   1.848  17.077  0.00  0.00    +0.000 A 
ENDBRANCH   8  16
ENDBRANCH   7  10
ENDBRANCH   1   7
BRANCH   4  19
ATOM     19  C   UNL     1      48.652   6.103  15.730  0.00  0.00    +0.000 C 
BRANCH  19  20
ATOM     20  N   UNL     1      47.525   6.086  14.828  0.00  0.00    +0.000 N 
ATOM     21  C   UNL     1      47.659   6.165  13.466  0.00  0.00    +0.000 C 
ATOM     22  O   UNL     1      48.754   6.266  12.918  0.00  0.00    +0.000 OA
ATOM     23  H   UNL     1      46.601   6.145  15.243  0.00  0.00    +0.000 HD
BRANCH  21  24
ATOM     24  C   UNL     1      46.420   6.053  12.687  0.00  0.00    +0.000 A 
ATOM     25  C   UNL     1      45.901   7.176  12.057  0.00  0.00    +0.000 A 
ATOM     26  S   UNL     1      44.495   6.860  11.147  0.00  0.00    +0.000 S 
ATOM     27  C   UNL     1      44.501   5.220  11.602  0.00  0.00    +0.000 A 
ATOM     28  N   UNL     1      43.532   4.371  11.168  0.00  0.00    +0.000 NA
ATOM     29  C   UNL     1      43.637   3.165  11.621  0.00  0.00    +0.000 A 
ATOM     30  N   UNL     1      44.627   2.733  12.465  0.00  0.00    +0.000 N 
ATOM     31  C   UNL     1      45.651   3.541  12.890  0.00  0.00    +0.000 A 
ATOM     32  O   UNL     1      46.565   3.099  13.582  0.00  0.00    +0.000 OA
ATOM     33  C   UNL     1      45.569   4.915  12.429  0.00  0.00    +0.000 A 
ATOM     34  H   UNL     1      44.660   1.771  12.771  0.00  0.00    +0.000 HD
ENDBRANCH  21  24
ENDBRANCH  19  20
ENDBRANCH   4  19
TORSDOF 6
ENDMDL
MODEL 4
REMARK VINA RESULT:    -6.974      2.459      3.597
REMARK INTER + INTRA:         -10.393
REMARK INTER:                  -9.215
REMARK INTRA:                  -1.178
REMARK UNBOUND:                -0.973
REMARK  Name = 
REMARK  7 active torsions:
REMARK  status: ('A' for Active; 'I' for Inactive)
REMARK    1  A    between atoms: C_1  and  C_2
REMARK    2  A    between atoms: C_5  and  C_6
REMARK    3  A    between atoms: N_8  and  C_9
REMARK    4  A    between atoms: C_9  and  C_10
REMARK    5  A    between atoms: C_13  and  C_14
REMARK    6  A    between atoms: C_14  and  N_15
REMARK    7  A    between atoms: C_16  and  C_18
REMARK                            x       y       z     vdW  Elec       q    Type
REMARK                         _______ _______ _______ _____ _____    ______ ____
ROOT
ATOM      1  C   UNL     1      49.216   8.042  18.736  0.00  0.00    +0.000 C 
ATOM      2  C   UNL     1      50.457   8.255  17.857  0.00  0.00    +0.000 C 
ATOM      3  C   UNL     1      50.100   8.388  16.377  0.00  0.00    +0.000 C 
ATOM      4  C   UNL     1      49.089   9.523  16.126  0.00  0.00    +0.000 C 
ATOM      5  C   UNL     1      47.870   9.423  17.060  0.00  0.00    +0.000 C 
ATOM      6  C   UNL     1      48.252   9.221  18.526  0.00  0.00    +0.000 C 
ENDROOT
BRANCH   1   7
ATOM      7  C   UNL     1      48.528   6.688  18.467  0.00  0.00    +0.000 C 
BRANCH   7  10
ATOM      8  C   UNL     1      49.627   4.776  17.338  0.00  0.00    +0.000 C 
ATOM      9  O   UNL     1      49.029   4.949  16.280  0.00  0.00    +0.000 OA
ATOM     10  N   UNL     1      49.461   5.581  18.443  0.00  0.00    +0.000 N 
ATOM     11  H   UNL     1      49.983   5.316  19.274  0.00  0.00    +0.000 HD
BRANCH   8  16
ATOM     12  C   UNL     1      53.333   0.431  17.886  0.00  0.00    +0.000 C 
ATOM     13  C   UNL     1      52.396   1.591  17.757  0.00  0.00    +0.000 A 
ATOM     14  C   UNL     1      52.740   2.859  18.229  0.00  0.00    +0.000 A 
ATOM     15  C   UNL     1      51.837   3.909  18.092  0.00  0.00    +0.000 A 
ATOM     16  C   UNL     1      50.613   3.660  17.489  0.00  0.00    +0.000 A 
ATOM     17  N   UNL     1      50.238   2.434  17.016  0.00  0.00    +0.000 NA
ATOM     18  C   UNL     1      51.145   1.438  17.164  0.00  0.00    +0.000 A 
ENDBRANCH   8  16
ENDBRANCH   7  10
ENDBRANCH   1   7
BRANCH   4  19
ATOM     19  C   UNL     1      48.602   9.538  14.666  0.00  0.00    +0.000 C 
BRANCH  19  20
ATOM     20  N   UNL     1      47.712   8.444  14.356  0.00  0.00    +0.000 N 
ATOM     21  C   UNL     1      47.535   7.965  13.084  0.00  0.00    +0.000 C 
ATOM     22  O   UNL     1      48.118   8.443  12.115  0.00  0.00    +0.000 OA
ATOM     23  H   UNL     1      47.109   8.115  15.103  0.00  0.00    +0.000 HD
BRANCH  21  24
ATOM     24  C   UNL     1      46.657   6.796  12.951  0.00  0.00    +0.000 A 
ATOM     25  C   UNL     1      47.060   5.573  13.470  0.00  0.00    +0.000 A 
ATOM     26  S   UNL     1      45.901   4.337  13.285  0.00  0.00    +0.000 S 
ATOM     27  C   UNL     1      44.838   5.381  12.460  0.00  0.00    +0.000 A 
ATOM     28  N   UNL     1      43.639   4.936  12.001  0.00  0.00    +0.000 NA
ATOM     29  C   UNL     1      42.950   5.823  11.360  0.00  0.00    +0.000 A 
ATOM     30  N   UNL     1      43.354   7.114  11.142  0.00  0.00    +0.000 N 
ATOM     31  C   UNL     1      44.533   7.620  11.629  0.00  0.00    +0.000 A 
ATOM     32  O   UNL     1      44.825   8.804  11.484  0.00  0.00    +0.000 OA
ATOM     33  C   UNL     1      45.357   6.658  12.338  0.00  0.00    +0.000 A 
ATOM     34  H   UNL     1      42.760   7.763  10.646  0.00  0.00    +0.000 HD
ENDBRANCH  21  24
ENDBRANCH  19  20
ENDBRANCH   4  19
TORSDOF 6
ENDMDL
MODEL 5
REMARK VINA RESULT:    -6.967      1.720      2.195
REMARK INTER + INTRA:         -10.383
REMARK INTER:                  -9.827
REMARK INTRA:                  -0.557
REMARK UNBOUND:                -0.973
REMARK  Name = 
REMARK  7 active torsions:
REMARK  status: ('A' for Active; 'I' for Inactive)
REMARK    1  A    between atoms: C_1  and  C_2
REMARK    2  A    between atoms: C_5  and  C_6
REMARK    3  A    between atoms: N_8  and  C_9
REMARK    4  A    between atoms: C_9  and  C_10
REMARK    5  A    between atoms: C_13  and  C_14
REMARK    6  A    between atoms: C_14  and  N_15
REMARK    7  A    between atoms: C_16  and  C_18
REMARK                            x       y       z     vdW  Elec       q    Type
REMARK                         _______ _______ _______ _____ _____    ______ ____
ROOT
ATOM      1  C   UNL     1      50.579   9.022  12.060  0.00  0.00    +0.000 C 
ATOM      2  C   UNL     1      49.976   7.750  11.449  0.00  0.00    +0.000 C 
ATOM      3  C   UNL     1      48.655   7.360  12.112  0.00  0.00    +0.000 C 
ATOM      4  C   UNL     1      47.620   8.499  12.054  0.00  0.00    +0.000 C 
ATOM      5  C   UNL     1      48.206   9.831  12.555  0.00  0.00    +0.000 C 
ATOM      6  C   UNL     1      49.559  10.166  11.928  0.00  0.00    +0.000 C 
ENDROOT
BRANCH   1   7
ATOM      7  C   UNL     1      51.022   8.821  13.524  0.00  0.00    +0.000 C 
BRANCH   7  10
ATOM      8  C   UNL     1      49.664   7.778  15.314  0.00  0.00    +0.000 C 
ATOM      9  O   UNL     1      49.466   8.839  15.898  0.00  0.00    +0.000 OA
ATOM     10  N   UNL     1      50.389   7.677  14.148  0.00  0.00    +0.000 N 
ATOM     11  H   UNL     1      50.518   6.740  13.778  0.00  0.00    +0.000 HD
BRANCH   8  16
ATOM     12  C   UNL     1      47.577   2.855  17.395  0.00  0.00    +0.000 C 
ATOM     13  C   UNL     1      48.089   4.140  16.824  0.00  0.00    +0.000 A 
ATOM     14  C   UNL     1      47.528   4.701  15.675  0.00  0.00    +0.000 A 
ATOM     15  C   UNL     1      48.038   5.896  15.176  0.00  0.00    +0.000 A 
ATOM     16  C   UNL     1      49.099   6.495  15.840  0.00  0.00    +0.000 A 
ATOM     17  N   UNL     1      49.677   5.978  16.965  0.00  0.00    +0.000 NA
ATOM     18  C   UNL     1      49.151   4.816  17.422  0.00  0.00    +0.000 A 
ENDBRANCH   8  16
ENDBRANCH   7  10
ENDBRANCH   1   7
BRANCH   4  19
ATOM     19  C   UNL     1      46.361   8.166  12.873  0.00  0.00    +0.000 C 
BRANCH  19  20
ATOM     20  N   UNL     1      45.848   6.842  12.607  0.00  0.00    +0.000 N 
ATOM     21  C   UNL     1      44.855   6.597  11.694  0.00  0.00    +0.000 C 
ATOM     22  O   UNL     1      44.326   7.493  11.043  0.00  0.00    +0.000 OA
ATOM     23  H   UNL     1      46.158   6.096  13.221  0.00  0.00    +0.000 HD
BRANCH  21  24
ATOM     24  C   UNL     1      44.505   5.187  11.484  0.00  0.00    +0.000 A 
ATOM     25  C   UNL     1      43.799   4.502  12.465  0.00  0.00    +0.000 A 
ATOM     26  S   UNL     1      43.421   2.896  12.038  0.00  0.00    +0.000 S 
ATOM     27  C   UNL     1      44.230   3.042  10.547  0.00  0.00    +0.000 A 
ATOM     28  N   UNL     1      44.297   1.995   9.683  0.00  0.00    +0.000 NA
ATOM     29  C   UNL     1      44.974   2.233   8.608  0.00  0.00    +0.000 A 
ATOM     30  N   UNL     1      45.584   3.426   8.319  0.00  0.00    +0.000 N 
ATOM     31  C   UNL     1      45.501   4.525   9.138  0.00  0.00    +0.000 A 
ATOM     32  O   UNL     1      45.993   5.601   8.809  0.00  0.00    +0.000 OA
ATOM     33  C   UNL     1      44.771   4.305  10.373  0.00  0.00    +0.000 A 
ATOM     34  H   UNL     1      46.086   3.552   7.452  0.00  0.00    +0.000 HD
ENDBRANCH  21  24
ENDBRANCH  19  20
ENDBRANCH   4  19
TORSDOF 6
ENDMDL
MODEL 6
REMARK VINA RESULT:    -6.582      3.179      7.683
REMARK INTER + INTRA:          -9.864
REMARK INTER:                  -8.167
REMARK INTRA:                  -1.697
REMARK UNBOUND:                -0.973
REMARK  Name = 
REMARK  7 active torsions:
REMARK  status: ('A' for Active; 'I' for Inactive)
REMARK    1  A    between atoms: C_1  and  C_2
REMARK    2  A    between atoms: C_5  and  C_6
REMARK    3  A    between atoms: N_8  and  C_9
REMARK    4  A    between atoms: C_9  and  C_10
REMARK    5  A    between atoms: C_13  and  C_14
REMARK    6  A    between atoms: C_14  and  N_15
REMARK    7  A    between atoms: C_16  and  C_18
REMARK                            x       y       z     vdW  Elec       q    Type
REMARK                         _______ _______ _______ _____ _____    ______ ____
ROOT
ATOM      1  C   UNL     1      50.095   9.313  12.593  0.00  0.00    +0.000 C 
ATOM      2  C   UNL     1      49.335   9.670  13.879  0.00  0.00    +0.000 C 
ATOM      3  C   UNL     1      49.899   8.948  15.102  0.00  0.00    +0.000 C 
ATOM      4  C   UNL     1      51.401   9.228  15.297  0.00  0.00    +0.000 C 
ATOM      5  C   UNL     1      52.201   8.992  14.004  0.00  0.00    +0.000 C 
ATOM      6  C   UNL     1      51.580   9.667  12.782  0.00  0.00    +0.000 C 
ENDROOT
BRANCH   1   7
ATOM      7  C   UNL     1      49.908   7.837  12.187  0.00  0.00    +0.000 C 
BRANCH   7  10
ATOM      8  C   UNL     1      47.953   6.492  12.899  0.00  0.00    +0.000 C 
ATOM      9  O   UNL     1      48.572   5.906  13.782  0.00  0.00    +0.000 OA
ATOM     10  N   UNL     1      48.515   7.456  12.091  0.00  0.00    +0.000 N 
ATOM     11  H   UNL     1      47.913   7.843  11.370  0.00  0.00    +0.000 HD
BRANCH   8  16
ATOM     12  C   UNL     1      42.402   5.452  11.890  0.00  0.00    +0.000 C 
ATOM     13  C   UNL     1      43.851   5.689  12.179  0.00  0.00    +0.000 A 
ATOM     14  C   UNL     1      44.531   4.947  13.147  0.00  0.00    +0.000 A 
ATOM     15  C   UNL     1      45.878   5.204  13.386  0.00  0.00    +0.000 A 
ATOM     16  C   UNL     1      46.506   6.198  12.651  0.00  0.00    +0.000 A 
ATOM     17  N   UNL     1      45.877   6.948  11.697  0.00  0.00    +0.000 NA
ATOM     18  C   UNL     1      44.567   6.666  11.491  0.00  0.00    +0.000 A 
ENDBRANCH   8  16
ENDBRANCH   7  10
ENDBRANCH   1   7
BRANCH   4  19
ATOM     19  C   UNL     1      52.000   8.364  16.422  0.00  0.00    +0.000 C 
BRANCH  19  20
ATOM     20  N   UNL     1      51.430   7.038  16.478  0.00  0.00    +0.000 N 
ATOM     21  C   UNL     1      51.645   6.179  17.525  0.00  0.00    +0.000 C 
ATOM     22  O   UNL     1      52.347   6.478  18.487  0.00  0.00    +0.000 OA
ATOM     23  H   UNL     1      50.961   6.701  15.644  0.00  0.00    +0.000 HD
BRANCH  21  24
ATOM     24  C   UNL     1      50.928   4.899  17.468  0.00  0.00    +0.000 A 
ATOM     25  C   UNL     1      51.645   3.710  17.473  0.00  0.00    +0.000 A 
ATOM     26  S   UNL     1      50.661   2.318  17.463  0.00  0.00    +0.000 S 
ATOM     27  C   UNL     1      49.241   3.255  17.402  0.00  0.00    +0.000 A 
ATOM     28  N   UNL     1      48.017   2.666  17.357  0.00  0.00    +0.000 NA
ATOM     29  C   UNL     1      47.028   3.495  17.275  0.00  0.00    +0.000 A 
ATOM     30  N   UNL     1      47.156   4.859  17.237  0.00  0.00    +0.000 N 
ATOM     31  C   UNL     1      48.367   5.498  17.329  0.00  0.00    +0.000 A 
ATOM     32  O   UNL     1      48.437   6.724  17.373  0.00  0.00    +0.000 OA
ATOM     33  C   UNL     1      49.514   4.612  17.401  0.00  0.00    +0.000 A 
ATOM     34  H   UNL     1      46.340   5.452  17.187  0.00  0.00    +0.000 HD
ENDBRANCH  21  24
ENDBRANCH  19  20
ENDBRANCH   4  19
TORSDOF 6
ENDMDL
MODEL 7
REMARK VINA RESULT:    -6.430      2.181      2.672
REMARK INTER + INTRA:          -9.658
REMARK INTER:                  -8.229
REMARK INTRA:                  -1.429
REMARK UNBOUND:                -0.973
REMARK  Name = 
REMARK  7 active torsions:
REMARK  status: ('A' for Active; 'I' for Inactive)
REMARK    1  A    between atoms: C_1  and  C_2
REMARK    2  A    between atoms: C_5  and  C_6
REMARK    3  A    between atoms: N_8  and  C_9
REMARK    4  A    between atoms: C_9  and  C_10
REMARK    5  A    between atoms: C_13  and  C_14
REMARK    6  A    between atoms: C_14  and  N_15
REMARK    7  A    between atoms: C_16  and  C_18
REMARK                            x       y       z     vdW  Elec       q    Type
REMARK                         _______ _______ _______ _____ _____    ______ ____
ROOT
ATOM      1  C   UNL     1      51.033   9.201  15.009  0.00  0.00    +0.000 C 
ATOM      2  C   UNL     1      51.014   8.454  13.668  0.00  0.00    +0.000 C 
ATOM      3  C   UNL     1      49.637   8.490  13.006  0.00  0.00    +0.000 C 
ATOM      4  C   UNL     1      49.132   9.930  12.800  0.00  0.00    +0.000 C 
ATOM      5  C   UNL     1      49.230  10.762  14.090  0.00  0.00    +0.000 C 
ATOM      6  C   UNL     1      50.594  10.656  14.771  0.00  0.00    +0.000 C 
ENDROOT
BRANCH   1   7
ATOM      7  C   UNL     1      50.163   8.512  16.081  0.00  0.00    +0.000 C 
BRANCH   7  10
ATOM      8  C   UNL     1      49.742   6.234  16.961  0.00  0.00    +0.000 C 
ATOM      9  O   UNL     1      48.601   6.496  17.329  0.00  0.00    +0.000 OA
ATOM     10  N   UNL     1      50.563   7.143  16.330  0.00  0.00    +0.000 N 
ATOM     11  H   UNL     1      51.501   6.822  16.107  0.00  0.00    +0.000 HD
BRANCH   8  16
ATOM     12  C   UNL     1      51.863   0.961  17.738  0.00  0.00    +0.000 C 
ATOM     13  C   UNL     1      51.349   2.352  17.538  0.00  0.00    +0.000 A 
ATOM     14  C   UNL     1      52.185   3.462  17.671  0.00  0.00    +0.000 A 
ATOM     15  C   UNL     1      51.665   4.738  17.480  0.00  0.00    +0.000 A 
ATOM     16  C   UNL     1      50.321   4.868  17.164  0.00  0.00    +0.000 A 
ATOM     17  N   UNL     1      49.469   3.809  17.027  0.00  0.00    +0.000 NA
ATOM     18  C   UNL     1      50.013   2.582  17.217  0.00  0.00    +0.000 A 
ENDBRANCH   8  16
ENDBRANCH   7  10
ENDBRANCH   1   7
BRANCH   4  19
ATOM     19  C   UNL     1      47.678   9.956  12.296  0.00  0.00    +0.000 C 
BRANCH  19  20
ATOM     20  N   UNL     1      47.092   8.640  12.195  0.00  0.00    +0.000 N 
ATOM     21  C   UNL     1      45.776   8.386  12.485  0.00  0.00    +0.000 C 
ATOM     22  O   UNL     1      45.005   9.264  12.862  0.00  0.00    +0.000 OA
ATOM     23  H   UNL     1      47.725   7.865  12.023  0.00  0.00    +0.000 HD
BRANCH  21  24
ATOM     24  C   UNL     1      45.318   7.011  12.253  0.00  0.00    +0.000 A 
ATOM     25  C   UNL     1      44.213   6.783  11.444  0.00  0.00    +0.000 A 
ATOM     26  S   UNL     1      43.851   5.131  11.229  0.00  0.00    +0.000 S 
ATOM     27  C   UNL     1      45.131   4.662  12.249  0.00  0.00    +0.000 A 
ATOM     28  N   UNL     1      45.371   3.350  12.510  0.00  0.00    +0.000 NA
ATOM     29  C   UNL     1      46.348   3.138  13.329  0.00  0.00    +0.000 A 
ATOM     30  N   UNL     1      47.107   4.122  13.908  0.00  0.00    +0.000 N 
ATOM     31  C   UNL     1      46.932   5.456  13.637  0.00  0.00    +0.000 A 
ATOM     32  O   UNL     1      47.683   6.305  14.111  0.00  0.00    +0.000 OA
ATOM     33  C   UNL     1      45.831   5.751  12.738  0.00  0.00    +0.000 A 
ATOM     34  H   UNL     1      47.867   3.889  14.529  0.00  0.00    +0.000 HD
ENDBRANCH  21  24
ENDBRANCH  19  20
ENDBRANCH   4  19
TORSDOF 6
ENDMDL
MODEL 8
REMARK VINA RESULT:    -6.422      3.240      7.552
REMARK INTER + INTRA:          -9.648
REMARK INTER:                  -7.977
REMARK INTRA:                  -1.670
REMARK UNBOUND:                -0.973
REMARK  Name = 
REMARK  7 active torsions:
REMARK  status: ('A' for Active; 'I' for Inactive)
REMARK    1  A    between atoms: C_1  and  C_2
REMARK    2  A    between atoms: C_5  and  C_6
REMARK    3  A    between atoms: N_8  and  C_9
REMARK    4  A    between atoms: C_9  and  C_10
REMARK    5  A    between atoms: C_13  and  C_14
REMARK    6  A    between atoms: C_14  and  N_15
REMARK    7  A    between atoms: C_16  and  C_18
REMARK                            x       y       z     vdW  Elec       q    Type
REMARK                         _______ _______ _______ _____ _____    ______ ____
ROOT
ATOM      1  C   UNL     1      49.939  10.321  15.631  0.00  0.00    +0.000 C 
ATOM      2  C   UNL     1      48.490  10.201  16.123  0.00  0.00    +0.000 C 
ATOM      3  C   UNL     1      48.333   9.130  17.202  0.00  0.00    +0.000 C 
ATOM      4  C   UNL     1      49.266   9.379  18.403  0.00  0.00    +0.000 C 
ATOM      5  C   UNL     1      50.720   9.616  17.959  0.00  0.00    +0.000 C 
ATOM      6  C   UNL     1      50.845  10.640  16.832  0.00  0.00    +0.000 C 
ENDROOT
BRANCH   1   7
ATOM      7  C   UNL     1      50.414   9.060  14.878  0.00  0.00    +0.000 C 
BRANCH   7  10
ATOM      8  C   UNL     1      49.011   7.085  14.358  0.00  0.00    +0.000 C 
ATOM      9  O   UNL     1      49.564   6.369  15.187  0.00  0.00    +0.000 OA
ATOM     10  N   UNL     1      49.344   8.406  14.154  0.00  0.00    +0.000 N 
ATOM     11  H   UNL     1      48.842   8.887  13.412  0.00  0.00    +0.000 HD
BRANCH   8  16
ATOM     12  C   UNL     1      44.735   4.982  11.163  0.00  0.00    +0.000 C 
ATOM     13  C   UNL     1      45.856   5.562  11.968  0.00  0.00    +0.000 A 
ATOM     14  C   UNL     1      46.640   6.606  11.475  0.00  0.00    +0.000 A 
ATOM     15  C   UNL     1      47.675   7.113  12.256  0.00  0.00    +0.000 A 
ATOM     16  C   UNL     1      47.898   6.557  13.507  0.00  0.00    +0.000 A 
ATOM     17  N   UNL     1      47.155   5.533  14.024  0.00  0.00    +0.000 NA
ATOM     18  C   UNL     1      46.155   5.070  13.236  0.00  0.00    +0.000 A 
ENDBRANCH   8  16
ENDBRANCH   7  10
ENDBRANCH   1   7
BRANCH   4  19
ATOM     19  C   UNL     1      49.231   8.208  19.401  0.00  0.00    +0.000 C 
BRANCH  19  20
ATOM     20  N   UNL     1      49.309   6.916  18.761  0.00  0.00    +0.000 N 
ATOM     21  C   UNL     1      48.385   5.925  18.967  0.00  0.00    +0.000 C 
ATOM     22  O   UNL     1      47.428   6.066  19.724  0.00  0.00    +0.000 OA
ATOM     23  H   UNL     1      50.155   6.710  18.240  0.00  0.00    +0.000 HD
BRANCH  21  24
ATOM     24  C   UNL     1      48.564   4.701  18.178  0.00  0.00    +0.000 A 
ATOM     25  C   UNL     1      47.511   4.218  17.412  0.00  0.00    +0.000 A 
ATOM     26  S   UNL     1      47.904   2.825  16.511  0.00  0.00    +0.000 S 
ATOM     27  C   UNL     1      49.481   2.789  17.149  0.00  0.00    +0.000 A 
ATOM     28  N   UNL     1      50.357   1.813  16.792  0.00  0.00    +0.000 NA
ATOM     29  C   UNL     1      51.506   1.885  17.380  0.00  0.00    +0.000 A 
ATOM     30  N   UNL     1      51.856   2.847  18.292  0.00  0.00    +0.000 N 
ATOM     31  C   UNL     1      51.022   3.878  18.646  0.00  0.00    +0.000 A 
ATOM     32  O   UNL     1      51.398   4.768  19.406  0.00  0.00    +0.000 OA
ATOM     33  C   UNL     1      49.708   3.833  18.030  0.00  0.00    +0.000 A 
ATOM     34  H   UNL     1      52.777   2.855  18.706  0.00  0.00    +0.000 HD
ENDBRANCH  21  24
ENDBRANCH  19  20
ENDBRANCH   4  19
TORSDOF 6
ENDMDL
MODEL 9
REMARK VINA RESULT:    -6.416      3.807      6.877
REMARK INTER + INTRA:          -9.640
REMARK INTER:                  -7.669
REMARK INTRA:                  -1.971
REMARK UNBOUND:                -0.973
REMARK  Name = 
REMARK  7 active torsions:
REMARK  status: ('A' for Active; 'I' for Inactive)
REMARK    1  A    between atoms: C_1  and  C_2
REMARK    2  A    between atoms: C_5  and  C_6
REMARK    3  A    between atoms: N_8  and  C_9
REMARK    4  A    between atoms: C_9  and  C_10
REMARK    5  A    between atoms: C_13  and  C_14
REMARK    6  A    between atoms: C_14  and  N_15
REMARK    7  A    between atoms: C_16  and  C_18
REMARK                            x       y       z     vdW  Elec       q    Type
REMARK                         _______ _______ _______ _____ _____    ______ ____
ROOT
ATOM      1  C   UNL     1      48.709   9.708  12.618  0.00  0.00    +0.000 C 
ATOM      2  C   UNL     1      49.021   8.695  11.506  0.00  0.00    +0.000 C 
ATOM      3  C   UNL     1      48.605   7.275  11.885  0.00  0.00    +0.000 C 
ATOM      4  C   UNL     1      47.112   7.189  12.255  0.00  0.00    +0.000 C 
ATOM      5  C   UNL     1      46.715   8.257  13.289  0.00  0.00    +0.000 C 
ATOM      6  C   UNL     1      47.202   9.659  12.922  0.00  0.00    +0.000 C 
ENDROOT
BRANCH   1   7
ATOM      7  C   UNL     1      49.554   9.472  13.886  0.00  0.00    +0.000 C 
BRANCH   7  10
ATOM      8  C   UNL     1      49.419   9.823  16.335  0.00  0.00    +0.000 C 
ATOM      9  O   UNL     1      50.635   9.776  16.494  0.00  0.00    +0.000 OA
ATOM     10  N   UNL     1      48.809   9.705  15.106  0.00  0.00    +0.000 N 
ATOM     11  H   UNL     1      47.793   9.721  15.105  0.00  0.00    +0.000 HD
BRANCH   8  16
ATOM     12  C   UNL     1      45.891  10.532  20.804  0.00  0.00    +0.000 C 
ATOM     13  C   UNL     1      46.813  10.390  19.633  0.00  0.00    +0.000 A 
ATOM     14  C   UNL     1      47.175  11.490  18.854  0.00  0.00    +0.000 A 
ATOM     15  C   UNL     1      48.032  11.311  17.772  0.00  0.00    +0.000 A 
ATOM     16  C   UNL     1      48.501  10.035  17.499  0.00  0.00    +0.000 A 
ATOM     17  N   UNL     1      48.170   8.932  18.235  0.00  0.00    +0.000 NA
ATOM     18  C   UNL     1      47.336   9.147  19.282  0.00  0.00    +0.000 A 
ENDBRANCH   8  16
ENDBRANCH   7  10
ENDBRANCH   1   7
BRANCH   4  19
ATOM     19  C   UNL     1      46.740   5.800  12.802  0.00  0.00    +0.000 C 
BRANCH  19  20
ATOM     20  N   UNL     1      47.125   5.614  14.181  0.00  0.00    +0.000 N 
ATOM     21  C   UNL     1      47.342   4.378  14.735  0.00  0.00    +0.000 C 
ATOM     22  O   UNL     1      47.213   3.340  14.093  0.00  0.00    +0.000 OA
ATOM     23  H   UNL     1      47.106   6.433  14.780  0.00  0.00    +0.000 HD
BRANCH  21  24
ATOM     24  C   UNL     1      47.807   4.367  16.127  0.00  0.00    +0.000 A 
ATOM     25  C   UNL     1      47.237   3.484  17.033  0.00  0.00    +0.000 A 
ATOM     26  S   UNL     1      47.932   3.558  18.588  0.00  0.00    +0.000 S 
ATOM     27  C   UNL     1      48.987   4.807  18.118  0.00  0.00    +0.000 A 
ATOM     28  N   UNL     1      49.862   5.353  19.004  0.00  0.00    +0.000 NA
ATOM     29  C   UNL     1      50.576   6.318  18.524  0.00  0.00    +0.000 A 
ATOM     30  N   UNL     1      50.494   6.782  17.237  0.00  0.00    +0.000 N 
ATOM     31  C   UNL     1      49.661   6.230  16.295  0.00  0.00    +0.000 A 
ATOM     32  O   UNL     1      49.672   6.619  15.130  0.00  0.00    +0.000 OA
ATOM     33  C   UNL     1      48.819   5.156  16.789  0.00  0.00    +0.000 A 
ATOM     34  H   UNL     1      51.093   7.531  16.919  0.00  0.00    +0.000 HD
ENDBRANCH  21  24
ENDBRANCH  19  20
ENDBRANCH   4  19
TORSDOF 6
ENDMDL
