MODEL 1
REMARK VINA RESULT:    -8.166      0.000      0.000
REMARK INTER + INTRA:         -13.279
REMARK INTER:                 -11.985
REMARK INTRA:                  -1.294
REMARK UNBOUND:                -1.294
REMARK  Name = 
REMARK  9 active torsions:
REMARK  status: ('A' for Active; 'I' for Inactive)
REMARK    1  A    between atoms: C_1  and  O_2
REMARK    2  A    between atoms: O_2  and  C_3
REMARK    3  A    between atoms: C_10  and  C_11
REMARK    4  A    between atoms: N_13  and  C_14
REMARK    5  A    between atoms: C_14  and  C_15
REMARK    6  A    between atoms: C_18  and  C_19
REMARK    7  A    between atoms: C_19  and  N_20
REMARK    8  A    between atoms: N_20  and  C_21
REMARK    9  A    between atoms: C_21  and  C_22
REMARK                            x       y       z     vdW  Elec       q    Type
REMARK                         _______ _______ _______ _____ _____    ______ ____
ROOT
ATOM      1  C   UNL     1      47.943   7.031  13.097  0.00  0.00    +0.000 C 
ENDROOT
BRANCH   1   2
ATOM      2  C   UNL     1      46.832   6.175  12.535  0.00  0.00    +0.000 A 
ATOM      3  C   UNL     1      46.226   5.185  13.322  0.00  0.00    +0.000 A 
ATOM      4  C   UNL     1      45.207   4.380  12.797  0.00  0.00    +0.000 A 
ATOM      5  C   UNL     1      44.773   4.538  11.472  0.00  0.00    +0.000 A 
ATOM      6  C   UNL     1      45.396   5.513  10.680  0.00  0.00    +0.000 A 
ATOM      7  C   UNL     1      46.416   6.318  11.205  0.00  0.00    +0.000 A 
BRANCH   5   8
ATOM      8  C   UNL     1      43.666   3.669  10.908  0.00  0.00    +0.000 C 
BRANCH   8   9
ATOM      9  N   UNL     1      43.936   3.315   9.516  0.00  0.00    +0.000 NA
ATOM     10  H   UNL     1      44.461   4.074   9.081  0.00  0.00    +0.000 HD
BRANCH   9  11
ATOM     11  C   UNL     1      44.706   2.076   9.399  0.00  0.00    +0.000 C 
BRANCH  11  12
ATOM     12  C   UNL     1      45.720   2.180   8.289  0.00  0.00    +0.000 A 
ATOM     13  C   UNL     1      45.925   3.375   7.591  0.00  0.00    +0.000 A 
ATOM     14  C   UNL     1      46.897   3.442   6.597  0.00  0.00    +0.000 A 
ATOM     15  C   UNL     1      47.632   2.301   6.321  0.00  0.00    +0.000 A 
ATOM     16  N   UNL     1      47.450   1.122   6.954  0.00  0.00    +0.000 NA
ATOM     17  C   UNL     1      46.502   1.089   7.919  0.00  0.00    +0.000 A 
ENDBRANCH  11  12
ENDBRANCH   9  11
ENDBRANCH   8   9
ENDBRANCH   5   8
ENDBRANCH   1   2
BRANCH   1  20
ATOM     18  C   UNL     1      49.015   7.006  15.320  0.00  0.00    +0.000 C 
ATOM     19  O   UNL     1      50.137   6.927  14.827  0.00  0.00    +0.000 OA
ATOM     20  N   UNL     1      47.897   7.062  14.541  0.00  0.00    +0.000 N 
ATOM     21  H   UNL     1      46.981   7.098  14.965  0.00  0.00    +0.000 HD
BRANCH  18  29
ATOM     22  C   UNL     1      48.848   4.571  17.748  0.00  0.00    +0.000 A 
ATOM     23  N   UNL     1      48.773   3.841  18.877  0.00  0.00    +0.000 NA
ATOM     24  C   UNL     1      48.591   4.486  20.032  0.00  0.00    +0.000 A 
ATOM     25  N   UNL     1      48.468   5.800  20.203  0.00  0.00    +0.000 NA
ATOM     26  C   UNL     1      48.559   6.492  19.054  0.00  0.00    +0.000 A 
ATOM     27  S   UNL     1      48.424   8.184  19.083  0.00  0.00    +0.000 S 
ATOM     28  C   UNL     1      48.637   8.279  17.399  0.00  0.00    +0.000 A 
ATOM     29  C   UNL     1      48.816   7.044  16.780  0.00  0.00    +0.000 A 
ATOM     30  C   UNL     1      48.759   5.975  17.779  0.00  0.00    +0.000 A 
BRANCH  22  32
ATOM     31  C   UNL     1      47.945   3.123  16.147  0.00  0.00    +0.000 C 
ATOM     32  O   UNL     1      49.063   3.905  16.562  0.00  0.00    +0.000 OA
ENDBRANCH  22  32
ENDBRANCH  18  29
ENDBRANCH   1  20
TORSDOF 8
ENDMDL
MODEL 2
REMARK VINA RESULT:    -7.749      1.417      2.411
REMARK INTER + INTRA:         -12.667
REMARK INTER:                 -11.360
REMARK INTRA:                  -1.307
REMARK UNBOUND:                -1.294
REMARK  Name = 
REMARK  9 active torsions:
REMARK  status: ('A' for Active; 'I' for Inactive)
REMARK    1  A    between atoms: C_1  and  O_2
REMARK    2  A    between atoms: O_2  and  C_3
REMARK    3  A    between atoms: C_10  and  C_11
REMARK    4  A    between atoms: N_13  and  C_14
REMARK    5  A    between atoms: C_14  and  C_15
REMARK    6  A    between atoms: C_18  and  C_19
REMARK    7  A    between atoms: C_19  and  N_20
REMARK    8  A    between atoms: N_20  and  C_21
REMARK    9  A    between atoms: C_21  and  C_22
REMARK                            x       y       z     vdW  Elec       q    Type
REMARK                         _______ _______ _______ _____ _____    ______ ____
ROOT
ATOM      1  C   UNL     1      47.557   7.568  13.487  0.00  0.00    +0.000 C 
ENDROOT
BRANCH   1   2
ATOM      2  C   UNL     1      46.678   6.560  12.783  0.00  0.00    +0.000 A 
ATOM      3  C   UNL     1      46.324   5.359  13.412  0.00  0.00    +0.000 A 
ATOM      4  C   UNL     1      45.522   4.417  12.755  0.00  0.00    +0.000 A 
ATOM      5  C   UNL     1      45.060   4.649  11.450  0.00  0.00    +0.000 A 
ATOM      6  C   UNL     1      45.434   5.841  10.815  0.00  0.00    +0.000 A 
ATOM      7  C   UNL     1      46.236   6.783  11.472  0.00  0.00    +0.000 A 
BRANCH   5   8
ATOM      8  C   UNL     1      44.187   3.631  10.743  0.00  0.00    +0.000 C 
BRANCH   8   9
ATOM      9  N   UNL     1      44.942   2.418  10.435  0.00  0.00    +0.000 NA
ATOM     10  H   UNL     1      44.713   1.705  11.128  0.00  0.00    +0.000 HD
BRANCH   9  11
ATOM     11  C   UNL     1      44.639   1.900   9.101  0.00  0.00    +0.000 C 
BRANCH  11  12
ATOM     12  C   UNL     1      45.810   2.099   8.172  0.00  0.00    +0.000 A 
ATOM     13  C   UNL     1      46.095   3.347   7.607  0.00  0.00    +0.000 A 
ATOM     14  C   UNL     1      47.206   3.500   6.783  0.00  0.00    +0.000 A 
ATOM     15  C   UNL     1      47.997   2.391   6.537  0.00  0.00    +0.000 A 
ATOM     16  N   UNL     1      47.745   1.164   7.042  0.00  0.00    +0.000 NA
ATOM     17  C   UNL     1      46.661   1.047   7.844  0.00  0.00    +0.000 A 
ENDBRANCH  11  12
ENDBRANCH   9  11
ENDBRANCH   8   9
ENDBRANCH   5   8
ENDBRANCH   1   2
BRANCH   1  20
ATOM     18  C   UNL     1      48.948   6.854  15.396  0.00  0.00    +0.000 C 
ATOM     19  O   UNL     1      49.958   6.806  14.700  0.00  0.00    +0.000 OA
ATOM     20  N   UNL     1      47.741   7.217  14.876  0.00  0.00    +0.000 N 
ATOM     21  H   UNL     1      46.915   7.223  15.459  0.00  0.00    +0.000 HD
BRANCH  18  29
ATOM     22  C   UNL     1      48.041   8.558  18.247  0.00  0.00    +0.000 A 
ATOM     23  N   UNL     1      47.748   8.978  19.492  0.00  0.00    +0.000 NA
ATOM     24  C   UNL     1      48.003   8.152  20.510  0.00  0.00    +0.000 A 
ATOM     25  N   UNL     1      48.529   6.932  20.438  0.00  0.00    +0.000 NA
ATOM     26  C   UNL     1      48.797   6.548  19.178  0.00  0.00    +0.000 A 
ATOM     27  S   UNL     1      49.474   5.017  18.896  0.00  0.00    +0.000 S 
ATOM     28  C   UNL     1      49.490   5.279  17.216  0.00  0.00    +0.000 A 
ATOM     29  C   UNL     1      48.987   6.519  16.832  0.00  0.00    +0.000 A 
ATOM     30  C   UNL     1      48.580   7.279  18.015  0.00  0.00    +0.000 A 
BRANCH  22  32
ATOM     31  C   UNL     1      48.779  10.358  16.947  0.00  0.00    +0.000 C 
ATOM     32  O   UNL     1      47.752   9.401  17.196  0.00  0.00    +0.000 OA
ENDBRANCH  22  32
ENDBRANCH  18  29
ENDBRANCH   1  20
TORSDOF 8
ENDMDL
MODEL 3
REMARK VINA RESULT:    -7.557      2.064      2.508
REMARK INTER + INTRA:         -12.386
REMARK INTER:                 -11.257
REMARK INTRA:                  -1.129
REMARK UNBOUND:                -1.294
REMARK  Name = 
REMARK  9 active torsions:
REMARK  status: ('A' for Active; 'I' for Inactive)
REMARK    1  A    between atoms: C_1  and  O_2
REMARK    2  A    between atoms: O_2  and  C_3
REMARK    3  A    between atoms: C_10  and  C_11
REMARK    4  A    between atoms: N_13  and  C_14
REMARK    5  A    between atoms: C_14  and  C_15
REMARK    6  A    between atoms: C_18  and  C_19
REMARK    7  A    between atoms: C_19  and  N_20
REMARK    8  A    between atoms: N_20  and  C_21
REMARK    9  A    between atoms: C_21  and  C_22
REMARK                            x       y       z     vdW  Elec       q    Type
REMARK                         _______ _______ _______ _____ _____    ______ ____
ROOT
ATOM      1  C   UNL     1      48.252   7.335  14.674  0.00  0.00    +0.000 C 
ENDROOT
BRANCH   1   2
ATOM      2  C   UNL     1      47.416   6.578  13.669  0.00  0.00    +0.000 A 
ATOM      3  C   UNL     1      46.810   5.363  14.015  0.00  0.00    +0.000 A 
ATOM      4  C   UNL     1      46.047   4.652  13.079  0.00  0.00    +0.000 A 
ATOM      5  C   UNL     1      45.878   5.134  11.773  0.00  0.00    +0.000 A 
ATOM      6  C   UNL     1      46.504   6.338  11.421  0.00  0.00    +0.000 A 
ATOM      7  C   UNL     1      47.267   7.049  12.357  0.00  0.00    +0.000 A 
BRANCH   5   8
ATOM      8  C   UNL     1      45.047   4.366  10.763  0.00  0.00    +0.000 C 
BRANCH   8   9
ATOM      9  N   UNL     1      45.213   4.919   9.420  0.00  0.00    +0.000 NA
ATOM     10  H   UNL     1      46.209   5.038   9.236  0.00  0.00    +0.000 HD
BRANCH   9  11
ATOM     11  C   UNL     1      44.639   4.052   8.390  0.00  0.00    +0.000 C 
BRANCH  11  12
ATOM     12  C   UNL     1      45.662   3.061   7.895  0.00  0.00    +0.000 A 
ATOM     13  C   UNL     1      46.606   3.405   6.922  0.00  0.00    +0.000 A 
ATOM     14  C   UNL     1      47.558   2.474   6.517  0.00  0.00    +0.000 A 
ATOM     15  C   UNL     1      47.529   1.215   7.093  0.00  0.00    +0.000 A 
ATOM     16  N   UNL     1      46.621   0.834   8.017  0.00  0.00    +0.000 NA
ATOM     17  C   UNL     1      45.712   1.763   8.394  0.00  0.00    +0.000 A 
ENDBRANCH  11  12
ENDBRANCH   9  11
ENDBRANCH   8   9
ENDBRANCH   5   8
ENDBRANCH   1   2
BRANCH   1  20
ATOM     18  C   UNL     1      49.537   6.556  16.632  0.00  0.00    +0.000 C 
ATOM     19  O   UNL     1      49.016   7.394  17.363  0.00  0.00    +0.000 OA
ATOM     20  N   UNL     1      49.215   6.466  15.310  0.00  0.00    +0.000 N 
ATOM     21  H   UNL     1      49.675   5.788  14.718  0.00  0.00    +0.000 HD
BRANCH  18  29
ATOM     22  C   UNL     1      49.677   3.119  16.774  0.00  0.00    +0.000 A 
ATOM     23  N   UNL     1      49.997   1.819  16.926  0.00  0.00    +0.000 NA
ATOM     24  C   UNL     1      51.169   1.524  17.492  0.00  0.00    +0.000 A 
ATOM     25  N   UNL     1      52.082   2.383  17.938  0.00  0.00    +0.000 NA
ATOM     26  C   UNL     1      51.729   3.667  17.757  0.00  0.00    +0.000 A 
ATOM     27  S   UNL     1      52.775   4.902  18.268  0.00  0.00    +0.000 S 
ATOM     28  C   UNL     1      51.702   6.104  17.723  0.00  0.00    +0.000 A 
ATOM     29  C   UNL     1      50.538   5.603  17.145  0.00  0.00    +0.000 A 
ATOM     30  C   UNL     1      50.557   4.140  17.177  0.00  0.00    +0.000 A 
BRANCH  22  32
ATOM     31  C   UNL     1      47.376   3.423  17.068  0.00  0.00    +0.000 C 
ATOM     32  O   UNL     1      48.479   3.422  16.165  0.00  0.00    +0.000 OA
ENDBRANCH  22  32
ENDBRANCH  18  29
ENDBRANCH   1  20
TORSDOF 8
ENDMDL
MODEL 4
REMARK VINA RESULT:    -7.548      1.659      3.047
REMARK INTER + INTRA:         -12.372
REMARK INTER:                 -11.060
REMARK INTRA:                  -1.312
REMARK UNBOUND:                -1.294
REMARK  Name = 
REMARK  9 active torsions:
REMARK  status: ('A' for Active; 'I' for Inactive)
REMARK    1  A    between atoms: C_1  and  O_2
REMARK    2  A    between atoms: O_2  and  C_3
REMARK    3  A    between atoms: C_10  and  C_11
REMARK    4  A    between atoms: N_13  and  C_14
REMARK    5  A    between atoms: C_14  and  C_15
REMARK    6  A    between atoms: C_18  and  C_19
REMARK    7  A    between atoms: C_19  and  N_20
REMARK    8  A    between atoms: N_20  and  C_21
REMARK    9  A    between atoms: C_21  and  C_22
REMARK                            x       y       z     vdW  Elec       q    Type
REMARK                         _______ _______ _______ _____ _____    ______ ____
ROOT
ATOM      1  C   UNL     1      47.365   3.998  14.735  0.00  0.00    +0.000 C 
ENDROOT
BRANCH   1   2
ATOM      2  C   UNL     1      46.400   4.274  13.606  0.00  0.00    +0.000 A 
ATOM      3  C   UNL     1      45.765   3.220  12.935  0.00  0.00    +0.000 A 
ATOM      4  C   UNL     1      44.883   3.474  11.877  0.00  0.00    +0.000 A 
ATOM      5  C   UNL     1      44.618   4.787  11.460  0.00  0.00    +0.000 A 
ATOM      6  C   UNL     1      45.271   5.839  12.117  0.00  0.00    +0.000 A 
ATOM      7  C   UNL     1      46.155   5.585  13.174  0.00  0.00    +0.000 A 
BRANCH   5   8
ATOM      8  C   UNL     1      43.657   5.060  10.319  0.00  0.00    +0.000 C 
BRANCH   8   9
ATOM      9  N   UNL     1      43.987   4.246   9.150  0.00  0.00    +0.000 NA
ATOM     10  H   UNL     1      43.306   4.439   8.415  0.00  0.00    +0.000 HD
BRANCH   9  11
ATOM     11  C   UNL     1      45.330   4.526   8.641  0.00  0.00    +0.000 C 
BRANCH  11  12
ATOM     12  C   UNL     1      45.966   3.273   8.095  0.00  0.00    +0.000 A 
ATOM     13  C   UNL     1      46.888   3.317   7.044  0.00  0.00    +0.000 A 
ATOM     14  C   UNL     1      47.482   2.142   6.591  0.00  0.00    +0.000 A 
ATOM     15  C   UNL     1      47.125   0.951   7.199  0.00  0.00    +0.000 A 
ATOM     16  N   UNL     1      46.223   0.861   8.200  0.00  0.00    +0.000 NA
ATOM     17  C   UNL     1      45.666   2.020   8.622  0.00  0.00    +0.000 A 
ENDBRANCH  11  12
ENDBRANCH   9  11
ENDBRANCH   8   9
ENDBRANCH   5   8
ENDBRANCH   1   2
BRANCH   1  20
ATOM     18  C   UNL     1      48.482   5.249  16.547  0.00  0.00    +0.000 C 
ATOM     19  O   UNL     1      49.266   4.329  16.759  0.00  0.00    +0.000 OA
ATOM     20  N   UNL     1      47.527   5.162  15.576  0.00  0.00    +0.000 N 
ATOM     21  H   UNL     1      46.873   5.919  15.435  0.00  0.00    +0.000 HD
BRANCH  18  29
ATOM     22  C   UNL     1      48.684   8.577  15.686  0.00  0.00    +0.000 A 
ATOM     23  N   UNL     1      48.729   9.922  15.630  0.00  0.00    +0.000 NA
ATOM     24  C   UNL     1      48.720  10.599  16.780  0.00  0.00    +0.000 A 
ATOM     25  N   UNL     1      48.674  10.089  18.009  0.00  0.00    +0.000 NA
ATOM     26  C   UNL     1      48.619   8.746  18.020  0.00  0.00    +0.000 A 
ATOM     27  S   UNL     1      48.556   7.923  19.503  0.00  0.00    +0.000 S 
ATOM     28  C   UNL     1      48.502   6.415  18.720  0.00  0.00    +0.000 A 
ATOM     29  C   UNL     1      48.528   6.497  17.330  0.00  0.00    +0.000 A 
ATOM     30  C   UNL     1      48.608   7.899  16.917  0.00  0.00    +0.000 A 
BRANCH  22  32
ATOM     31  C   UNL     1      49.969   7.604  13.990  0.00  0.00    +0.000 C 
ATOM     32  O   UNL     1      48.666   7.881  14.498  0.00  0.00    +0.000 OA
ENDBRANCH  22  32
ENDBRANCH  18  29
ENDBRANCH   1  20
TORSDOF 8
ENDMDL
MODEL 5
REMARK VINA RESULT:    -7.182      1.899      2.206
REMARK INTER + INTRA:         -11.835
REMARK INTER:                 -10.692
REMARK INTRA:                  -1.143
REMARK UNBOUND:                -1.294
REMARK  Name = 
REMARK  9 active torsions:
REMARK  status: ('A' for Active; 'I' for Inactive)
REMARK    1  A    between atoms: C_1  and  O_2
REMARK    2  A    between atoms: O_2  and  C_3
REMARK    3  A    between atoms: C_10  and  C_11
REMARK    4  A    between atoms: N_13  and  C_14
REMARK    5  A    between atoms: C_14  and  C_15
REMARK    6  A    between atoms: C_18  and  C_19
REMARK    7  A    between atoms: C_19  and  N_20
REMARK    8  A    between atoms: N_20  and  C_21
REMARK    9  A    between atoms: C_21  and  C_22
REMARK                            x       y       z     vdW  Elec       q    Type
REMARK                         _______ _______ _______ _____ _____    ______ ____
ROOT
ATOM      1  C   UNL     1      47.949   7.976  12.873  0.00  0.00    +0.000 C 
ENDROOT
BRANCH   1   2
ATOM      2  C   UNL     1      46.963   6.885  12.528  0.00  0.00    +0.000 A 
ATOM      3  C   UNL     1      47.091   5.604  13.083  0.00  0.00    +0.000 A 
ATOM      4  C   UNL     1      46.186   4.588  12.751  0.00  0.00    +0.000 A 
ATOM      5  C   UNL     1      45.136   4.823  11.851  0.00  0.00    +0.000 A 
ATOM      6  C   UNL     1      45.023   6.098  11.279  0.00  0.00    +0.000 A 
ATOM      7  C   UNL     1      45.929   7.115  11.611  0.00  0.00    +0.000 A 
BRANCH   5   8
ATOM      8  C   UNL     1      44.155   3.723  11.497  0.00  0.00    +0.000 C 
BRANCH   8   9
ATOM      9  N   UNL     1      44.841   2.584  10.891  0.00  0.00    +0.000 NA
ATOM     10  H   UNL     1      44.682   1.760  11.471  0.00  0.00    +0.000 HD
BRANCH   9  11
ATOM     11  C   UNL     1      44.368   2.310   9.534  0.00  0.00    +0.000 C 
BRANCH  11  12
ATOM     12  C   UNL     1      45.486   2.470   8.536  0.00  0.00    +0.000 A 
ATOM     13  C   UNL     1      46.263   1.382   8.123  0.00  0.00    +0.000 A 
ATOM     14  C   UNL     1      47.263   1.562   7.172  0.00  0.00    +0.000 A 
ATOM     15  C   UNL     1      47.464   2.835   6.667  0.00  0.00    +0.000 A 
ATOM     16  N   UNL     1      46.753   3.916   7.054  0.00  0.00    +0.000 NA
ATOM     17  C   UNL     1      45.785   3.709   7.976  0.00  0.00    +0.000 A 
ENDBRANCH  11  12
ENDBRANCH   9  11
ENDBRANCH   8   9
ENDBRANCH   5   8
ENDBRANCH   1   2
BRANCH   1  20
ATOM     18  C   UNL     1      49.179   7.716  14.998  0.00  0.00    +0.000 C 
ATOM     19  O   UNL     1      48.368   8.412  15.604  0.00  0.00    +0.000 OA
ATOM     20  N   UNL     1      49.041   7.458  13.666  0.00  0.00    +0.000 N 
ATOM     21  H   UNL     1      49.733   6.906  13.179  0.00  0.00    +0.000 HD
BRANCH  18  29
ATOM     22  C   UNL     1      49.536   5.178  17.297  0.00  0.00    +0.000 A 
ATOM     23  N   UNL     1      49.955   4.229  18.156  0.00  0.00    +0.000 NA
ATOM     24  C   UNL     1      51.266   4.132  18.394  0.00  0.00    +0.000 A 
ATOM     25  N   UNL     1      52.232   4.884  17.872  0.00  0.00    +0.000 NA
ATOM     26  C   UNL     1      51.772   5.811  17.014  0.00  0.00    +0.000 A 
ATOM     27  S   UNL     1      52.865   6.862  16.252  0.00  0.00    +0.000 S 
ATOM     28  C   UNL     1      51.609   7.637  15.408  0.00  0.00    +0.000 A 
ATOM     29  C   UNL     1      50.344   7.122  15.679  0.00  0.00    +0.000 A 
ATOM     30  C   UNL     1      50.448   6.032  16.650  0.00  0.00    +0.000 A 
BRANCH  22  32
ATOM     31  C   UNL     1      47.604   3.999  16.707  0.00  0.00    +0.000 C 
ATOM     32  O   UNL     1      48.187   5.258  17.032  0.00  0.00    +0.000 OA
ENDBRANCH  22  32
ENDBRANCH  18  29
ENDBRANCH   1  20
TORSDOF 8
ENDMDL
MODEL 6
REMARK VINA RESULT:    -6.871      4.558      9.182
REMARK INTER + INTRA:         -11.379
REMARK INTER:                 -10.383
REMARK INTRA:                  -0.996
REMARK UNBOUND:                -1.294
REMARK  Name = 
REMARK  9 active torsions:
REMARK  status: ('A' for Active; 'I' for Inactive)
REMARK    1  A    between atoms: C_1  and  O_2
REMARK    2  A    between atoms: O_2  and  C_3
REMARK    3  A    between atoms: C_10  and  C_11
REMARK    4  A    between atoms: N_13  and  C_14
REMARK    5  A    between atoms: C_14  and  C_15
REMARK    6  A    between atoms: C_18  and  C_19
REMARK    7  A    between atoms: C_19  and  N_20
REMARK    8  A    between atoms: N_20  and  C_21
REMARK    9  A    between atoms: C_21  and  C_22
REMARK                            x       y       z     vdW  Elec       q    Type
REMARK                         _______ _______ _______ _____ _____    ______ ____
ROOT
ATOM      1  C   UNL     1      47.131   3.384  16.841  0.00  0.00    +0.000 C 
ENDROOT
BRANCH   1   2
ATOM      2  C   UNL     1      48.607   3.394  17.166  0.00  0.00    +0.000 A 
ATOM      3  C   UNL     1      49.242   4.578  17.567  0.00  0.00    +0.000 A 
ATOM      4  C   UNL     1      50.613   4.591  17.854  0.00  0.00    +0.000 A 
ATOM      5  C   UNL     1      51.384   3.425  17.741  0.00  0.00    +0.000 A 
ATOM      6  C   UNL     1      50.752   2.248  17.317  0.00  0.00    +0.000 A 
ATOM      7  C   UNL     1      49.381   2.234  17.029  0.00  0.00    +0.000 A 
BRANCH   5   8
ATOM      8  C   UNL     1      52.867   3.441  18.057  0.00  0.00    +0.000 C 
BRANCH   8   9
ATOM      9  N   UNL     1      53.203   2.417  19.045  0.00  0.00    +0.000 NA
ATOM     10  H   UNL     1      52.619   1.597  18.877  0.00  0.00    +0.000 HD
BRANCH   9  11
ATOM     11  C   UNL     1      54.610   2.023  18.977  0.00  0.00    +0.000 C 
BRANCH  11  12
ATOM     12  C   UNL     1      54.811   0.934  17.954  0.00  0.00    +0.000 A 
ATOM     13  C   UNL     1      55.400   1.194  16.712  0.00  0.00    +0.000 A 
ATOM     14  C   UNL     1      55.603   0.155  15.808  0.00  0.00    +0.000 A 
ATOM     15  C   UNL     1      55.197  -1.118  16.171  0.00  0.00    +0.000 A 
ATOM     16  N   UNL     1      54.604  -1.408  17.348  0.00  0.00    +0.000 NA
ATOM     17  C   UNL     1      54.425  -0.379  18.209  0.00  0.00    +0.000 A 
ENDBRANCH  11  12
ENDBRANCH   9  11
ENDBRANCH   8   9
ENDBRANCH   5   8
ENDBRANCH   1   2
BRANCH   1  20
ATOM     18  C   UNL     1      46.931   4.213  14.524  0.00  0.00    +0.000 C 
ATOM     19  O   UNL     1      47.331   3.149  14.061  0.00  0.00    +0.000 OA
ATOM     20  N   UNL     1      46.806   4.403  15.869  0.00  0.00    +0.000 N 
ATOM     21  H   UNL     1      46.502   5.295  16.232  0.00  0.00    +0.000 HD
BRANCH  18  29
ATOM     22  C   UNL     1      44.118   4.968  12.687  0.00  0.00    +0.000 A 
ATOM     23  N   UNL     1      43.153   5.510  11.920  0.00  0.00    +0.000 NA
ATOM     24  C   UNL     1      43.400   6.686  11.338  0.00  0.00    +0.000 A 
ATOM     25  N   UNL     1      44.517   7.403  11.426  0.00  0.00    +0.000 NA
ATOM     26  C   UNL     1      45.450   6.832  12.208  0.00  0.00    +0.000 A 
ATOM     27  S   UNL     1      46.942   7.608  12.434  0.00  0.00    +0.000 S 
ATOM     28  C   UNL     1      47.490   6.365  13.456  0.00  0.00    +0.000 A 
ATOM     29  C   UNL     1      46.564   5.343  13.651  0.00  0.00    +0.000 A 
ATOM     30  C   UNL     1      45.345   5.626  12.892  0.00  0.00    +0.000 A 
BRANCH  22  32
ATOM     31  C   UNL     1      43.563   2.714  12.393  0.00  0.00    +0.000 C 
ATOM     32  O   UNL     1      43.851   3.768  13.309  0.00  0.00    +0.000 OA
ENDBRANCH  22  32
ENDBRANCH  18  29
ENDBRANCH   1  20
TORSDOF 8
ENDMDL
MODEL 7
REMARK VINA RESULT:    -6.675      3.776      8.747
REMARK INTER + INTRA:         -11.091
REMARK INTER:                  -9.781
REMARK INTRA:                  -1.310
REMARK UNBOUND:                -1.294
REMARK  Name = 
REMARK  9 active torsions:
REMARK  status: ('A' for Active; 'I' for Inactive)
REMARK    1  A    between atoms: C_1  and  O_2
REMARK    2  A    between atoms: O_2  and  C_3
REMARK    3  A    between atoms: C_10  and  C_11
REMARK    4  A    between atoms: N_13  and  C_14
REMARK    5  A    between atoms: C_14  and  C_15
REMARK    6  A    between atoms: C_18  and  C_19
REMARK    7  A    between atoms: C_19  and  N_20
REMARK    8  A    between atoms: N_20  and  C_21
REMARK    9  A    between atoms: C_21  and  C_22
REMARK                            x       y       z     vdW  Elec       q    Type
REMARK                         _______ _______ _______ _____ _____    ______ ____
ROOT
ATOM      1  C   UNL     1      47.220   3.293  16.986  0.00  0.00    +0.000 C 
ENDROOT
BRANCH   1   2
ATOM      2  C   UNL     1      48.704   3.300  17.270  0.00  0.00    +0.000 A 
ATOM      3  C   UNL     1      49.490   2.173  16.992  0.00  0.00    +0.000 A 
ATOM      4  C   UNL     1      50.863   2.173  17.269  0.00  0.00    +0.000 A 
ATOM      5  C   UNL     1      51.483   3.296  17.838  0.00  0.00    +0.000 A 
ATOM      6  C   UNL     1      50.692   4.413  18.136  0.00  0.00    +0.000 A 
ATOM      7  C   UNL     1      49.318   4.413  17.860  0.00  0.00    +0.000 A 
BRANCH   5   8
ATOM      8  C   UNL     1      52.971   3.296  18.131  0.00  0.00    +0.000 C 
BRANCH   8   9
ATOM      9  N   UNL     1      53.499   4.659  18.158  0.00  0.00    +0.000 NA
ATOM     10  H   UNL     1      53.952   4.816  19.058  0.00  0.00    +0.000 HD
BRANCH   9  11
ATOM     11  C   UNL     1      54.469   4.897  17.088  0.00  0.00    +0.000 C 
BRANCH  11  12
ATOM     12  C   UNL     1      53.994   5.996  16.172  0.00  0.00    +0.000 A 
ATOM     13  C   UNL     1      52.725   6.569  16.309  0.00  0.00    +0.000 A 
ATOM     14  C   UNL     1      52.337   7.608  15.467  0.00  0.00    +0.000 A 
ATOM     15  C   UNL     1      53.230   8.037  14.501  0.00  0.00    +0.000 A 
ATOM     16  N   UNL     1      54.454   7.496  14.319  0.00  0.00    +0.000 NA
ATOM     17  C   UNL     1      54.806   6.492  15.156  0.00  0.00    +0.000 A 
ENDBRANCH  11  12
ENDBRANCH   9  11
ENDBRANCH   8   9
ENDBRANCH   5   8
ENDBRANCH   1   2
BRANCH   1  20
ATOM     18  C   UNL     1      46.961   4.141  14.683  0.00  0.00    +0.000 C 
ATOM     19  O   UNL     1      47.352   3.081  14.201  0.00  0.00    +0.000 OA
ATOM     20  N   UNL     1      46.869   4.319  16.032  0.00  0.00    +0.000 N 
ATOM     21  H   UNL     1      46.571   5.208  16.410  0.00  0.00    +0.000 HD
BRANCH  18  29
ATOM     22  C   UNL     1      44.280   4.724  12.601  0.00  0.00    +0.000 A 
ATOM     23  N   UNL     1      43.346   5.213  11.764  0.00  0.00    +0.000 NA
ATOM     24  C   UNL     1      43.530   6.437  11.264  0.00  0.00    +0.000 A 
ATOM     25  N   UNL     1      44.555   7.252  11.499  0.00  0.00    +0.000 NA
ATOM     26  C   UNL     1      45.459   6.731  12.347  0.00  0.00    +0.000 A 
ATOM     27  S   UNL     1      46.836   7.632  12.761  0.00  0.00    +0.000 S 
ATOM     28  C   UNL     1      47.403   6.392  13.777  0.00  0.00    +0.000 A 
ATOM     29  C   UNL     1      46.570   5.277  13.828  0.00  0.00    +0.000 A 
ATOM     30  C   UNL     1      45.410   5.484  12.961  0.00  0.00    +0.000 A 
BRANCH  22  32
ATOM     31  C   UNL     1      43.498   2.554  12.212  0.00  0.00    +0.000 C 
ATOM     32  O   UNL     1      44.076   3.472  13.137  0.00  0.00    +0.000 OA
ENDBRANCH  22  32
ENDBRANCH  18  29
ENDBRANCH   1  20
TORSDOF 8
ENDMDL
MODEL 8
REMARK VINA RESULT:    -6.217      3.173      4.358
REMARK INTER + INTRA:         -10.418
REMARK INTER:                  -9.230
REMARK INTRA:                  -1.188
REMARK UNBOUND:                -1.294
REMARK  Name = 
REMARK  9 active torsions:
REMARK  status: ('A' for Active; 'I' for Inactive)
REMARK    1  A    between atoms: C_1  and  O_2
REMARK    2  A    between atoms: O_2  and  C_3
REMARK    3  A    between atoms: C_10  and  C_11
REMARK    4  A    between atoms: N_13  and  C_14
REMARK    5  A    between atoms: C_14  and  C_15
REMARK    6  A    between atoms: C_18  and  C_19
REMARK    7  A    between atoms: C_19  and  N_20
REMARK    8  A    between atoms: N_20  and  C_21
REMARK    9  A    between atoms: C_21  and  C_22
REMARK                            x       y       z     vdW  Elec       q    Type
REMARK                         _______ _______ _______ _____ _____    ______ ____
ROOT
ATOM      1  C   UNL     1      49.454   6.628  17.496  0.00  0.00    +0.000 C 
ENDROOT
BRANCH   1   2
ATOM      2  C   UNL     1      48.617   6.109  16.351  0.00  0.00    +0.000 A 
ATOM      3  C   UNL     1      47.857   4.940  16.494  0.00  0.00    +0.000 A 
ATOM      4  C   UNL     1      47.092   4.449  15.428  0.00  0.00    +0.000 A 
ATOM      5  C   UNL     1      47.072   5.111  14.191  0.00  0.00    +0.000 A 
ATOM      6  C   UNL     1      47.850   6.268  14.043  0.00  0.00    +0.000 A 
ATOM      7  C   UNL     1      48.616   6.758  15.109  0.00  0.00    +0.000 A 
BRANCH   5   8
ATOM      8  C   UNL     1      46.239   4.581  13.040  0.00  0.00    +0.000 C 
BRANCH   8   9
ATOM      9  N   UNL     1      45.958   5.637  12.068  0.00  0.00    +0.000 NA
ATOM     10  H   UNL     1      46.715   5.662  11.385  0.00  0.00    +0.000 HD
BRANCH   9  11
ATOM     11  C   UNL     1      44.691   5.421  11.368  0.00  0.00    +0.000 C 
BRANCH  11  12
ATOM     12  C   UNL     1      44.873   4.468  10.215  0.00  0.00    +0.000 A 
ATOM     13  C   UNL     1      45.598   4.827   9.073  0.00  0.00    +0.000 A 
ATOM     14  C   UNL     1      45.776   3.906   8.045  0.00  0.00    +0.000 A 
ATOM     15  C   UNL     1      45.210   2.650   8.184  0.00  0.00    +0.000 A 
ATOM     16  N   UNL     1      44.483   2.271   9.258  0.00  0.00    +0.000 NA
ATOM     17  C   UNL     1      44.332   3.186  10.244  0.00  0.00    +0.000 A 
ENDBRANCH  11  12
ENDBRANCH   9  11
ENDBRANCH   8   9
ENDBRANCH   5   8
ENDBRANCH   1   2
BRANCH   1  20
ATOM     18  C   UNL     1      51.706   5.615  17.525  0.00  0.00    +0.000 C 
ATOM     19  O   UNL     1      52.143   6.458  16.747  0.00  0.00    +0.000 OA
ATOM     20  N   UNL     1      50.405   5.633  17.937  0.00  0.00    +0.000 N 
ATOM     21  H   UNL     1      50.056   4.915  18.556  0.00  0.00    +0.000 HD
BRANCH  18  29
ATOM     22  C   UNL     1      51.540   2.179  17.394  0.00  0.00    +0.000 A 
ATOM     23  N   UNL     1      51.730   0.848  17.469  0.00  0.00    +0.000 NA
ATOM     24  C   UNL     1      52.805   0.404  18.125  0.00  0.00    +0.000 A 
ATOM     25  N   UNL     1      53.733   1.140  18.732  0.00  0.00    +0.000 NA
ATOM     26  C   UNL     1      53.511   2.461  18.624  0.00  0.00    +0.000 A 
ATOM     27  S   UNL     1      54.595   3.553  19.339  0.00  0.00    +0.000 S 
ATOM     28  C   UNL     1      53.693   4.885  18.790  0.00  0.00    +0.000 A 
ATOM     29  C   UNL     1      52.562   4.539  18.056  0.00  0.00    +0.000 A 
ATOM     30  C   UNL     1      52.453   3.082  17.968  0.00  0.00    +0.000 A 
BRANCH  22  32
ATOM     31  C   UNL     1      49.339   1.737  16.734  0.00  0.00    +0.000 C 
ATOM     32  O   UNL     1      50.445   2.636  16.694  0.00  0.00    +0.000 OA
ENDBRANCH  22  32
ENDBRANCH  18  29
ENDBRANCH   1  20
TORSDOF 8
ENDMDL
MODEL 9
REMARK VINA RESULT:    -6.028      3.978      9.109
REMARK INTER + INTRA:         -10.141
REMARK INTER:                  -8.110
REMARK INTRA:                  -2.031
REMARK UNBOUND:                -1.294
REMARK  Name = 
REMARK  9 active torsions:
REMARK  status: ('A' for Active; 'I' for Inactive)
REMARK    1  A    between atoms: C_1  and  O_2
REMARK    2  A    between atoms: O_2  and  C_3
REMARK    3  A    between atoms: C_10  and  C_11
REMARK    4  A    between atoms: N_13  and  C_14
REMARK    5  A    between atoms: C_14  and  C_15
REMARK    6  A    between atoms: C_18  and  C_19
REMARK    7  A    between atoms: C_19  and  N_20
REMARK    8  A    between atoms: N_20  and  C_21
REMARK    9  A    between atoms: C_21  and  C_22
REMARK                            x       y       z     vdW  Elec       q    Type
REMARK                         _______ _______ _______ _____ _____    ______ ____
ROOT
ATOM      1  C   UNL     1      47.584   3.672  16.187  0.00  0.00    +0.000 C 
ENDROOT
BRANCH   1   2
ATOM      2  C   UNL     1      48.037   4.498  17.367  0.00  0.00    +0.000 A 
ATOM      3  C   UNL     1      49.399   4.624  17.671  0.00  0.00    +0.000 A 
ATOM      4  C   UNL     1      49.819   5.377  18.774  0.00  0.00    +0.000 A 
ATOM      5  C   UNL     1      48.889   6.017  19.606  0.00  0.00    +0.000 A 
ATOM      6  C   UNL     1      47.525   5.872  19.315  0.00  0.00    +0.000 A 
ATOM      7  C   UNL     1      47.105   5.118  18.211  0.00  0.00    +0.000 A 
BRANCH   5   8
ATOM      8  C   UNL     1      49.346   6.837  20.797  0.00  0.00    +0.000 C 
BRANCH   8   9
ATOM      9  N   UNL     1      48.666   8.131  20.834  0.00  0.00    +0.000 NA
ATOM     10  H   UNL     1      48.408   8.337  21.799  0.00  0.00    +0.000 HD
BRANCH   9  11
ATOM     11  C   UNL     1      49.508   9.213  20.324  0.00  0.00    +0.000 C 
BRANCH  11  12
ATOM     12  C   UNL     1      49.375   9.334  18.827  0.00  0.00    +0.000 A 
ATOM     13  C   UNL     1      48.126   9.335  18.199  0.00  0.00    +0.000 A 
ATOM     14  C   UNL     1      48.042   9.486  16.818  0.00  0.00    +0.000 A 
ATOM     15  C   UNL     1      49.219   9.619  16.101  0.00  0.00    +0.000 A 
ATOM     16  N   UNL     1      50.446   9.599  16.664  0.00  0.00    +0.000 NA
ATOM     17  C   UNL     1      50.495   9.457  18.009  0.00  0.00    +0.000 A 
ENDBRANCH  11  12
ENDBRANCH   9  11
ENDBRANCH   8   9
ENDBRANCH   5   8
ENDBRANCH   1   2
BRANCH   1  20
ATOM     18  C   UNL     1      46.484   4.049  14.009  0.00  0.00    +0.000 C 
ATOM     19  O   UNL     1      46.866   2.965  13.578  0.00  0.00    +0.000 OA
ATOM     20  N   UNL     1      46.793   4.463  15.271  0.00  0.00    +0.000 N 
ATOM     21  H   UNL     1      46.493   5.370  15.598  0.00  0.00    +0.000 HD
BRANCH  18  29
ATOM     22  C   UNL     1      46.728   7.397  13.244  0.00  0.00    +0.000 A 
ATOM     23  N   UNL     1      46.604   8.651  12.771  0.00  0.00    +0.000 NA
ATOM     24  C   UNL     1      45.577   8.918  11.960  0.00  0.00    +0.000 A 
ATOM     25  N   UNL     1      44.636   8.069  11.555  0.00  0.00    +0.000 NA
ATOM     26  C   UNL     1      44.802   6.827  12.041  0.00  0.00    +0.000 A 
ATOM     27  S   UNL     1      43.692   5.611  11.630  0.00  0.00    +0.000 S 
ATOM     28  C   UNL     1      44.537   4.459  12.551  0.00  0.00    +0.000 A 
ATOM     29  C   UNL     1      45.670   4.961  13.185  0.00  0.00    +0.000 A 
ATOM     30  C   UNL     1      45.819   6.385  12.882  0.00  0.00    +0.000 A 
BRANCH  22  32
ATOM     31  C   UNL     1      49.042   7.072  13.356  0.00  0.00    +0.000 C 
ATOM     32  O   UNL     1      47.803   7.117  14.059  0.00  0.00    +0.000 OA
ENDBRANCH  22  32
ENDBRANCH  18  29
ENDBRANCH   1  20
TORSDOF 8
ENDMDL
