MODEL 1
REMARK VINA RESULT:    -7.638      0.000      0.000
REMARK INTER + INTRA:         -10.330
REMARK INTER:                  -9.647
REMARK INTRA:                  -0.683
REMARK UNBOUND:                -0.683
REMARK  Name = 
REMARK  5 active torsions:
REMARK  status: ('A' for Active; 'I' for Inactive)
REMARK    1  A    between atoms: N_1  and  C_2
REMARK    2  A    between atoms: C_2  and  C_3
REMARK    3  A    between atoms: C_3  and  C_4
REMARK    4  A    between atoms: C_7  and  C_8
REMARK    5  A    between atoms: C_8  and  N_9
REMARK                            x       y       z     vdW  Elec       q    Type
REMARK                         _______ _______ _______ _____ _____    ______ ____
ROOT
ATOM      1  C   UNL     1      45.888   2.626   8.242  0.00  0.00    +0.000 A 
ATOM      2  C   UNL     1      45.984   4.025   8.225  0.00  0.00    +0.000 A 
ATOM      3  C   UNL     1      45.200   4.806   9.081  0.00  0.00    +0.000 A 
ATOM      4  C   UNL     1      44.300   4.205   9.974  0.00  0.00    +0.000 A 
ATOM      5  C   UNL     1      44.222   2.806  10.005  0.00  0.00    +0.000 A 
ATOM      6  C   UNL     1      45.012   2.025   9.154  0.00  0.00    +0.000 A 
ENDROOT
BRANCH   1   7
ATOM      7  C   UNL     1      46.693   1.787   7.281  0.00  0.00    +0.000 C 
BRANCH   7   8
ATOM      8  C   UNL     1      47.907   2.532   6.723  0.00  0.00    +0.000 C 
BRANCH   8   9
ATOM      9  N   UNL     1      48.522   1.786   5.624  0.00  0.00    +0.000 NA
ATOM     10  H   UNL     1      49.509   2.032   5.561  0.00  0.00    +0.000 HD
ATOM     11  H   UNL     1      48.101   2.071   4.739  0.00  0.00    +0.000 HD
ENDBRANCH   8   9
ENDBRANCH   7   8
ENDBRANCH   1   7
BRANCH   4  12
ATOM     12  C   UNL     1      43.346   5.043  10.804  0.00  0.00    +0.000 C 
BRANCH  12  13
ATOM     13  N   UNL     1      44.095   6.007  11.605  0.00  0.00    +0.000 N 
ATOM     14  N   UNL     1      44.047   7.320  11.275  0.00  0.00    +0.000 NA
ATOM     15  C   UNL     1      45.180   7.797  11.800  0.00  0.00    +0.000 A 
ATOM     16  C   UNL     1      45.896   6.825  12.531  0.00  0.00    +0.000 A 
ATOM     17  C   UNL     1      47.132   6.766  13.197  0.00  0.00    +0.000 A 
ATOM     18  C   UNL     1      47.478   5.589  13.874  0.00  0.00    +0.000 A 
ATOM     19  C   UNL     1      46.594   4.510  13.928  0.00  0.00    +0.000 A 
ATOM     20  C   UNL     1      45.374   4.540  13.247  0.00  0.00    +0.000 A 
ATOM     21  C   UNL     1      45.077   5.702  12.521  0.00  0.00    +0.000 A 
ENDBRANCH  12  13
ENDBRANCH   4  12
TORSDOF 5
ENDMDL
MODEL 2
REMARK VINA RESULT:    -7.201      1.391      2.531
REMARK INTER + INTRA:          -9.779
REMARK INTER:                  -9.257
REMARK INTRA:                  -0.521
REMARK UNBOUND:                -0.683
REMARK  Name = 
REMARK  5 active torsions:
REMARK  status: ('A' for Active; 'I' for Inactive)
REMARK    1  A    between atoms: N_1  and  C_2
REMARK    2  A    between atoms: C_2  and  C_3
REMARK    3  A    between atoms: C_3  and  C_4
REMARK    4  A    between atoms: C_7  and  C_8
REMARK    5  A    between atoms: C_8  and  N_9
REMARK                            x       y       z     vdW  Elec       q    Type
REMARK                         _______ _______ _______ _____ _____    ______ ____
ROOT
ATOM      1  C   UNL     1      45.767   3.048   7.955  0.00  0.00    +0.000 A 
ATOM      2  C   UNL     1      45.221   2.304   9.009  0.00  0.00    +0.000 A 
ATOM      3  C   UNL     1      44.845   2.926  10.205  0.00  0.00    +0.000 A 
ATOM      4  C   UNL     1      45.006   4.309  10.372  0.00  0.00    +0.000 A 
ATOM      5  C   UNL     1      45.531   5.055   9.308  0.00  0.00    +0.000 A 
ATOM      6  C   UNL     1      45.900   4.433   8.110  0.00  0.00    +0.000 A 
ENDROOT
BRANCH   1   7
ATOM      7  C   UNL     1      46.224   2.369   6.688  0.00  0.00    +0.000 C 
BRANCH   7   8
ATOM      8  C   UNL     1      47.443   1.470   6.909  0.00  0.00    +0.000 C 
BRANCH   8   9
ATOM      9  N   UNL     1      48.513   1.793   5.962  0.00  0.00    +0.000 NA
ATOM     10  H   UNL     1      48.271   2.647   5.461  0.00  0.00    +0.000 HD
ATOM     11  H   UNL     1      48.581   1.058   5.259  0.00  0.00    +0.000 HD
ENDBRANCH   8   9
ENDBRANCH   7   8
ENDBRANCH   1   7
BRANCH   4  12
ATOM     12  C   UNL     1      44.734   4.972  11.709  0.00  0.00    +0.000 C 
BRANCH  12  13
ATOM     13  N   UNL     1      45.924   4.901  12.554  0.00  0.00    +0.000 N 
ATOM     14  N   UNL     1      45.974   3.984  13.549  0.00  0.00    +0.000 NA
ATOM     15  C   UNL     1      46.857   4.518  14.398  0.00  0.00    +0.000 A 
ATOM     16  C   UNL     1      47.429   5.714  13.912  0.00  0.00    +0.000 A 
ATOM     17  C   UNL     1      48.315   6.686  14.405  0.00  0.00    +0.000 A 
ATOM     18  C   UNL     1      48.694   7.741  13.564  0.00  0.00    +0.000 A 
ATOM     19  C   UNL     1      48.239   7.804  12.247  0.00  0.00    +0.000 A 
ATOM     20  C   UNL     1      47.335   6.862  11.749  0.00  0.00    +0.000 A 
ATOM     21  C   UNL     1      46.916   5.852  12.627  0.00  0.00    +0.000 A 
ENDBRANCH  12  13
ENDBRANCH   4  12
TORSDOF 5
ENDMDL
MODEL 3
REMARK VINA RESULT:    -6.554      2.047      6.410
REMARK INTER + INTRA:          -8.961
REMARK INTER:                  -8.652
REMARK INTRA:                  -0.309
REMARK UNBOUND:                -0.683
REMARK  Name = 
REMARK  5 active torsions:
REMARK  status: ('A' for Active; 'I' for Inactive)
REMARK    1  A    between atoms: N_1  and  C_2
REMARK    2  A    between atoms: C_2  and  C_3
REMARK    3  A    between atoms: C_3  and  C_4
REMARK    4  A    between atoms: C_7  and  C_8
REMARK    5  A    between atoms: C_8  and  N_9
REMARK                            x       y       z     vdW  Elec       q    Type
REMARK                         _______ _______ _______ _____ _____    ______ ____
ROOT
ATOM      1  C   UNL     1      47.125   5.303  14.168  0.00  0.00    +0.000 A 
ATOM      2  C   UNL     1      46.056   4.411  14.006  0.00  0.00    +0.000 A 
ATOM      3  C   UNL     1      45.265   4.445  12.852  0.00  0.00    +0.000 A 
ATOM      4  C   UNL     1      45.525   5.373  11.833  0.00  0.00    +0.000 A 
ATOM      5  C   UNL     1      46.609   6.249  11.988  0.00  0.00    +0.000 A 
ATOM      6  C   UNL     1      47.405   6.209  13.138  0.00  0.00    +0.000 A 
ENDROOT
BRANCH   1   7
ATOM      7  C   UNL     1      47.943   5.303  15.436  0.00  0.00    +0.000 C 
BRANCH   7   8
ATOM      8  C   UNL     1      47.528   4.193  16.404  0.00  0.00    +0.000 C 
BRANCH   8   9
ATOM      9  N   UNL     1      46.847   4.747  17.577  0.00  0.00    +0.000 NA
ATOM     10  H   UNL     1      47.497   4.774  18.361  0.00  0.00    +0.000 HD
ATOM     11  H   UNL     1      46.088   4.125  17.857  0.00  0.00    +0.000 HD
ENDBRANCH   8   9
ENDBRANCH   7   8
ENDBRANCH   1   7
BRANCH   4  12
ATOM     12  C   UNL     1      44.592   5.513  10.646  0.00  0.00    +0.000 C 
BRANCH  12  13
ATOM     13  N   UNL     1      44.447   4.227   9.970  0.00  0.00    +0.000 N 
ATOM     14  N   UNL     1      43.686   3.263  10.540  0.00  0.00    +0.000 NA
ATOM     15  C   UNL     1      44.183   2.142  10.007  0.00  0.00    +0.000 A 
ATOM     16  C   UNL     1      45.185   2.391   9.045  0.00  0.00    +0.000 A 
ATOM     17  C   UNL     1      46.057   1.613   8.266  0.00  0.00    +0.000 A 
ATOM     18  C   UNL     1      46.904   2.256   7.353  0.00  0.00    +0.000 A 
ATOM     19  C   UNL     1      46.851   3.640   7.185  0.00  0.00    +0.000 A 
ATOM     20  C   UNL     1      46.011   4.433   7.971  0.00  0.00    +0.000 A 
ATOM     21  C   UNL     1      45.221   3.776   8.925  0.00  0.00    +0.000 A 
ENDBRANCH  12  13
ENDBRANCH   4  12
TORSDOF 5
ENDMDL
MODEL 4
REMARK VINA RESULT:    -6.297      2.106      5.899
REMARK INTER + INTRA:          -8.636
REMARK INTER:                  -7.959
REMARK INTRA:                  -0.677
REMARK UNBOUND:                -0.683
REMARK  Name = 
REMARK  5 active torsions:
REMARK  status: ('A' for Active; 'I' for Inactive)
REMARK    1  A    between atoms: N_1  and  C_2
REMARK    2  A    between atoms: C_2  and  C_3
REMARK    3  A    between atoms: C_3  and  C_4
REMARK    4  A    between atoms: C_7  and  C_8
REMARK    5  A    between atoms: C_8  and  N_9
REMARK                            x       y       z     vdW  Elec       q    Type
REMARK                         _______ _______ _______ _____ _____    ______ ____
ROOT
ATOM      1  C   UNL     1      47.345   6.408  12.995  0.00  0.00    +0.000 A 
ATOM      2  C   UNL     1      46.903   7.176  11.908  0.00  0.00    +0.000 A 
ATOM      3  C   UNL     1      45.648   6.945  11.333  0.00  0.00    +0.000 A 
ATOM      4  C   UNL     1      44.806   5.941  11.832  0.00  0.00    +0.000 A 
ATOM      5  C   UNL     1      45.241   5.189  12.932  0.00  0.00    +0.000 A 
ATOM      6  C   UNL     1      46.492   5.425  13.512  0.00  0.00    +0.000 A 
ENDROOT
BRANCH   1   7
ATOM      7  C   UNL     1      48.720   6.619  13.579  0.00  0.00    +0.000 C 
BRANCH   7   8
ATOM      8  C   UNL     1      48.681   6.933  15.076  0.00  0.00    +0.000 C 
BRANCH   8   9
ATOM      9  N   UNL     1      49.511   5.994  15.833  0.00  0.00    +0.000 NA
ATOM     10  H   UNL     1      49.835   5.255  15.210  0.00  0.00    +0.000 HD
ATOM     11  H   UNL     1      48.945   5.536  16.548  0.00  0.00    +0.000 HD
ENDBRANCH   8   9
ENDBRANCH   7   8
ENDBRANCH   1   7
BRANCH   4  12
ATOM     12  C   UNL     1      43.509   5.589  11.130  0.00  0.00    +0.000 C 
BRANCH  12  13
ATOM     13  N   UNL     1      43.578   4.229  10.601  0.00  0.00    +0.000 N 
ATOM     14  N   UNL     1      43.083   3.207  11.339  0.00  0.00    +0.000 NA
ATOM     15  C   UNL     1      43.757   2.152  10.870  0.00  0.00    +0.000 A 
ATOM     16  C   UNL     1      44.603   2.480   9.789  0.00  0.00    +0.000 A 
ATOM     17  C   UNL     1      45.551   1.803   9.003  0.00  0.00    +0.000 A 
ATOM     18  C   UNL     1      46.168   2.490   7.949  0.00  0.00    +0.000 A 
ATOM     19  C   UNL     1      45.816   3.807   7.653  0.00  0.00    +0.000 A 
ATOM     20  C   UNL     1      44.898   4.505   8.441  0.00  0.00    +0.000 A 
ATOM     21  C   UNL     1      44.341   3.821   9.531  0.00  0.00    +0.000 A 
ENDBRANCH  12  13
ENDBRANCH   4  12
TORSDOF 5
ENDMDL
MODEL 5
REMARK VINA RESULT:    -6.243      1.214      2.459
REMARK INTER + INTRA:          -8.568
REMARK INTER:                  -8.059
REMARK INTRA:                  -0.508
REMARK UNBOUND:                -0.683
REMARK  Name = 
REMARK  5 active torsions:
REMARK  status: ('A' for Active; 'I' for Inactive)
REMARK    1  A    between atoms: N_1  and  C_2
REMARK    2  A    between atoms: C_2  and  C_3
REMARK    3  A    between atoms: C_3  and  C_4
REMARK    4  A    between atoms: C_7  and  C_8
REMARK    5  A    between atoms: C_8  and  N_9
REMARK                            x       y       z     vdW  Elec       q    Type
REMARK                         _______ _______ _______ _____ _____    ______ ____
ROOT
ATOM      1  C   UNL     1      45.924   2.731   7.757  0.00  0.00    +0.000 A 
ATOM      2  C   UNL     1      46.058   4.119   7.891  0.00  0.00    +0.000 A 
ATOM      3  C   UNL     1      45.619   4.772   9.048  0.00  0.00    +0.000 A 
ATOM      4  C   UNL     1      45.035   4.049  10.099  0.00  0.00    +0.000 A 
ATOM      5  C   UNL     1      44.923   2.658   9.972  0.00  0.00    +0.000 A 
ATOM      6  C   UNL     1      45.369   2.005   8.818  0.00  0.00    +0.000 A 
ENDROOT
BRANCH   1   7
ATOM      7  C   UNL     1      46.347   2.034   6.487  0.00  0.00    +0.000 C 
BRANCH   7   8
ATOM      8  C   UNL     1      47.868   1.922   6.355  0.00  0.00    +0.000 C 
BRANCH   8   9
ATOM      9  N   UNL     1      48.328   2.491   5.086  0.00  0.00    +0.000 NA
ATOM     10  H   UNL     1      48.037   1.884   4.321  0.00  0.00    +0.000 HD
ATOM     11  H   UNL     1      49.348   2.504   5.067  0.00  0.00    +0.000 HD
ENDBRANCH   8   9
ENDBRANCH   7   8
ENDBRANCH   1   7
BRANCH   4  12
ATOM     12  C   UNL     1      44.429   4.759  11.294  0.00  0.00    +0.000 C 
BRANCH  12  13
ATOM     13  N   UNL     1      45.354   5.772  11.796  0.00  0.00    +0.000 N 
ATOM     14  N   UNL     1      46.338   5.403  12.651  0.00  0.00    +0.000 NA
ATOM     15  C   UNL     1      46.611   6.543  13.294  0.00  0.00    +0.000 A 
ATOM     16  C   UNL     1      45.877   7.642  12.797  0.00  0.00    +0.000 A 
ATOM     17  C   UNL     1      45.724   8.996  13.140  0.00  0.00    +0.000 A 
ATOM     18  C   UNL     1      44.910   9.807  12.338  0.00  0.00    +0.000 A 
ATOM     19  C   UNL     1      44.299   9.294  11.193  0.00  0.00    +0.000 A 
ATOM     20  C   UNL     1      44.417   7.944  10.853  0.00  0.00    +0.000 A 
ATOM     21  C   UNL     1      45.181   7.135  11.706  0.00  0.00    +0.000 A 
ENDBRANCH  12  13
ENDBRANCH   4  12
TORSDOF 5
ENDMDL
MODEL 6
REMARK VINA RESULT:    -5.497      4.889      7.697
REMARK INTER + INTRA:          -7.626
REMARK INTER:                  -7.465
REMARK INTRA:                  -0.161
REMARK UNBOUND:                -0.683
REMARK  Name = 
REMARK  5 active torsions:
REMARK  status: ('A' for Active; 'I' for Inactive)
REMARK    1  A    between atoms: N_1  and  C_2
REMARK    2  A    between atoms: C_2  and  C_3
REMARK    3  A    between atoms: C_3  and  C_4
REMARK    4  A    between atoms: C_7  and  C_8
REMARK    5  A    between atoms: C_8  and  N_9
REMARK                            x       y       z     vdW  Elec       q    Type
REMARK                         _______ _______ _______ _____ _____    ______ ____
ROOT
ATOM      1  C   UNL     1      50.952   2.831  17.555  0.00  0.00    +0.000 A 
ATOM      2  C   UNL     1      50.575   4.160  17.788  0.00  0.00    +0.000 A 
ATOM      3  C   UNL     1      49.331   4.636  17.359  0.00  0.00    +0.000 A 
ATOM      4  C   UNL     1      48.435   3.793  16.686  0.00  0.00    +0.000 A 
ATOM      5  C   UNL     1      48.806   2.458  16.473  0.00  0.00    +0.000 A 
ATOM      6  C   UNL     1      50.046   1.980  16.909  0.00  0.00    +0.000 A 
ENDROOT
BRANCH   1   7
ATOM      7  C   UNL     1      52.315   2.332  17.968  0.00  0.00    +0.000 C 
BRANCH   7   8
ATOM      8  C   UNL     1      52.612   0.926  17.442  0.00  0.00    +0.000 C 
BRANCH   8   9
ATOM      9  N   UNL     1      52.177  -0.095  18.398  0.00  0.00    +0.000 NA
ATOM     10  H   UNL     1      51.213  -0.355  18.196  0.00  0.00    +0.000 HD
ATOM     11  H   UNL     1      52.177   0.296  19.340  0.00  0.00    +0.000 HD
ENDBRANCH   8   9
ENDBRANCH   7   8
ENDBRANCH   1   7
BRANCH   4  12
ATOM     12  C   UNL     1      47.148   4.333  16.094  0.00  0.00    +0.000 C 
BRANCH  12  13
ATOM     13  N   UNL     1      47.404   4.896  14.770  0.00  0.00    +0.000 N 
ATOM     14  N   UNL     1      48.191   5.993  14.660  0.00  0.00    +0.000 NA
ATOM     15  C   UNL     1      47.789   6.529  13.503  0.00  0.00    +0.000 A 
ATOM     16  C   UNL     1      46.823   5.740  12.841  0.00  0.00    +0.000 A 
ATOM     17  C   UNL     1      46.039   5.861  11.682  0.00  0.00    +0.000 A 
ATOM     18  C   UNL     1      45.203   4.797  11.319  0.00  0.00    +0.000 A 
ATOM     19  C   UNL     1      45.181   3.618  12.067  0.00  0.00    +0.000 A 
ATOM     20  C   UNL     1      45.932   3.492  13.239  0.00  0.00    +0.000 A 
ATOM     21  C   UNL     1      46.711   4.594  13.620  0.00  0.00    +0.000 A 
ENDBRANCH  12  13
ENDBRANCH   4  12
TORSDOF 5
ENDMDL
MODEL 7
REMARK VINA RESULT:    -5.376      2.483      6.812
REMARK INTER + INTRA:          -7.473
REMARK INTER:                  -7.229
REMARK INTRA:                  -0.244
REMARK UNBOUND:                -0.683
REMARK  Name = 
REMARK  5 active torsions:
REMARK  status: ('A' for Active; 'I' for Inactive)
REMARK    1  A    between atoms: N_1  and  C_2
REMARK    2  A    between atoms: C_2  and  C_3
REMARK    3  A    between atoms: C_3  and  C_4
REMARK    4  A    between atoms: C_7  and  C_8
REMARK    5  A    between atoms: C_8  and  N_9
REMARK                            x       y       z     vdW  Elec       q    Type
REMARK                         _______ _______ _______ _____ _____    ______ ____
ROOT
ATOM      1  C   UNL     1      48.329   5.795  15.840  0.00  0.00    +0.000 A 
ATOM      2  C   UNL     1      47.586   4.928  15.027  0.00  0.00    +0.000 A 
ATOM      3  C   UNL     1      47.192   5.316  13.741  0.00  0.00    +0.000 A 
ATOM      4  C   UNL     1      47.533   6.581  13.239  0.00  0.00    +0.000 A 
ATOM      5  C   UNL     1      48.295   7.437  14.046  0.00  0.00    +0.000 A 
ATOM      6  C   UNL     1      48.695   7.046  15.328  0.00  0.00    +0.000 A 
ENDROOT
BRANCH   1   7
ATOM      7  C   UNL     1      48.706   5.399  17.246  0.00  0.00    +0.000 C 
BRANCH   7   8
ATOM      8  C   UNL     1      47.672   4.474  17.894  0.00  0.00    +0.000 C 
BRANCH   8   9
ATOM      9  N   UNL     1      46.594   5.245  18.515  0.00  0.00    +0.000 NA
ATOM     10  H   UNL     1      45.816   4.622  18.731  0.00  0.00    +0.000 HD
ATOM     11  H   UNL     1      46.234   5.929  17.849  0.00  0.00    +0.000 HD
ENDBRANCH   8   9
ENDBRANCH   7   8
ENDBRANCH   1   7
BRANCH   4  12
ATOM     12  C   UNL     1      46.994   7.064  11.907  0.00  0.00    +0.000 C 
BRANCH  12  13
ATOM     13  N   UNL     1      45.655   6.525  11.684  0.00  0.00    +0.000 N 
ATOM     14  N   UNL     1      44.715   6.667  12.649  0.00  0.00    +0.000 NA
ATOM     15  C   UNL     1      43.871   5.664  12.389  0.00  0.00    +0.000 A 
ATOM     16  C   UNL     1      44.216   4.947  11.223  0.00  0.00    +0.000 A 
ATOM     17  C   UNL     1      43.741   3.804  10.559  0.00  0.00    +0.000 A 
ATOM     18  C   UNL     1      44.344   3.424   9.353  0.00  0.00    +0.000 A 
ATOM     19  C   UNL     1      45.367   4.191   8.794  0.00  0.00    +0.000 A 
ATOM     20  C   UNL     1      45.873   5.313   9.455  0.00  0.00    +0.000 A 
ATOM     21  C   UNL     1      45.300   5.638  10.693  0.00  0.00    +0.000 A 
ENDBRANCH  12  13
ENDBRANCH   4  12
TORSDOF 5
ENDMDL
MODEL 8
REMARK VINA RESULT:    -5.269      2.029      3.552
REMARK INTER + INTRA:          -7.338
REMARK INTER:                  -6.952
REMARK INTRA:                  -0.385
REMARK UNBOUND:                -0.683
REMARK  Name = 
REMARK  5 active torsions:
REMARK  status: ('A' for Active; 'I' for Inactive)
REMARK    1  A    between atoms: N_1  and  C_2
REMARK    2  A    between atoms: C_2  and  C_3
REMARK    3  A    between atoms: C_3  and  C_4
REMARK    4  A    between atoms: C_7  and  C_8
REMARK    5  A    between atoms: C_8  and  N_9
REMARK                            x       y       z     vdW  Elec       q    Type
REMARK                         _______ _______ _______ _____ _____    ______ ____
ROOT
ATOM      1  C   UNL     1      44.796   3.306   9.788  0.00  0.00    +0.000 A 
ATOM      2  C   UNL     1      45.302   4.579   9.491  0.00  0.00    +0.000 A 
ATOM      3  C   UNL     1      45.385   5.564  10.482  0.00  0.00    +0.000 A 
ATOM      4  C   UNL     1      44.963   5.297  11.792  0.00  0.00    +0.000 A 
ATOM      5  C   UNL     1      44.479   4.016  12.092  0.00  0.00    +0.000 A 
ATOM      6  C   UNL     1      44.403   3.030  11.103  0.00  0.00    +0.000 A 
ENDROOT
BRANCH   1   7
ATOM      7  C   UNL     1      44.655   2.262   8.707  0.00  0.00    +0.000 C 
BRANCH   7   8
ATOM      8  C   UNL     1      45.968   1.528   8.422  0.00  0.00    +0.000 C 
BRANCH   8   9
ATOM      9  N   UNL     1      46.692   2.157   7.316  0.00  0.00    +0.000 NA
ATOM     10  H   UNL     1      46.194   1.980   6.444  0.00  0.00    +0.000 HD
ATOM     11  H   UNL     1      47.608   1.721   7.215  0.00  0.00    +0.000 HD
ENDBRANCH   8   9
ENDBRANCH   7   8
ENDBRANCH   1   7
BRANCH   4  12
ATOM     12  C   UNL     1      44.917   6.396  12.837  0.00  0.00    +0.000 C 
BRANCH  12  13
ATOM     13  N   UNL     1      45.751   7.520  12.418  0.00  0.00    +0.000 N 
ATOM     14  N   UNL     1      47.031   7.592  12.855  0.00  0.00    +0.000 NA
ATOM     15  C   UNL     1      47.299   8.899  12.765  0.00  0.00    +0.000 A 
ATOM     16  C   UNL     1      46.239   9.637  12.196  0.00  0.00    +0.000 A 
ATOM     17  C   UNL     1      45.968  10.993  11.949  0.00  0.00    +0.000 A 
ATOM     18  C   UNL     1      44.778  11.334  11.292  0.00  0.00    +0.000 A 
ATOM     19  C   UNL     1      43.898  10.346  10.849  0.00  0.00    +0.000 A 
ATOM     20  C   UNL     1      44.137   8.995  11.112  0.00  0.00    +0.000 A 
ATOM     21  C   UNL     1      45.300   8.679  11.829  0.00  0.00    +0.000 A 
ENDBRANCH  12  13
ENDBRANCH   4  12
TORSDOF 5
ENDMDL
MODEL 9
REMARK VINA RESULT:    -5.079      1.647      2.060
REMARK INTER + INTRA:          -7.098
REMARK INTER:                  -7.117
REMARK INTRA:                   0.018
REMARK UNBOUND:                -0.683
REMARK  Name = 
REMARK  5 active torsions:
REMARK  status: ('A' for Active; 'I' for Inactive)
REMARK    1  A    between atoms: N_1  and  C_2
REMARK    2  A    between atoms: C_2  and  C_3
REMARK    3  A    between atoms: C_3  and  C_4
REMARK    4  A    between atoms: C_7  and  C_8
REMARK    5  A    between atoms: C_8  and  N_9
REMARK                            x       y       z     vdW  Elec       q    Type
REMARK                         _______ _______ _______ _____ _____    ______ ____
ROOT
ATOM      1  C   UNL     1      46.568   2.268   7.678  0.00  0.00    +0.000 A 
ATOM      2  C   UNL     1      46.461   3.628   7.357  0.00  0.00    +0.000 A 
ATOM      3  C   UNL     1      45.580   4.460   8.057  0.00  0.00    +0.000 A 
ATOM      4  C   UNL     1      44.785   3.949   9.094  0.00  0.00    +0.000 A 
ATOM      5  C   UNL     1      44.911   2.593   9.428  0.00  0.00    +0.000 A 
ATOM      6  C   UNL     1      45.798   1.764   8.733  0.00  0.00    +0.000 A 
ENDROOT
BRANCH   1   7
ATOM      7  C   UNL     1      47.477   1.360   6.886  0.00  0.00    +0.000 C 
BRANCH   7   8
ATOM      8  C   UNL     1      46.802   0.040   6.504  0.00  0.00    +0.000 C 
BRANCH   8   9
ATOM      9  N   UNL     1      46.806  -0.897   7.629  0.00  0.00    +0.000 NA
ATOM     10  H   UNL     1      47.532  -1.597   7.481  0.00  0.00    +0.000 HD
ATOM     11  H   UNL     1      45.922  -1.405   7.656  0.00  0.00    +0.000 HD
ENDBRANCH   8   9
ENDBRANCH   7   8
ENDBRANCH   1   7
BRANCH   4  12
ATOM     12  C   UNL     1      43.728   4.806   9.764  0.00  0.00    +0.000 C 
BRANCH  12  13
ATOM     13  N   UNL     1      44.120   5.099  11.140  0.00  0.00    +0.000 N 
ATOM     14  N   UNL     1      43.232   4.881  12.140  0.00  0.00    +0.000 NA
ATOM     15  C   UNL     1      43.661   5.708  13.099  0.00  0.00    +0.000 A 
ATOM     16  C   UNL     1      44.854   6.377  12.752  0.00  0.00    +0.000 A 
ATOM     17  C   UNL     1      45.663   7.370  13.329  0.00  0.00    +0.000 A 
ATOM     18  C   UNL     1      46.842   7.747  12.671  0.00  0.00    +0.000 A 
ATOM     19  C   UNL     1      47.233   7.116  11.489  0.00  0.00    +0.000 A 
ATOM     20  C   UNL     1      46.426   6.148  10.886  0.00  0.00    +0.000 A 
ATOM     21  C   UNL     1      45.218   5.834  11.525  0.00  0.00    +0.000 A 
ENDBRANCH  12  13
ENDBRANCH   4  12
TORSDOF 5
ENDMDL
