MODEL 1
REMARK VINA RESULT:    -9.025      0.000      0.000
REMARK INTER + INTRA:         -13.019
REMARK INTER:                 -12.191
REMARK INTRA:                  -0.828
REMARK UNBOUND:                -0.828
REMARK  Name = 
REMARK  7 active torsions:
REMARK  status: ('A' for Active; 'I' for Inactive)
REMARK    1  A    between atoms: C_1  and  C_2
REMARK    2  A    between atoms: C_2  and  N_3
REMARK    3  A    between atoms: C_2  and  C_16
REMARK    4  A    between atoms: C_4  and  C_6
REMARK    5  A    between atoms: C_19  and  O_20
REMARK    6  A    between atoms: O_20  and  C_21
REMARK    7  A    between atoms: C_21  and  C_22
REMARK                            x       y       z     vdW  Elec       q    Type
REMARK                         _______ _______ _______ _____ _____    ______ ____
ROOT
ATOM      1  C   UNL     1      45.580   8.877  12.868  0.00  0.00    +0.000 C 
ATOM      2  C   UNL     1      46.599   7.738  12.774  0.00  0.00    +0.000 C 
ENDROOT
BRANCH   2   3
ATOM      3  C   UNL     1      45.977   6.598  11.977  0.00  0.00    +0.000 A 
ATOM      4  C   UNL     1      45.035   5.693  12.489  0.00  0.00    +0.000 A 
ATOM      5  C   UNL     1      44.437   4.752  11.647  0.00  0.00    +0.000 A 
ATOM      6  C   UNL     1      44.810   4.725  10.310  0.00  0.00    +0.000 A 
ATOM      7  N   UNL     1      45.725   5.567   9.787  0.00  0.00    +0.000 NA
ATOM      8  C   UNL     1      46.280   6.470  10.625  0.00  0.00    +0.000 A 
BRANCH   6   9
ATOM      9  O   UNL     1      44.164   3.845   9.466  0.00  0.00    +0.000 OA
BRANCH   9  10
ATOM     10  C   UNL     1      44.757   2.540   9.496  0.00  0.00    +0.000 C 
BRANCH  10  11
ATOM     11  C   UNL     1      45.648   2.364   8.286  0.00  0.00    +0.000 A 
ATOM     12  C   UNL     1      45.761   3.387   7.333  0.00  0.00    +0.000 A 
ATOM     13  C   UNL     1      46.613   3.244   6.237  0.00  0.00    +0.000 A 
ATOM     14  C   UNL     1      47.367   2.081   6.086  0.00  0.00    +0.000 A 
ATOM     15  C   UNL     1      47.261   1.057   7.026  0.00  0.00    +0.000 A 
ATOM     16  C   UNL     1      46.407   1.197   8.121  0.00  0.00    +0.000 A 
ENDBRANCH  10  11
ENDBRANCH   9  10
ENDBRANCH   6   9
ENDBRANCH   2   3
BRANCH   2  17
ATOM     17  N   UNL     1      47.058   7.308  14.085  0.00  0.00    +0.000 N 
ATOM     18  C   UNL     1      48.234   6.636  14.282  0.00  0.00    +0.000 C 
ATOM     19  O   UNL     1      49.015   6.364  13.375  0.00  0.00    +0.000 OA
ATOM     20  H   UNL     1      46.324   7.141  14.767  0.00  0.00    +0.000 HD
BRANCH  18  21
ATOM     21  C   UNL     1      48.554   6.297  15.674  0.00  0.00    +0.000 A 
ATOM     22  C   UNL     1      49.345   7.144  16.441  0.00  0.00    +0.000 A 
ATOM     23  S   UNL     1      49.625   6.564  18.023  0.00  0.00    +0.000 S 
ATOM     24  C   UNL     1      48.723   5.151  17.725  0.00  0.00    +0.000 A 
ATOM     25  N   UNL     1      48.602   4.178  18.668  0.00  0.00    +0.000 NA
ATOM     26  C   UNL     1      47.923   3.146  18.287  0.00  0.00    +0.000 A 
ATOM     27  N   UNL     1      47.331   3.010  17.056  0.00  0.00    +0.000 N 
ATOM     28  C   UNL     1      47.369   3.997  16.103  0.00  0.00    +0.000 A 
ATOM     29  O   UNL     1      46.735   3.896  15.059  0.00  0.00    +0.000 OA
ATOM     30  C   UNL     1      48.177   5.146  16.456  0.00  0.00    +0.000 A 
ATOM     31  H   UNL     1      46.784   2.195  16.831  0.00  0.00    +0.000 HD
ENDBRANCH  18  21
ENDBRANCH   2  17
TORSDOF 6
ENDMDL
MODEL 2
REMARK VINA RESULT:    -8.601      1.621      2.111
REMARK INTER + INTRA:         -12.445
REMARK INTER:                 -11.451
REMARK INTRA:                  -0.994
REMARK UNBOUND:                -0.828
REMARK  Name = 
REMARK  7 active torsions:
REMARK  status: ('A' for Active; 'I' for Inactive)
REMARK    1  A    between atoms: C_1  and  C_2
REMARK    2  A    between atoms: C_2  and  N_3
REMARK    3  A    between atoms: C_2  and  C_16
REMARK    4  A    between atoms: C_4  and  C_6
REMARK    5  A    between atoms: C_19  and  O_20
REMARK    6  A    between atoms: O_20  and  C_21
REMARK    7  A    between atoms: C_21  and  C_22
REMARK                            x       y       z     vdW  Elec       q    Type
REMARK                         _______ _______ _______ _____ _____    ______ ____
ROOT
ATOM      1  C   UNL     1      48.117   8.369  12.755  0.00  0.00    +0.000 C 
ATOM      2  C   UNL     1      48.108   6.950  13.329  0.00  0.00    +0.000 C 
ENDROOT
BRANCH   2   3
ATOM      3  C   UNL     1      47.012   6.153  12.632  0.00  0.00    +0.000 A 
ATOM      4  C   UNL     1      46.406   6.526  11.423  0.00  0.00    +0.000 A 
ATOM      5  C   UNL     1      45.492   5.670  10.804  0.00  0.00    +0.000 A 
ATOM      6  C   UNL     1      45.189   4.464  11.419  0.00  0.00    +0.000 A 
ATOM      7  N   UNL     1      45.738   4.080  12.590  0.00  0.00    +0.000 NA
ATOM      8  C   UNL     1      46.624   4.926  13.160  0.00  0.00    +0.000 A 
BRANCH   6   9
ATOM      9  O   UNL     1      44.342   3.590  10.769  0.00  0.00    +0.000 OA
BRANCH   9  10
ATOM     10  C   UNL     1      44.215   3.901   9.376  0.00  0.00    +0.000 C 
BRANCH  10  11
ATOM     11  C   UNL     1      45.275   3.158   8.594  0.00  0.00    +0.000 A 
ATOM     12  C   UNL     1      45.444   1.775   8.765  0.00  0.00    +0.000 A 
ATOM     13  C   UNL     1      46.394   1.080   8.015  0.00  0.00    +0.000 A 
ATOM     14  C   UNL     1      47.178   1.755   7.082  0.00  0.00    +0.000 A 
ATOM     15  C   UNL     1      47.021   3.129   6.905  0.00  0.00    +0.000 A 
ATOM     16  C   UNL     1      46.074   3.828   7.656  0.00  0.00    +0.000 A 
ENDBRANCH  10  11
ENDBRANCH   9  10
ENDBRANCH   6   9
ENDBRANCH   2   3
BRANCH   2  17
ATOM     17  N   UNL     1      47.956   6.948  14.775  0.00  0.00    +0.000 N 
ATOM     18  C   UNL     1      49.005   6.784  15.637  0.00  0.00    +0.000 C 
ATOM     19  O   UNL     1      50.168   6.653  15.267  0.00  0.00    +0.000 OA
ATOM     20  H   UNL     1      47.044   6.653  15.113  0.00  0.00    +0.000 HD
BRANCH  18  21
ATOM     21  C   UNL     1      48.674   6.831  17.067  0.00  0.00    +0.000 A 
ATOM     22  C   UNL     1      48.316   8.031  17.668  0.00  0.00    +0.000 A 
ATOM     23  S   UNL     1      47.993   7.885  19.339  0.00  0.00    +0.000 S 
ATOM     24  C   UNL     1      48.351   6.221  19.319  0.00  0.00    +0.000 A 
ATOM     25  N   UNL     1      48.321   5.478  20.458  0.00  0.00    +0.000 NA
ATOM     26  C   UNL     1      48.655   4.239  20.298  0.00  0.00    +0.000 A 
ATOM     27  N   UNL     1      48.989   3.668  19.096  0.00  0.00    +0.000 N 
ATOM     28  C   UNL     1      48.963   4.365  17.913  0.00  0.00    +0.000 A 
ATOM     29  O   UNL     1      49.153   3.802  16.840  0.00  0.00    +0.000 OA
ATOM     30  C   UNL     1      48.662   5.775  18.049  0.00  0.00    +0.000 A 
ATOM     31  H   UNL     1      49.206   2.687  19.029  0.00  0.00    +0.000 HD
ENDBRANCH  18  21
ENDBRANCH   2  17
TORSDOF 6
ENDMDL
MODEL 3
REMARK VINA RESULT:    -8.386      1.971      2.490
REMARK INTER + INTRA:         -12.155
REMARK INTER:                 -11.025
REMARK INTRA:                  -1.130
REMARK UNBOUND:                -0.828
REMARK  Name = 
REMARK  7 active torsions:
REMARK  status: ('A' for Active; 'I' for Inactive)
REMARK    1  A    between atoms: C_1  and  C_2
REMARK    2  A    between atoms: C_2  and  N_3
REMARK    3  A    between atoms: C_2  and  C_16
REMARK    4  A    between atoms: C_4  and  C_6
REMARK    5  A    between atoms: C_19  and  O_20
REMARK    6  A    between atoms: O_20  and  C_21
REMARK    7  A    between atoms: C_21  and  C_22
REMARK                            x       y       z     vdW  Elec       q    Type
REMARK                         _______ _______ _______ _____ _____    ______ ____
ROOT
ATOM      1  C   UNL     1      46.796   8.528  13.477  0.00  0.00    +0.000 C 
ATOM      2  C   UNL     1      47.551   7.200  13.574  0.00  0.00    +0.000 C 
ENDROOT
BRANCH   2   3
ATOM      3  C   UNL     1      46.792   6.153  12.766  0.00  0.00    +0.000 A 
ATOM      4  C   UNL     1      46.357   4.920  13.274  0.00  0.00    +0.000 A 
ATOM      5  C   UNL     1      45.569   4.076  12.488  0.00  0.00    +0.000 A 
ATOM      6  C   UNL     1      45.247   4.478  11.200  0.00  0.00    +0.000 A 
ATOM      7  N   UNL     1      45.662   5.649  10.671  0.00  0.00    +0.000 NA
ATOM      8  C   UNL     1      46.416   6.445  11.459  0.00  0.00    +0.000 A 
BRANCH   6   9
ATOM      9  O   UNL     1      44.408   3.677  10.452  0.00  0.00    +0.000 OA
BRANCH   9  10
ATOM     10  C   UNL     1      44.408   4.045   9.067  0.00  0.00    +0.000 C 
BRANCH  10  11
ATOM     11  C   UNL     1      45.369   3.156   8.309  0.00  0.00    +0.000 A 
ATOM     12  C   UNL     1      46.150   3.680   7.268  0.00  0.00    +0.000 A 
ATOM     13  C   UNL     1      47.067   2.871   6.595  0.00  0.00    +0.000 A 
ATOM     14  C   UNL     1      47.219   1.534   6.959  0.00  0.00    +0.000 A 
ATOM     15  C   UNL     1      46.446   1.003   7.990  0.00  0.00    +0.000 A 
ATOM     16  C   UNL     1      45.526   1.808   8.663  0.00  0.00    +0.000 A 
ENDBRANCH  10  11
ENDBRANCH   9  10
ENDBRANCH   6   9
ENDBRANCH   2   3
BRANCH   2  17
ATOM     17  N   UNL     1      47.755   6.789  14.953  0.00  0.00    +0.000 N 
ATOM     18  C   UNL     1      48.995   6.654  15.517  0.00  0.00    +0.000 C 
ATOM     19  O   UNL     1      50.038   6.896  14.918  0.00  0.00    +0.000 OA
ATOM     20  H   UNL     1      47.015   6.215  15.347  0.00  0.00    +0.000 HD
BRANCH  18  21
ATOM     21  C   UNL     1      49.017   6.252  16.929  0.00  0.00    +0.000 A 
ATOM     22  C   UNL     1      49.524   5.013  17.300  0.00  0.00    +0.000 A 
ATOM     23  S   UNL     1      49.439   4.720  18.981  0.00  0.00    +0.000 S 
ATOM     24  C   UNL     1      48.695   6.225  19.262  0.00  0.00    +0.000 A 
ATOM     25  N   UNL     1      48.299   6.596  20.510  0.00  0.00    +0.000 NA
ATOM     26  C   UNL     1      47.712   7.746  20.565  0.00  0.00    +0.000 A 
ATOM     27  N   UNL     1      47.511   8.574  19.489  0.00  0.00    +0.000 N 
ATOM     28  C   UNL     1      47.957   8.270  18.227  0.00  0.00    +0.000 A 
ATOM     29  O   UNL     1      47.866   9.077  17.309  0.00  0.00    +0.000 OA
ATOM     30  C   UNL     1      48.560   6.959  18.100  0.00  0.00    +0.000 A 
ATOM     31  H   UNL     1      47.078   9.476  19.602  0.00  0.00    +0.000 HD
ENDBRANCH  18  21
ENDBRANCH   2  17
TORSDOF 6
ENDMDL
MODEL 4
REMARK VINA RESULT:    -8.108      2.781      4.071
REMARK INTER + INTRA:         -11.779
REMARK INTER:                 -10.607
REMARK INTRA:                  -1.172
REMARK UNBOUND:                -0.828
REMARK  Name = 
REMARK  7 active torsions:
REMARK  status: ('A' for Active; 'I' for Inactive)
REMARK    1  A    between atoms: C_1  and  C_2
REMARK    2  A    between atoms: C_2  and  N_3
REMARK    3  A    between atoms: C_2  and  C_16
REMARK    4  A    between atoms: C_4  and  C_6
REMARK    5  A    between atoms: C_19  and  O_20
REMARK    6  A    between atoms: O_20  and  C_21
REMARK    7  A    between atoms: C_21  and  C_22
REMARK                            x       y       z     vdW  Elec       q    Type
REMARK                         _______ _______ _______ _____ _____    ______ ____
ROOT
ATOM      1  C   UNL     1      47.115   4.413  14.795  0.00  0.00    +0.000 C 
ATOM      2  C   UNL     1      46.760   5.639  13.949  0.00  0.00    +0.000 C 
ENDROOT
BRANCH   2   3
ATOM      3  C   UNL     1      45.969   5.174  12.732  0.00  0.00    +0.000 A 
ATOM      4  C   UNL     1      45.851   5.900  11.538  0.00  0.00    +0.000 A 
ATOM      5  C   UNL     1      45.199   5.337  10.437  0.00  0.00    +0.000 A 
ATOM      6  C   UNL     1      44.663   4.064  10.562  0.00  0.00    +0.000 A 
ATOM      7  N   UNL     1      44.742   3.343  11.700  0.00  0.00    +0.000 NA
ATOM      8  C   UNL     1      45.384   3.911  12.743  0.00  0.00    +0.000 A 
BRANCH   6   9
ATOM      9  O   UNL     1      44.086   3.482   9.451  0.00  0.00    +0.000 OA
BRANCH   9  10
ATOM     10  C   UNL     1      44.614   2.175   9.194  0.00  0.00    +0.000 C 
BRANCH  10  11
ATOM     11  C   UNL     1      45.683   2.265   8.127  0.00  0.00    +0.000 A 
ATOM     12  C   UNL     1      46.582   1.205   7.932  0.00  0.00    +0.000 A 
ATOM     13  C   UNL     1      47.543   1.268   6.922  0.00  0.00    +0.000 A 
ATOM     14  C   UNL     1      47.612   2.386   6.092  0.00  0.00    +0.000 A 
ATOM     15  C   UNL     1      46.726   3.445   6.278  0.00  0.00    +0.000 A 
ATOM     16  C   UNL     1      45.766   3.386   7.290  0.00  0.00    +0.000 A 
ENDBRANCH  10  11
ENDBRANCH   9  10
ENDBRANCH   6   9
ENDBRANCH   2   3
BRANCH   2  17
ATOM     17  N   UNL     1      47.939   6.405  13.580  0.00  0.00    +0.000 N 
ATOM     18  C   UNL     1      47.970   7.773  13.576  0.00  0.00    +0.000 C 
ATOM     19  O   UNL     1      47.018   8.470  13.910  0.00  0.00    +0.000 OA
ATOM     20  H   UNL     1      48.576   5.937  12.941  0.00  0.00    +0.000 HD
BRANCH  18  21
ATOM     21  C   UNL     1      49.251   8.384  13.197  0.00  0.00    +0.000 A 
ATOM     22  C   UNL     1      49.322   9.261  12.122  0.00  0.00    +0.000 A 
ATOM     23  S   UNL     1      50.900   9.845  11.825  0.00  0.00    +0.000 S 
ATOM     24  C   UNL     1      51.542   8.922  13.103  0.00  0.00    +0.000 A 
ATOM     25  N   UNL     1      52.876   8.917  13.370  0.00  0.00    +0.000 NA
ATOM     26  C   UNL     1      53.224   8.139  14.342  0.00  0.00    +0.000 A 
ATOM     27  N   UNL     1      52.355   7.385  15.090  0.00  0.00    +0.000 N 
ATOM     28  C   UNL     1      50.996   7.415  14.899  0.00  0.00    +0.000 A 
ATOM     29  O   UNL     1      50.235   6.822  15.656  0.00  0.00    +0.000 OA
ATOM     30  C   UNL     1      50.562   8.219  13.776  0.00  0.00    +0.000 A 
ATOM     31  H   UNL     1      52.683   6.825  15.859  0.00  0.00    +0.000 HD
ENDBRANCH  18  21
ENDBRANCH   2  17
TORSDOF 6
ENDMDL
MODEL 5
REMARK VINA RESULT:    -7.961      2.716      4.514
REMARK INTER + INTRA:         -11.581
REMARK INTER:                 -10.335
REMARK INTRA:                  -1.246
REMARK UNBOUND:                -0.828
REMARK  Name = 
REMARK  7 active torsions:
REMARK  status: ('A' for Active; 'I' for Inactive)
REMARK    1  A    between atoms: C_1  and  C_2
REMARK    2  A    between atoms: C_2  and  N_3
REMARK    3  A    between atoms: C_2  and  C_16
REMARK    4  A    between atoms: C_4  and  C_6
REMARK    5  A    between atoms: C_19  and  O_20
REMARK    6  A    between atoms: O_20  and  C_21
REMARK    7  A    between atoms: C_21  and  C_22
REMARK                            x       y       z     vdW  Elec       q    Type
REMARK                         _______ _______ _______ _____ _____    ______ ____
ROOT
ATOM      1  C   UNL     1      47.222   4.431  15.042  0.00  0.00    +0.000 C 
ATOM      2  C   UNL     1      47.003   5.688  14.197  0.00  0.00    +0.000 C 
ENDROOT
BRANCH   2   3
ATOM      3  C   UNL     1      46.199   5.305  12.960  0.00  0.00    +0.000 A 
ATOM      4  C   UNL     1      46.130   6.074  11.789  0.00  0.00    +0.000 A 
ATOM      5  C   UNL     1      45.459   5.583  10.666  0.00  0.00    +0.000 A 
ATOM      6  C   UNL     1      44.855   4.336  10.746  0.00  0.00    +0.000 A 
ATOM      7  N   UNL     1      44.885   3.577  11.861  0.00  0.00    +0.000 NA
ATOM      8  C   UNL     1      45.547   4.077  12.927  0.00  0.00    +0.000 A 
BRANCH   6   9
ATOM      9  O   UNL     1      44.257   3.822   9.613  0.00  0.00    +0.000 OA
BRANCH   9  10
ATOM     10  C   UNL     1      44.628   2.457   9.383  0.00  0.00    +0.000 C 
BRANCH  10  11
ATOM     11  C   UNL     1      45.660   2.395   8.279  0.00  0.00    +0.000 A 
ATOM     12  C   UNL     1      46.403   1.223   8.067  0.00  0.00    +0.000 A 
ATOM     13  C   UNL     1      47.327   1.149   7.024  0.00  0.00    +0.000 A 
ATOM     14  C   UNL     1      47.513   2.240   6.177  0.00  0.00    +0.000 A 
ATOM     15  C   UNL     1      46.783   3.410   6.379  0.00  0.00    +0.000 A 
ATOM     16  C   UNL     1      45.860   3.488   7.425  0.00  0.00    +0.000 A 
ENDBRANCH  10  11
ENDBRANCH   9  10
ENDBRANCH   6   9
ENDBRANCH   2   3
BRANCH   2  17
ATOM     17  N   UNL     1      48.255   6.343  13.858  0.00  0.00    +0.000 N 
ATOM     18  C   UNL     1      48.854   7.274  14.663  0.00  0.00    +0.000 C 
ATOM     19  O   UNL     1      48.402   7.615  15.752  0.00  0.00    +0.000 OA
ATOM     20  H   UNL     1      48.451   6.414  12.864  0.00  0.00    +0.000 HD
BRANCH  18  21
ATOM     21  C   UNL     1      50.129   7.817  14.177  0.00  0.00    +0.000 A 
ATOM     22  C   UNL     1      51.293   7.651  14.917  0.00  0.00    +0.000 A 
ATOM     23  S   UNL     1      52.663   8.376  14.199  0.00  0.00    +0.000 S 
ATOM     24  C   UNL     1      51.739   8.960  12.893  0.00  0.00    +0.000 A 
ATOM     25  N   UNL     1      52.299   9.725  11.918  0.00  0.00    +0.000 NA
ATOM     26  C   UNL     1      51.469  10.130  11.013  0.00  0.00    +0.000 A 
ATOM     27  N   UNL     1      50.134   9.816  10.980  0.00  0.00    +0.000 N 
ATOM     28  C   UNL     1      49.545   8.990  11.904  0.00  0.00    +0.000 A 
ATOM     29  O   UNL     1      48.378   8.633  11.785  0.00  0.00    +0.000 OA
ATOM     30  C   UNL     1      50.418   8.565  12.978  0.00  0.00    +0.000 A 
ATOM     31  H   UNL     1      49.544  10.133  10.228  0.00  0.00    +0.000 HD
ENDBRANCH  18  21
ENDBRANCH   2  17
TORSDOF 6
ENDMDL
MODEL 6
REMARK VINA RESULT:    -7.744      3.195      4.823
REMARK INTER + INTRA:         -11.288
REMARK INTER:                  -9.981
REMARK INTRA:                  -1.307
REMARK UNBOUND:                -0.828
REMARK  Name = 
REMARK  7 active torsions:
REMARK  status: ('A' for Active; 'I' for Inactive)
REMARK    1  A    between atoms: C_1  and  C_2
REMARK    2  A    between atoms: C_2  and  N_3
REMARK    3  A    between atoms: C_2  and  C_16
REMARK    4  A    between atoms: C_4  and  C_6
REMARK    5  A    between atoms: C_19  and  O_20
REMARK    6  A    between atoms: O_20  and  C_21
REMARK    7  A    between atoms: C_21  and  C_22
REMARK                            x       y       z     vdW  Elec       q    Type
REMARK                         _______ _______ _______ _____ _____    ______ ____
ROOT
ATOM      1  C   UNL     1      48.241   6.855  18.473  0.00  0.00    +0.000 C 
ATOM      2  C   UNL     1      49.153   6.391  17.334  0.00  0.00    +0.000 C 
ENDROOT
BRANCH   2   3
ATOM      3  C   UNL     1      48.286   5.783  16.238  0.00  0.00    +0.000 A 
ATOM      4  C   UNL     1      48.228   6.255  14.918  0.00  0.00    +0.000 A 
ATOM      5  C   UNL     1      47.490   5.560  13.956  0.00  0.00    +0.000 A 
ATOM      6  C   UNL     1      46.809   4.414  14.342  0.00  0.00    +0.000 A 
ATOM      7  N   UNL     1      46.827   3.941  15.606  0.00  0.00    +0.000 NA
ATOM      8  C   UNL     1      47.555   4.631  16.510  0.00  0.00    +0.000 A 
BRANCH   6   9
ATOM      9  O   UNL     1      46.143   3.690  13.375  0.00  0.00    +0.000 OA
BRANCH   9  10
ATOM     10  C   UNL     1      45.022   4.408  12.843  0.00  0.00    +0.000 C 
BRANCH  10  11
ATOM     11  C   UNL     1      45.028   4.303  11.334  0.00  0.00    +0.000 A 
ATOM     12  C   UNL     1      45.599   5.321  10.554  0.00  0.00    +0.000 A 
ATOM     13  C   UNL     1      45.642   5.208   9.164  0.00  0.00    +0.000 A 
ATOM     14  C   UNL     1      45.123   4.076   8.538  0.00  0.00    +0.000 A 
ATOM     15  C   UNL     1      44.551   3.060   9.303  0.00  0.00    +0.000 A 
ATOM     16  C   UNL     1      44.503   3.172  10.693  0.00  0.00    +0.000 A 
ENDBRANCH  10  11
ENDBRANCH   9  10
ENDBRANCH   6   9
ENDBRANCH   2   3
BRANCH   2  17
ATOM     17  N   UNL     1      50.179   5.472  17.797  0.00  0.00    +0.000 N 
ATOM     18  C   UNL     1      51.436   5.422  17.259  0.00  0.00    +0.000 C 
ATOM     19  O   UNL     1      51.815   6.167  16.361  0.00  0.00    +0.000 OA
ATOM     20  H   UNL     1      49.833   4.613  18.215  0.00  0.00    +0.000 HD
BRANCH  18  21
ATOM     21  C   UNL     1      52.354   4.448  17.863  0.00  0.00    +0.000 A 
ATOM     22  C   UNL     1      53.489   4.877  18.541  0.00  0.00    +0.000 A 
ATOM     23  S   UNL     1      54.442   3.596  19.149  0.00  0.00    +0.000 S 
ATOM     24  C   UNL     1      53.385   2.429  18.501  0.00  0.00    +0.000 A 
ATOM     25  N   UNL     1      53.646   1.098  18.616  0.00  0.00    +0.000 NA
ATOM     26  C   UNL     1      52.778   0.332  18.040  0.00  0.00    +0.000 A 
ATOM     27  N   UNL     1      51.658   0.774  17.383  0.00  0.00    +0.000 N 
ATOM     28  C   UNL     1      51.322   2.103  17.305  0.00  0.00    +0.000 A 
ATOM     29  O   UNL     1      50.257   2.461  16.813  0.00  0.00    +0.000 OA
ATOM     30  C   UNL     1      52.298   3.007  17.875  0.00  0.00    +0.000 A 
ATOM     31  H   UNL     1      50.999   0.125  16.985  0.00  0.00    +0.000 HD
ENDBRANCH  18  21
ENDBRANCH   2  17
TORSDOF 6
ENDMDL
MODEL 7
REMARK VINA RESULT:    -7.573      3.136      8.397
REMARK INTER + INTRA:         -11.057
REMARK INTER:                  -9.901
REMARK INTRA:                  -1.156
REMARK UNBOUND:                -0.828
REMARK  Name = 
REMARK  7 active torsions:
REMARK  status: ('A' for Active; 'I' for Inactive)
REMARK    1  A    between atoms: C_1  and  C_2
REMARK    2  A    between atoms: C_2  and  N_3
REMARK    3  A    between atoms: C_2  and  C_16
REMARK    4  A    between atoms: C_4  and  C_6
REMARK    5  A    between atoms: C_19  and  O_20
REMARK    6  A    between atoms: O_20  and  C_21
REMARK    7  A    between atoms: C_21  and  C_22
REMARK                            x       y       z     vdW  Elec       q    Type
REMARK                         _______ _______ _______ _____ _____    ______ ____
ROOT
ATOM      1  C   UNL     1      48.728   7.810  11.589  0.00  0.00    +0.000 C 
ATOM      2  C   UNL     1      47.809   7.301  12.703  0.00  0.00    +0.000 C 
ENDROOT
BRANCH   2   3
ATOM      3  C   UNL     1      48.666   6.942  13.911  0.00  0.00    +0.000 A 
ATOM      4  C   UNL     1      49.875   7.572  14.242  0.00  0.00    +0.000 A 
ATOM      5  C   UNL     1      50.530   7.251  15.433  0.00  0.00    +0.000 A 
ATOM      6  C   UNL     1      49.968   6.290  16.261  0.00  0.00    +0.000 A 
ATOM      7  N   UNL     1      48.817   5.650  15.968  0.00  0.00    +0.000 NA
ATOM      8  C   UNL     1      48.204   5.989  14.812  0.00  0.00    +0.000 A 
BRANCH   6   9
ATOM      9  O   UNL     1      50.578   6.028  17.471  0.00  0.00    +0.000 OA
BRANCH   9  10
ATOM     10  C   UNL     1      49.990   4.903  18.137  0.00  0.00    +0.000 C 
BRANCH  10  11
ATOM     11  C   UNL     1      50.890   3.698  17.980  0.00  0.00    +0.000 A 
ATOM     12  C   UNL     1      50.383   2.496  17.462  0.00  0.00    +0.000 A 
ATOM     13  C   UNL     1      51.221   1.395  17.277  0.00  0.00    +0.000 A 
ATOM     14  C   UNL     1      52.574   1.484  17.600  0.00  0.00    +0.000 A 
ATOM     15  C   UNL     1      53.088   2.672  18.118  0.00  0.00    +0.000 A 
ATOM     16  C   UNL     1      52.251   3.774  18.307  0.00  0.00    +0.000 A 
ENDBRANCH  10  11
ENDBRANCH   9  10
ENDBRANCH   6   9
ENDBRANCH   2   3
BRANCH   2  17
ATOM     17  N   UNL     1      46.984   6.188  12.263  0.00  0.00    +0.000 N 
ATOM     18  C   UNL     1      45.616   6.234  12.241  0.00  0.00    +0.000 C 
ATOM     19  O   UNL     1      44.970   7.226  12.563  0.00  0.00    +0.000 OA
ATOM     20  H   UNL     1      47.403   5.269  12.374  0.00  0.00    +0.000 HD
BRANCH  18  21
ATOM     21  C   UNL     1      44.942   5.027  11.746  0.00  0.00    +0.000 A 
ATOM     22  C   UNL     1      44.134   4.276  12.591  0.00  0.00    +0.000 A 
ATOM     23  S   UNL     1      43.461   2.898  11.838  0.00  0.00    +0.000 S 
ATOM     24  C   UNL     1      44.250   3.245  10.370  0.00  0.00    +0.000 A 
ATOM     25  N   UNL     1      44.142   2.417   9.297  0.00  0.00    +0.000 NA
ATOM     26  C   UNL     1      44.828   2.786   8.265  0.00  0.00    +0.000 A 
ATOM     27  N   UNL     1      45.591   3.925   8.200  0.00  0.00    +0.000 N 
ATOM     28  C   UNL     1      45.671   4.823   9.235  0.00  0.00    +0.000 A 
ATOM     29  O   UNL     1      46.265   5.888   9.108  0.00  0.00    +0.000 OA
ATOM     30  C   UNL     1      44.975   4.419  10.439  0.00  0.00    +0.000 A 
ATOM     31  H   UNL     1      46.076   4.177   7.354  0.00  0.00    +0.000 HD
ENDBRANCH  18  21
ENDBRANCH   2  17
TORSDOF 6
ENDMDL
MODEL 8
REMARK VINA RESULT:    -7.278      1.852      2.588
REMARK INTER + INTRA:         -10.659
REMARK INTER:                 -10.421
REMARK INTRA:                  -0.238
REMARK UNBOUND:                -0.828
REMARK  Name = 
REMARK  7 active torsions:
REMARK  status: ('A' for Active; 'I' for Inactive)
REMARK    1  A    between atoms: C_1  and  C_2
REMARK    2  A    between atoms: C_2  and  N_3
REMARK    3  A    between atoms: C_2  and  C_16
REMARK    4  A    between atoms: C_4  and  C_6
REMARK    5  A    between atoms: C_19  and  O_20
REMARK    6  A    between atoms: O_20  and  C_21
REMARK    7  A    between atoms: C_21  and  C_22
REMARK                            x       y       z     vdW  Elec       q    Type
REMARK                         _______ _______ _______ _____ _____    ______ ____
ROOT
ATOM      1  C   UNL     1      46.846   8.426  13.719  0.00  0.00    +0.000 C 
ATOM      2  C   UNL     1      47.574   7.101  13.475  0.00  0.00    +0.000 C 
ENDROOT
BRANCH   2   3
ATOM      3  C   UNL     1      46.713   6.238  12.560  0.00  0.00    +0.000 A 
ATOM      4  C   UNL     1      46.184   4.988  12.914  0.00  0.00    +0.000 A 
ATOM      5  C   UNL     1      45.311   4.325  12.048  0.00  0.00    +0.000 A 
ATOM      6  C   UNL     1      45.000   4.921  10.834  0.00  0.00    +0.000 A 
ATOM      7  N   UNL     1      45.504   6.113  10.451  0.00  0.00    +0.000 NA
ATOM      8  C   UNL     1      46.339   6.732  11.314  0.00  0.00    +0.000 A 
BRANCH   6   9
ATOM      9  O   UNL     1      44.081   4.299  10.014  0.00  0.00    +0.000 OA
BRANCH   9  10
ATOM     10  C   UNL     1      44.355   2.900   9.863  0.00  0.00    +0.000 C 
BRANCH  10  11
ATOM     11  C   UNL     1      45.310   2.695   8.708  0.00  0.00    +0.000 A 
ATOM     12  C   UNL     1      45.916   1.447   8.501  0.00  0.00    +0.000 A 
ATOM     13  C   UNL     1      46.765   1.243   7.412  0.00  0.00    +0.000 A 
ATOM     14  C   UNL     1      47.011   2.281   6.515  0.00  0.00    +0.000 A 
ATOM     15  C   UNL     1      46.416   3.526   6.712  0.00  0.00    +0.000 A 
ATOM     16  C   UNL     1      45.569   3.733   7.802  0.00  0.00    +0.000 A 
ENDBRANCH  10  11
ENDBRANCH   9  10
ENDBRANCH   6   9
ENDBRANCH   2   3
BRANCH   2  17
ATOM     17  N   UNL     1      47.906   6.425  14.718  0.00  0.00    +0.000 N 
ATOM     18  C   UNL     1      49.066   6.654  15.407  0.00  0.00    +0.000 C 
ATOM     19  O   UNL     1      49.911   7.469  15.052  0.00  0.00    +0.000 OA
ATOM     20  H   UNL     1      47.484   5.508  14.837  0.00  0.00    +0.000 HD
BRANCH  18  21
ATOM     21  C   UNL     1      49.229   5.900  16.656  0.00  0.00    +0.000 A 
ATOM     22  C   UNL     1      48.120   5.396  17.325  0.00  0.00    +0.000 A 
ATOM     23  S   UNL     1      48.513   4.573  18.769  0.00  0.00    +0.000 S 
ATOM     24  C   UNL     1      50.173   4.888  18.562  0.00  0.00    +0.000 A 
ATOM     25  N   UNL     1      51.088   4.496  19.490  0.00  0.00    +0.000 NA
ATOM     26  C   UNL     1      52.305   4.839  19.220  0.00  0.00    +0.000 A 
ATOM     27  N   UNL     1      52.694   5.516  18.092  0.00  0.00    +0.000 N 
ATOM     28  C   UNL     1      51.814   5.869  17.099  0.00  0.00    +0.000 A 
ATOM     29  O   UNL     1      52.206   6.369  16.050  0.00  0.00    +0.000 OA
ATOM     30  C   UNL     1      50.428   5.567  17.386  0.00  0.00    +0.000 A 
ATOM     31  H   UNL     1      53.664   5.725  17.920  0.00  0.00    +0.000 HD
ENDBRANCH  18  21
ENDBRANCH   2  17
TORSDOF 6
ENDMDL
MODEL 9
REMARK VINA RESULT:    -6.999      4.394      8.789
REMARK INTER + INTRA:         -10.282
REMARK INTER:                  -9.340
REMARK INTRA:                  -0.942
REMARK UNBOUND:                -0.828
REMARK  Name = 
REMARK  7 active torsions:
REMARK  status: ('A' for Active; 'I' for Inactive)
REMARK    1  A    between atoms: C_1  and  C_2
REMARK    2  A    between atoms: C_2  and  N_3
REMARK    3  A    between atoms: C_2  and  C_16
REMARK    4  A    between atoms: C_4  and  C_6
REMARK    5  A    between atoms: C_19  and  O_20
REMARK    6  A    between atoms: O_20  and  C_21
REMARK    7  A    between atoms: C_21  and  C_22
REMARK                            x       y       z     vdW  Elec       q    Type
REMARK                         _______ _______ _______ _____ _____    ______ ____
ROOT
ATOM      1  C   UNL     1      47.038   5.114  18.509  0.00  0.00    +0.000 C 
ATOM      2  C   UNL     1      47.524   4.330  17.287  0.00  0.00    +0.000 C 
ENDROOT
BRANCH   2   3
ATOM      3  C   UNL     1      48.990   3.970  17.497  0.00  0.00    +0.000 A 
ATOM      4  C   UNL     1      49.527   2.687  17.313  0.00  0.00    +0.000 A 
ATOM      5  C   UNL     1      50.905   2.481  17.417  0.00  0.00    +0.000 A 
ATOM      6  C   UNL     1      51.716   3.564  17.723  0.00  0.00    +0.000 A 
ATOM      7  N   UNL     1      51.235   4.808  17.925  0.00  0.00    +0.000 NA
ATOM      8  C   UNL     1      49.899   4.976  17.809  0.00  0.00    +0.000 A 
BRANCH   6   9
ATOM      9  O   UNL     1      53.083   3.372  17.753  0.00  0.00    +0.000 OA
BRANCH   9  10
ATOM     10  C   UNL     1      53.447   2.221  18.525  0.00  0.00    +0.000 C 
BRANCH  10  11
ATOM     11  C   UNL     1      54.219   1.255  17.655  0.00  0.00    +0.000 A 
ATOM     12  C   UNL     1      54.046  -0.130  17.805  0.00  0.00    +0.000 A 
ATOM     13  C   UNL     1      54.727  -1.023  16.976  0.00  0.00    +0.000 A 
ATOM     14  C   UNL     1      55.580  -0.543  15.984  0.00  0.00    +0.000 A 
ATOM     15  C   UNL     1      55.761   0.830  15.827  0.00  0.00    +0.000 A 
ATOM     16  C   UNL     1      55.085   1.725  16.657  0.00  0.00    +0.000 A 
ENDBRANCH  10  11
ENDBRANCH   9  10
ENDBRANCH   6   9
ENDBRANCH   2   3
BRANCH   2  17
ATOM     17  N   UNL     1      47.308   5.060  16.049  0.00  0.00    +0.000 N 
ATOM     18  C   UNL     1      47.186   4.448  14.832  0.00  0.00    +0.000 C 
ATOM     19  O   UNL     1      47.219   3.230  14.683  0.00  0.00    +0.000 OA
ATOM     20  H   UNL     1      47.663   6.012  16.042  0.00  0.00    +0.000 HD
BRANCH  18  21
ATOM     21  C   UNL     1      46.948   5.337  13.687  0.00  0.00    +0.000 A 
ATOM     22  C   UNL     1      47.943   6.203  13.251  0.00  0.00    +0.000 A 
ATOM     23  S   UNL     1      47.467   7.172  11.927  0.00  0.00    +0.000 S 
ATOM     24  C   UNL     1      45.909   6.487  11.914  0.00  0.00    +0.000 A 
ATOM     25  N   UNL     1      44.956   6.913  11.041  0.00  0.00    +0.000 NA
ATOM     26  C   UNL     1      43.810   6.331  11.174  0.00  0.00    +0.000 A 
ATOM     27  N   UNL     1      43.536   5.340  12.083  0.00  0.00    +0.000 N 
ATOM     28  C   UNL     1      44.487   4.833  12.934  0.00  0.00    +0.000 A 
ATOM     29  O   UNL     1      44.246   3.871  13.655  0.00  0.00    +0.000 OA
ATOM     30  C   UNL     1      45.771   5.500  12.871  0.00  0.00    +0.000 A 
ATOM     31  H   UNL     1      42.631   4.900  12.115  0.00  0.00    +0.000 HD
ENDBRANCH  18  21
ENDBRANCH   2  17
TORSDOF 6
ENDMDL
