MODEL 1
REMARK VINA RESULT:    -8.609      0.000      0.000
REMARK INTER + INTRA:         -10.977
REMARK INTER:                 -10.622
REMARK INTRA:                  -0.354
REMARK UNBOUND:                -0.354
REMARK  Name = 
REMARK  4 active torsions:
REMARK  status: ('A' for Active; 'I' for Inactive)
REMARK    1  A    between atoms: C_2  and  C_4
REMARK    2  A    between atoms: C_7  and  N_8
REMARK    3  A    between atoms: N_8  and  C_9
REMARK    4  A    between atoms: C_9  and  C_10
REMARK                            x       y       z     vdW  Elec       q    Type
REMARK                         _______ _______ _______ _____ _____    ______ ____
ROOT
ATOM      1  N   UNL     1      43.826   4.855   9.725  0.00  0.00    +0.000 N 
ATOM      2  H   UNL     1      42.894   4.693   9.359  0.00  0.00    +0.000 HD
ENDROOT
BRANCH   1   6
ATOM      3  C   UNL     1      46.433   2.337   7.733  0.00  0.00    +0.000 A 
ATOM      4  C   UNL     1      46.445   3.700   7.489  0.00  0.00    +0.000 A 
ATOM      5  N   UNL     1      45.627   4.569   8.144  0.00  0.00    +0.000 NA
ATOM      6  C   UNL     1      44.770   4.042   9.048  0.00  0.00    +0.000 A 
ATOM      7  C   UNL     1      44.764   2.655   9.261  0.00  0.00    +0.000 A 
ATOM      8  N   UNL     1      45.591   1.771   8.638  0.00  0.00    +0.000 NA
BRANCH   3  10
ATOM      9  N   UNL     1      48.489   2.029   6.484  0.00  0.00    +0.000 N 
ATOM     10  C   UNL     1      47.364   1.437   6.988  0.00  0.00    +0.000 C 
ATOM     11  O   UNL     1      47.140   0.244   6.842  0.00  0.00    +0.000 OA
ATOM     12  H   UNL     1      49.163   1.469   5.983  0.00  0.00    +0.000 HD
ATOM     13  H   UNL     1      48.656   3.020   6.634  0.00  0.00    +0.000 HD
ENDBRANCH   3  10
ENDBRANCH   1   6
BRANCH   1  14
ATOM     14  C   UNL     1      43.868   4.923  11.210  0.00  0.00    +0.000 C 
ATOM     15  C   UNL     1      42.977   3.987  12.010  0.00  0.00    +0.000 C 
ATOM     16  C   UNL     1      42.623   5.434  11.933  0.00  0.00    +0.000 C 
BRANCH  14  17
ATOM     17  C   UNL     1      45.203   5.374  11.798  0.00  0.00    +0.000 A 
ATOM     18  C   UNL     1      45.929   6.447  11.239  0.00  0.00    +0.000 A 
ATOM     19  C   UNL     1      47.121   6.905  11.811  0.00  0.00    +0.000 A 
ATOM     20  C   UNL     1      47.618   6.292  12.956  0.00  0.00    +0.000 A 
ATOM     21  C   UNL     1      46.928   5.221  13.506  0.00  0.00    +0.000 A 
ATOM     22  F   UNL     1      47.403   4.628  14.609  0.00  0.00    +0.000 F 
ATOM     23  C   UNL     1      45.743   4.762  12.939  0.00  0.00    +0.000 A 
ENDBRANCH  14  17
ENDBRANCH   1  14
TORSDOF 4
ENDMDL
MODEL 2
REMARK VINA RESULT:    -8.602      1.038      1.490
REMARK INTER + INTRA:         -10.968
REMARK INTER:                 -10.546
REMARK INTRA:                  -0.421
REMARK UNBOUND:                -0.354
REMARK  Name = 
REMARK  4 active torsions:
REMARK  status: ('A' for Active; 'I' for Inactive)
REMARK    1  A    between atoms: C_2  and  C_4
REMARK    2  A    between atoms: C_7  and  N_8
REMARK    3  A    between atoms: N_8  and  C_9
REMARK    4  A    between atoms: C_9  and  C_10
REMARK                            x       y       z     vdW  Elec       q    Type
REMARK                         _______ _______ _______ _____ _____    ______ ____
ROOT
ATOM      1  N   UNL     1      43.889   4.870   9.851  0.00  0.00    +0.000 N 
ATOM      2  H   UNL     1      42.957   4.723   9.479  0.00  0.00    +0.000 HD
ENDROOT
BRANCH   1   6
ATOM      3  C   UNL     1      46.510   2.513   7.686  0.00  0.00    +0.000 A 
ATOM      4  C   UNL     1      46.498   3.888   7.521  0.00  0.00    +0.000 A 
ATOM      5  N   UNL     1      45.675   4.704   8.235  0.00  0.00    +0.000 NA
ATOM      6  C   UNL     1      44.837   4.112   9.117  0.00  0.00    +0.000 A 
ATOM      7  C   UNL     1      44.855   2.715   9.249  0.00  0.00    +0.000 A 
ATOM      8  N   UNL     1      45.688   1.881   8.567  0.00  0.00    +0.000 NA
BRANCH   3  10
ATOM      9  N   UNL     1      48.554   2.310   6.398  0.00  0.00    +0.000 N 
ATOM     10  C   UNL     1      47.444   1.672   6.880  0.00  0.00    +0.000 C 
ATOM     11  O   UNL     1      47.237   0.486   6.668  0.00  0.00    +0.000 OA
ATOM     12  H   UNL     1      49.230   1.791   5.858  0.00  0.00    +0.000 HD
ATOM     13  H   UNL     1      48.708   3.294   6.602  0.00  0.00    +0.000 HD
ENDBRANCH   3  10
ENDBRANCH   1   6
BRANCH   1  14
ATOM     14  C   UNL     1      43.938   4.838  11.337  0.00  0.00    +0.000 C 
ATOM     15  C   UNL     1      43.096   3.810  12.075  0.00  0.00    +0.000 C 
ATOM     16  C   UNL     1      42.675   5.241  12.097  0.00  0.00    +0.000 C 
BRANCH  14  17
ATOM     17  C   UNL     1      45.255   5.309  11.949  0.00  0.00    +0.000 A 
ATOM     18  C   UNL     1      45.879   4.593  12.993  0.00  0.00    +0.000 A 
ATOM     19  C   UNL     1      47.117   4.984  13.515  0.00  0.00    +0.000 A 
ATOM     20  C   UNL     1      47.757   6.110  13.007  0.00  0.00    +0.000 A 
ATOM     21  C   UNL     1      47.146   6.838  11.995  0.00  0.00    +0.000 A 
ATOM     22  F   UNL     1      47.759   7.922  11.502  0.00  0.00    +0.000 F 
ATOM     23  C   UNL     1      45.915   6.453  11.475  0.00  0.00    +0.000 A 
ENDBRANCH  14  17
ENDBRANCH   1  14
TORSDOF 4
ENDMDL
MODEL 3
REMARK VINA RESULT:    -6.813      4.139      6.124
REMARK INTER + INTRA:          -8.760
REMARK INTER:                  -8.631
REMARK INTRA:                  -0.130
REMARK UNBOUND:                -0.354
REMARK  Name = 
REMARK  4 active torsions:
REMARK  status: ('A' for Active; 'I' for Inactive)
REMARK    1  A    between atoms: C_2  and  C_4
REMARK    2  A    between atoms: C_7  and  N_8
REMARK    3  A    between atoms: N_8  and  C_9
REMARK    4  A    between atoms: C_9  and  C_10
REMARK                            x       y       z     vdW  Elec       q    Type
REMARK                         _______ _______ _______ _____ _____    ______ ____
ROOT
ATOM      1  N   UNL     1      45.241   4.059  12.590  0.00  0.00    +0.000 N 
ATOM      2  H   UNL     1      44.685   3.749  13.378  0.00  0.00    +0.000 HD
ENDROOT
BRANCH   1   6
ATOM      3  C   UNL     1      48.258   6.555  13.925  0.00  0.00    +0.000 A 
ATOM      4  C   UNL     1      47.658   6.770  12.696  0.00  0.00    +0.000 A 
ATOM      5  N   UNL     1      46.641   5.994  12.231  0.00  0.00    +0.000 NA
ATOM      6  C   UNL     1      46.240   4.970  13.020  0.00  0.00    +0.000 A 
ATOM      7  C   UNL     1      46.880   4.762  14.251  0.00  0.00    +0.000 A 
ATOM      8  N   UNL     1      47.879   5.541  14.749  0.00  0.00    +0.000 NA
BRANCH   3  10
ATOM      9  N   UNL     1      50.453   7.518  13.561  0.00  0.00    +0.000 N 
ATOM     10  C   UNL     1      49.363   7.449  14.384  0.00  0.00    +0.000 C 
ATOM     11  O   UNL     1      49.297   8.086  15.425  0.00  0.00    +0.000 OA
ATOM     12  H   UNL     1      51.226   8.116  13.810  0.00  0.00    +0.000 HD
ATOM     13  H   UNL     1      50.474   6.988  12.693  0.00  0.00    +0.000 HD
ENDBRANCH   3  10
ENDBRANCH   1   6
BRANCH   1  14
ATOM     14  C   UNL     1      44.425   4.399  11.394  0.00  0.00    +0.000 C 
ATOM     15  C   UNL     1      43.620   5.689  11.401  0.00  0.00    +0.000 C 
ATOM     16  C   UNL     1      42.905   4.388  11.547  0.00  0.00    +0.000 C 
BRANCH  14  17
ATOM     17  C   UNL     1      44.959   3.855  10.071  0.00  0.00    +0.000 A 
ATOM     18  C   UNL     1      45.465   4.714   9.073  0.00  0.00    +0.000 A 
ATOM     19  C   UNL     1      46.013   4.218   7.885  0.00  0.00    +0.000 A 
ATOM     20  C   UNL     1      46.061   2.845   7.667  0.00  0.00    +0.000 A 
ATOM     21  C   UNL     1      45.549   1.987   8.630  0.00  0.00    +0.000 A 
ATOM     22  F   UNL     1      45.594   0.664   8.424  0.00  0.00    +0.000 F 
ATOM     23  C   UNL     1      45.001   2.477   9.811  0.00  0.00    +0.000 A 
ENDBRANCH  14  17
ENDBRANCH   1  14
TORSDOF 4
ENDMDL
MODEL 4
REMARK VINA RESULT:    -6.744      3.878      6.270
REMARK INTER + INTRA:          -8.676
REMARK INTER:                  -9.188
REMARK INTRA:                   0.512
REMARK UNBOUND:                -0.354
REMARK  Name = 
REMARK  4 active torsions:
REMARK  status: ('A' for Active; 'I' for Inactive)
REMARK    1  A    between atoms: C_2  and  C_4
REMARK    2  A    between atoms: C_7  and  N_8
REMARK    3  A    between atoms: N_8  and  C_9
REMARK    4  A    between atoms: C_9  and  C_10
REMARK                            x       y       z     vdW  Elec       q    Type
REMARK                         _______ _______ _______ _____ _____    ______ ____
ROOT
ATOM      1  N   UNL     1      44.212   5.462  10.384  0.00  0.00    +0.000 N 
ATOM      2  H   UNL     1      44.088   5.802   9.436  0.00  0.00    +0.000 HD
ENDROOT
BRANCH   1   6
ATOM      3  C   UNL     1      46.594   7.969  12.654  0.00  0.00    +0.000 A 
ATOM      4  C   UNL     1      47.163   7.016  11.825  0.00  0.00    +0.000 A 
ATOM      5  N   UNL     1      46.419   6.192  11.037  0.00  0.00    +0.000 NA
ATOM      6  C   UNL     1      45.074   6.326  11.107  0.00  0.00    +0.000 A 
ATOM      7  C   UNL     1      44.524   7.285  11.972  0.00  0.00    +0.000 A 
ATOM      8  N   UNL     1      45.248   8.138  12.747  0.00  0.00    +0.000 NA
BRANCH   3  10
ATOM      9  N   UNL     1      47.184   8.874  14.825  0.00  0.00    +0.000 N 
ATOM     10  C   UNL     1      47.466   8.850  13.487  0.00  0.00    +0.000 C 
ATOM     11  O   UNL     1      48.380   9.506  13.007  0.00  0.00    +0.000 OA
ATOM     12  H   UNL     1      47.748   9.439  15.442  0.00  0.00    +0.000 HD
ATOM     13  H   UNL     1      46.427   8.307  15.199  0.00  0.00    +0.000 HD
ENDBRANCH   3  10
ENDBRANCH   1   6
BRANCH   1  14
ATOM     14  C   UNL     1      44.438   3.995  10.456  0.00  0.00    +0.000 C 
ATOM     15  C   UNL     1      43.445   3.139  11.224  0.00  0.00    +0.000 C 
ATOM     16  C   UNL     1      44.789   3.397  11.818  0.00  0.00    +0.000 C 
BRANCH  14  17
ATOM     17  C   UNL     1      45.179   3.396   9.263  0.00  0.00    +0.000 A 
ATOM     18  C   UNL     1      45.739   4.213   8.258  0.00  0.00    +0.000 A 
ATOM     19  C   UNL     1      46.473   3.674   7.196  0.00  0.00    +0.000 A 
ATOM     20  C   UNL     1      46.657   2.298   7.112  0.00  0.00    +0.000 A 
ATOM     21  C   UNL     1      46.095   1.478   8.080  0.00  0.00    +0.000 A 
ATOM     22  F   UNL     1      46.270   0.152   8.002  0.00  0.00    +0.000 F 
ATOM     23  C   UNL     1      45.363   2.011   9.136  0.00  0.00    +0.000 A 
ENDBRANCH  14  17
ENDBRANCH   1  14
TORSDOF 4
ENDMDL
MODEL 5
REMARK VINA RESULT:    -6.449      4.042      5.840
REMARK INTER + INTRA:          -8.312
REMARK INTER:                  -8.070
REMARK INTRA:                  -0.242
REMARK UNBOUND:                -0.354
REMARK  Name = 
REMARK  4 active torsions:
REMARK  status: ('A' for Active; 'I' for Inactive)
REMARK    1  A    between atoms: C_2  and  C_4
REMARK    2  A    between atoms: C_7  and  N_8
REMARK    3  A    between atoms: N_8  and  C_9
REMARK    4  A    between atoms: C_9  and  C_10
REMARK                            x       y       z     vdW  Elec       q    Type
REMARK                         _______ _______ _______ _____ _____    ______ ____
ROOT
ATOM      1  N   UNL     1      44.637   5.295  12.892  0.00  0.00    +0.000 N 
ATOM      2  H   UNL     1      44.073   5.557  13.693  0.00  0.00    +0.000 HD
ENDROOT
BRANCH   1   6
ATOM      3  C   UNL     1      48.381   7.053  12.941  0.00  0.00    +0.000 A 
ATOM      4  C   UNL     1      47.269   7.774  12.540  0.00  0.00    +0.000 A 
ATOM      5  N   UNL     1      46.014   7.246  12.538  0.00  0.00    +0.000 NA
ATOM      6  C   UNL     1      45.890   5.957  12.932  0.00  0.00    +0.000 A 
ATOM      7  C   UNL     1      47.037   5.243  13.313  0.00  0.00    +0.000 A 
ATOM      8  N   UNL     1      48.296   5.759  13.350  0.00  0.00    +0.000 NA
BRANCH   3  10
ATOM      9  N   UNL     1      50.564   7.308  11.917  0.00  0.00    +0.000 N 
ATOM     10  C   UNL     1      49.730   7.693  12.930  0.00  0.00    +0.000 C 
ATOM     11  O   UNL     1      50.069   8.517  13.768  0.00  0.00    +0.000 OA
ATOM     12  H   UNL     1      51.484   7.716  11.848  0.00  0.00    +0.000 HD
ATOM     13  H   UNL     1      50.250   6.632  11.225  0.00  0.00    +0.000 HD
ENDBRANCH   3  10
ENDBRANCH   1   6
BRANCH   1  14
ATOM     14  C   UNL     1      43.872   5.280  11.616  0.00  0.00    +0.000 C 
ATOM     15  C   UNL     1      43.084   6.520  11.223  0.00  0.00    +0.000 C 
ATOM     16  C   UNL     1      42.347   5.315  11.704  0.00  0.00    +0.000 C 
BRANCH  14  17
ATOM     17  C   UNL     1      44.449   4.381  10.527  0.00  0.00    +0.000 A 
ATOM     18  C   UNL     1      44.120   3.011  10.452  0.00  0.00    +0.000 A 
ATOM     19  C   UNL     1      44.596   2.195   9.419  0.00  0.00    +0.000 A 
ATOM     20  C   UNL     1      45.421   2.735   8.438  0.00  0.00    +0.000 A 
ATOM     21  C   UNL     1      45.772   4.076   8.508  0.00  0.00    +0.000 A 
ATOM     22  F   UNL     1      46.566   4.599   7.564  0.00  0.00    +0.000 F 
ATOM     23  C   UNL     1      45.302   4.888   9.535  0.00  0.00    +0.000 A 
ENDBRANCH  14  17
ENDBRANCH   1  14
TORSDOF 4
ENDMDL
MODEL 6
REMARK VINA RESULT:    -6.227      4.388      6.479
REMARK INTER + INTRA:          -8.038
REMARK INTER:                  -8.410
REMARK INTRA:                   0.372
REMARK UNBOUND:                -0.354
REMARK  Name = 
REMARK  4 active torsions:
REMARK  status: ('A' for Active; 'I' for Inactive)
REMARK    1  A    between atoms: C_2  and  C_4
REMARK    2  A    between atoms: C_7  and  N_8
REMARK    3  A    between atoms: N_8  and  C_9
REMARK    4  A    between atoms: C_9  and  C_10
REMARK                            x       y       z     vdW  Elec       q    Type
REMARK                         _______ _______ _______ _____ _____    ______ ____
ROOT
ATOM      1  N   UNL     1      46.859   5.933  12.128  0.00  0.00    +0.000 N 
ATOM      2  H   UNL     1      47.583   5.705  11.456  0.00  0.00    +0.000 HD
ENDROOT
BRANCH   1   6
ATOM      3  C   UNL     1      47.665   3.852  15.612  0.00  0.00    +0.000 A 
ATOM      4  C   UNL     1      47.761   5.233  15.577  0.00  0.00    +0.000 A 
ATOM      5  N   UNL     1      47.475   5.960  14.463  0.00  0.00    +0.000 NA
ATOM      6  C   UNL     1      47.103   5.271  13.359  0.00  0.00    +0.000 A 
ATOM      7  C   UNL     1      47.034   3.870  13.416  0.00  0.00    +0.000 A 
ATOM      8  N   UNL     1      47.288   3.125  14.526  0.00  0.00    +0.000 NA
BRANCH   3  10
ATOM      9  N   UNL     1      47.107   3.293  17.904  0.00  0.00    +0.000 N 
ATOM     10  C   UNL     1      47.983   3.112  16.869  0.00  0.00    +0.000 C 
ATOM     11  O   UNL     1      48.960   2.384  16.969  0.00  0.00    +0.000 OA
ATOM     12  H   UNL     1      47.260   2.808  18.776  0.00  0.00    +0.000 HD
ATOM     13  H   UNL     1      46.294   3.893  17.788  0.00  0.00    +0.000 HD
ENDBRANCH   3  10
ENDBRANCH   1   6
BRANCH   1  14
ATOM     14  C   UNL     1      45.490   5.893  11.550  0.00  0.00    +0.000 C 
ATOM     15  C   UNL     1      44.712   7.193  11.423  0.00  0.00    +0.000 C 
ATOM     16  C   UNL     1      44.318   6.213  12.477  0.00  0.00    +0.000 C 
BRANCH  14  17
ATOM     17  C   UNL     1      45.246   4.772  10.543  0.00  0.00    +0.000 A 
ATOM     18  C   UNL     1      44.533   3.607  10.897  0.00  0.00    +0.000 A 
ATOM     19  C   UNL     1      44.252   2.604   9.962  0.00  0.00    +0.000 A 
ATOM     20  C   UNL     1      44.686   2.744   8.648  0.00  0.00    +0.000 A 
ATOM     21  C   UNL     1      45.407   3.874   8.288  0.00  0.00    +0.000 A 
ATOM     22  F   UNL     1      45.827   4.012   7.023  0.00  0.00    +0.000 F 
ATOM     23  C   UNL     1      45.690   4.871   9.216  0.00  0.00    +0.000 A 
ENDBRANCH  14  17
ENDBRANCH   1  14
TORSDOF 4
ENDMDL
MODEL 7
REMARK VINA RESULT:    -5.819      3.059      4.544
REMARK INTER + INTRA:          -7.535
REMARK INTER:                  -7.266
REMARK INTRA:                  -0.269
REMARK UNBOUND:                -0.354
REMARK  Name = 
REMARK  4 active torsions:
REMARK  status: ('A' for Active; 'I' for Inactive)
REMARK    1  A    between atoms: C_2  and  C_4
REMARK    2  A    between atoms: C_7  and  N_8
REMARK    3  A    between atoms: N_8  and  C_9
REMARK    4  A    between atoms: C_9  and  C_10
REMARK                            x       y       z     vdW  Elec       q    Type
REMARK                         _______ _______ _______ _____ _____    ______ ____
ROOT
ATOM      1  N   UNL     1      45.965   6.368  13.292  0.00  0.00    +0.000 N 
ATOM      2  H   UNL     1      45.933   5.861  14.169  0.00  0.00    +0.000 HD
ENDROOT
BRANCH   1   6
ATOM      3  C   UNL     1      44.988   3.739  10.252  0.00  0.00    +0.000 A 
ATOM      4  C   UNL     1      45.302   5.057   9.969  0.00  0.00    +0.000 A 
ATOM      5  N   UNL     1      45.660   5.948  10.934  0.00  0.00    +0.000 NA
ATOM      6  C   UNL     1      45.680   5.497  12.209  0.00  0.00    +0.000 A 
ATOM      7  C   UNL     1      45.336   4.161  12.470  0.00  0.00    +0.000 A 
ATOM      8  N   UNL     1      45.003   3.246  11.519  0.00  0.00    +0.000 NA
BRANCH   3  10
ATOM      9  N   UNL     1      44.455   3.377   7.913  0.00  0.00    +0.000 N 
ATOM     10  C   UNL     1      44.612   2.807   9.147  0.00  0.00    +0.000 C 
ATOM     11  O   UNL     1      44.462   1.607   9.327  0.00  0.00    +0.000 OA
ATOM     12  H   UNL     1      44.216   2.797   7.124  0.00  0.00    +0.000 HD
ATOM     13  H   UNL     1      44.601   4.376   7.790  0.00  0.00    +0.000 HD
ENDBRANCH   3  10
ENDBRANCH   1   6
BRANCH   1  14
ATOM     14  C   UNL     1      47.130   7.287  13.188  0.00  0.00    +0.000 C 
ATOM     15  C   UNL     1      48.517   6.691  13.006  0.00  0.00    +0.000 C 
ATOM     16  C   UNL     1      48.147   7.275  14.328  0.00  0.00    +0.000 C 
BRANCH  14  17
ATOM     17  C   UNL     1      46.819   8.659  12.596  0.00  0.00    +0.000 A 
ATOM     18  C   UNL     1      47.836   9.475  12.055  0.00  0.00    +0.000 A 
ATOM     19  C   UNL     1      47.549  10.705  11.454  0.00  0.00    +0.000 A 
ATOM     20  C   UNL     1      46.233  11.152  11.388  0.00  0.00    +0.000 A 
ATOM     21  C   UNL     1      45.224  10.372  11.935  0.00  0.00    +0.000 A 
ATOM     22  F   UNL     1      43.955  10.799  11.873  0.00  0.00    +0.000 F 
ATOM     23  C   UNL     1      45.506   9.149  12.534  0.00  0.00    +0.000 A 
ENDBRANCH  14  17
ENDBRANCH   1  14
TORSDOF 4
ENDMDL
MODEL 8
REMARK VINA RESULT:    -5.773      3.592      5.398
REMARK INTER + INTRA:          -7.478
REMARK INTER:                  -7.219
REMARK INTRA:                  -0.258
REMARK UNBOUND:                -0.354
REMARK  Name = 
REMARK  4 active torsions:
REMARK  status: ('A' for Active; 'I' for Inactive)
REMARK    1  A    between atoms: C_2  and  C_4
REMARK    2  A    between atoms: C_7  and  N_8
REMARK    3  A    between atoms: N_8  and  C_9
REMARK    4  A    between atoms: C_9  and  C_10
REMARK                            x       y       z     vdW  Elec       q    Type
REMARK                         _______ _______ _______ _____ _____    ______ ____
ROOT
ATOM      1  N   UNL     1      46.218   7.428  13.356  0.00  0.00    +0.000 N 
ATOM      2  H   UNL     1      45.983   7.409  14.342  0.00  0.00    +0.000 HD
ENDROOT
BRANCH   1   6
ATOM      3  C   UNL     1      44.532   4.084  11.600  0.00  0.00    +0.000 A 
ATOM      4  C   UNL     1      44.939   5.157  10.825  0.00  0.00    +0.000 A 
ATOM      5  N   UNL     1      45.527   6.264  11.357  0.00  0.00    +0.000 NA
ATOM      6  C   UNL     1      45.686   6.288  12.701  0.00  0.00    +0.000 A 
ATOM      7  C   UNL     1      45.245   5.196  13.464  0.00  0.00    +0.000 A 
ATOM      8  N   UNL     1      44.681   4.068  12.951  0.00  0.00    +0.000 NA
BRANCH   3  10
ATOM      9  N   UNL     1      44.498   2.454   9.805  0.00  0.00    +0.000 N 
ATOM     10  C   UNL     1      43.902   2.894  10.954  0.00  0.00    +0.000 C 
ATOM     11  O   UNL     1      42.918   2.340  11.425  0.00  0.00    +0.000 OA
ATOM     12  H   UNL     1      44.127   1.645   9.331  0.00  0.00    +0.000 HD
ATOM     13  H   UNL     1      45.324   2.925   9.444  0.00  0.00    +0.000 HD
ENDBRANCH   3  10
ENDBRANCH   1   6
BRANCH   1  14
ATOM     14  C   UNL     1      47.631   7.813  13.098  0.00  0.00    +0.000 C 
ATOM     15  C   UNL     1      48.686   6.720  13.037  0.00  0.00    +0.000 C 
ATOM     16  C   UNL     1      48.638   7.615  14.229  0.00  0.00    +0.000 C 
BRANCH  14  17
ATOM     17  C   UNL     1      47.814   9.079  12.266  0.00  0.00    +0.000 A 
ATOM     18  C   UNL     1      46.779  10.030  12.135  0.00  0.00    +0.000 A 
ATOM     19  C   UNL     1      46.962  11.223  11.426  0.00  0.00    +0.000 A 
ATOM     20  C   UNL     1      48.188  11.488  10.824  0.00  0.00    +0.000 A 
ATOM     21  C   UNL     1      49.209  10.554  10.925  0.00  0.00    +0.000 A 
ATOM     22  F   UNL     1      50.391  10.806  10.347  0.00  0.00    +0.000 F 
ATOM     23  C   UNL     1      49.030   9.366  11.628  0.00  0.00    +0.000 A 
ENDBRANCH  14  17
ENDBRANCH   1  14
TORSDOF 4
ENDMDL
