MODEL 1
REMARK VINA RESULT:    -7.172      0.000      0.000
REMARK INTER + INTRA:         -12.100
REMARK INTER:                 -10.527
REMARK INTRA:                  -1.573
REMARK UNBOUND:                -1.573
REMARK  Name = 
REMARK  9 active torsions:
REMARK  status: ('A' for Active; 'I' for Inactive)
REMARK    1  A    between atoms: C_1  and  C_2
REMARK    2  A    between atoms: C_2  and  O_3
REMARK    3  A    between atoms: O_3  and  C_4
REMARK    4  A    between atoms: C_9  and  C_10
REMARK    5  A    between atoms: N_12  and  C_13
REMARK    6  A    between atoms: C_13  and  C_14
REMARK    7  A    between atoms: C_17  and  C_18
REMARK    8  A    between atoms: C_18  and  N_19
REMARK    9  A    between atoms: C_20  and  C_22
REMARK                            x       y       z     vdW  Elec       q    Type
REMARK                         _______ _______ _______ _____ _____    ______ ____
ROOT
ATOM      1  C   UNL     1      49.874   7.597  15.400  0.00  0.00    +0.000 A 
ATOM      2  C   UNL     1      48.995   6.547  15.103  0.00  0.00    +0.000 A 
ATOM      3  C   UNL     1      48.113   6.640  14.020  0.00  0.00    +0.000 A 
ATOM      4  C   UNL     1      48.108   7.776  13.199  0.00  0.00    +0.000 A 
ATOM      5  C   UNL     1      48.970   8.836  13.514  0.00  0.00    +0.000 A 
ATOM      6  C   UNL     1      49.850   8.743  14.597  0.00  0.00    +0.000 A 
ENDROOT
BRANCH   1   7
ATOM      7  C   UNL     1      50.851   7.486  16.544  0.00  0.00    +0.000 C 
BRANCH   7  10
ATOM      8  C   UNL     1      50.887   5.301  17.675  0.00  0.00    +0.000 C 
ATOM      9  O   UNL     1      50.051   5.673  18.496  0.00  0.00    +0.000 OA
ATOM     10  N   UNL     1      51.352   6.140  16.690  0.00  0.00    +0.000 N 
ATOM     11  H   UNL     1      52.064   5.801  16.052  0.00  0.00    +0.000 HD
BRANCH   8  17
ATOM     12  C   UNL     1      50.721   2.759  17.237  0.00  0.00    +0.000 A 
ATOM     13  C   UNL     1      51.317   1.493  17.365  0.00  0.00    +0.000 A 
ATOM     14  C   UNL     1      52.575   1.347  17.961  0.00  0.00    +0.000 A 
ATOM     15  C   UNL     1      53.257   2.461  18.427  0.00  0.00    +0.000 A 
ATOM     16  C   UNL     1      52.681   3.725  18.299  0.00  0.00    +0.000 A 
ATOM     17  C   UNL     1      51.411   3.894  17.711  0.00  0.00    +0.000 A 
BRANCH  12  18
ATOM     18  O   UNL     1      49.509   2.945  16.618  0.00  0.00    +0.000 OA
BRANCH  18  20
ATOM     19  C   UNL     1      47.310   3.783  17.011  0.00  0.00    +0.000 C 
ATOM     20  C   UNL     1      48.333   2.732  17.401  0.00  0.00    +0.000 C 
ENDBRANCH  18  20
ENDBRANCH  12  18
ENDBRANCH   8  17
ENDBRANCH   7  10
ENDBRANCH   1   7
BRANCH   4  21
ATOM     21  C   UNL     1      47.177   7.880  12.019  0.00  0.00    +0.000 C 
BRANCH  21  22
ATOM     22  N   UNL     1      46.566   6.610  11.720  0.00  0.00    +0.000 N 
ATOM     23  C   UNL     1      45.204   6.467  11.664  0.00  0.00    +0.000 C 
ATOM     24  O   UNL     1      44.443   7.419  11.816  0.00  0.00    +0.000 OA
ATOM     25  H   UNL     1      47.150   5.787  11.827  0.00  0.00    +0.000 HD
BRANCH  23  26
ATOM     26  C   UNL     1      44.701   5.124  11.347  0.00  0.00    +0.000 A 
ATOM     27  C   UNL     1      43.929   4.441  12.279  0.00  0.00    +0.000 A 
ATOM     28  S   UNL     1      43.370   2.929  11.725  0.00  0.00    +0.000 S 
ATOM     29  C   UNL     1      44.186   3.107  10.243  0.00  0.00    +0.000 A 
ATOM     30  N   UNL     1      44.134   2.135   9.293  0.00  0.00    +0.000 NA
ATOM     31  C   UNL     1      44.824   2.388   8.232  0.00  0.00    +0.000 A 
ATOM     32  N   UNL     1      45.561   3.526   8.032  0.00  0.00    +0.000 N 
ATOM     33  C   UNL     1      45.624   4.545   8.952  0.00  0.00    +0.000 A 
ATOM     34  O   UNL     1      46.270   5.565   8.731  0.00  0.00    +0.000 OA
ATOM     35  C   UNL     1      44.867   4.310  10.166  0.00  0.00    +0.000 A 
ATOM     36  H   UNL     1      46.078   3.666   7.177  0.00  0.00    +0.000 HD
ENDBRANCH  23  26
ENDBRANCH  21  22
ENDBRANCH   4  21
TORSDOF 8
ENDMDL
MODEL 2
REMARK VINA RESULT:    -6.742      2.927      8.610
REMARK INTER + INTRA:         -11.468
REMARK INTER:                  -9.717
REMARK INTRA:                  -1.752
REMARK UNBOUND:                -1.573
REMARK  Name = 
REMARK  9 active torsions:
REMARK  status: ('A' for Active; 'I' for Inactive)
REMARK    1  A    between atoms: C_1  and  C_2
REMARK    2  A    between atoms: C_2  and  O_3
REMARK    3  A    between atoms: O_3  and  C_4
REMARK    4  A    between atoms: C_9  and  C_10
REMARK    5  A    between atoms: N_12  and  C_13
REMARK    6  A    between atoms: C_13  and  C_14
REMARK    7  A    between atoms: C_17  and  C_18
REMARK    8  A    between atoms: C_18  and  N_19
REMARK    9  A    between atoms: C_20  and  C_22
REMARK                            x       y       z     vdW  Elec       q    Type
REMARK                         _______ _______ _______ _____ _____    ______ ____
ROOT
ATOM      1  C   UNL     1      48.343   8.020  13.406  0.00  0.00    +0.000 A 
ATOM      2  C   UNL     1      49.332   7.116  13.815  0.00  0.00    +0.000 A 
ATOM      3  C   UNL     1      49.773   7.092  15.143  0.00  0.00    +0.000 A 
ATOM      4  C   UNL     1      49.217   7.956  16.095  0.00  0.00    +0.000 A 
ATOM      5  C   UNL     1      48.246   8.878  15.680  0.00  0.00    +0.000 A 
ATOM      6  C   UNL     1      47.807   8.903  14.352  0.00  0.00    +0.000 A 
ENDROOT
BRANCH   1   7
ATOM      7  C   UNL     1      47.839   8.025  11.985  0.00  0.00    +0.000 C 
BRANCH   7  10
ATOM      8  C   UNL     1      45.900   6.599  11.476  0.00  0.00    +0.000 C 
ATOM      9  O   UNL     1      45.119   7.524  11.689  0.00  0.00    +0.000 OA
ATOM     10  N   UNL     1      47.258   6.755  11.619  0.00  0.00    +0.000 N 
ATOM     11  H   UNL     1      47.864   5.956  11.461  0.00  0.00    +0.000 HD
BRANCH   8  17
ATOM     12  C   UNL     1      45.225   4.131  11.849  0.00  0.00    +0.000 A 
ATOM     13  C   UNL     1      44.767   2.929  11.283  0.00  0.00    +0.000 A 
ATOM     14  C   UNL     1      44.479   2.841   9.916  0.00  0.00    +0.000 A 
ATOM     15  C   UNL     1      44.636   3.952   9.100  0.00  0.00    +0.000 A 
ATOM     16  C   UNL     1      45.083   5.153   9.650  0.00  0.00    +0.000 A 
ATOM     17  C   UNL     1      45.387   5.262  11.022  0.00  0.00    +0.000 A 
BRANCH  12  18
ATOM     18  O   UNL     1      45.473   4.267  13.193  0.00  0.00    +0.000 OA
BRANCH  18  20
ATOM     19  C   UNL     1      47.017   4.517  14.995  0.00  0.00    +0.000 C 
ATOM     20  C   UNL     1      46.743   3.822  13.673  0.00  0.00    +0.000 C 
ENDBRANCH  18  20
ENDBRANCH  12  18
ENDBRANCH   8  17
ENDBRANCH   7  10
ENDBRANCH   1   7
BRANCH   4  21
ATOM     21  C   UNL     1      49.669   7.927  17.532  0.00  0.00    +0.000 C 
BRANCH  21  22
ATOM     22  N   UNL     1      50.645   6.891  17.753  0.00  0.00    +0.000 N 
ATOM     23  C   UNL     1      50.356   5.786  18.512  0.00  0.00    +0.000 C 
ATOM     24  O   UNL     1      49.243   5.602  18.997  0.00  0.00    +0.000 OA
ATOM     25  H   UNL     1      51.613   7.131  17.570  0.00  0.00    +0.000 HD
BRANCH  23  26
ATOM     26  C   UNL     1      51.433   4.798  18.661  0.00  0.00    +0.000 A 
ATOM     27  C   UNL     1      52.583   5.135  19.364  0.00  0.00    +0.000 A 
ATOM     28  S   UNL     1      53.698   3.852  19.502  0.00  0.00    +0.000 S 
ATOM     29  C   UNL     1      52.710   2.819  18.581  0.00  0.00    +0.000 A 
ATOM     30  N   UNL     1      53.095   1.545  18.304  0.00  0.00    +0.000 NA
ATOM     31  C   UNL     1      52.265   0.884  17.569  0.00  0.00    +0.000 A 
ATOM     32  N   UNL     1      51.082   1.380  17.087  0.00  0.00    +0.000 N 
ATOM     33  C   UNL     1      50.640   2.652  17.361  0.00  0.00    +0.000 A 
ATOM     34  O   UNL     1      49.561   3.057  16.938  0.00  0.00    +0.000 OA
ATOM     35  C   UNL     1      51.539   3.440  18.182  0.00  0.00    +0.000 A 
ATOM     36  H   UNL     1      50.473   0.810  16.519  0.00  0.00    +0.000 HD
ENDBRANCH  23  26
ENDBRANCH  21  22
ENDBRANCH   4  21
TORSDOF 8
ENDMDL
MODEL 3
REMARK VINA RESULT:    -6.699      0.990      2.333
REMARK INTER + INTRA:         -11.405
REMARK INTER:                  -9.853
REMARK INTRA:                  -1.551
REMARK UNBOUND:                -1.573
REMARK  Name = 
REMARK  9 active torsions:
REMARK  status: ('A' for Active; 'I' for Inactive)
REMARK    1  A    between atoms: C_1  and  C_2
REMARK    2  A    between atoms: C_2  and  O_3
REMARK    3  A    between atoms: O_3  and  C_4
REMARK    4  A    between atoms: C_9  and  C_10
REMARK    5  A    between atoms: N_12  and  C_13
REMARK    6  A    between atoms: C_13  and  C_14
REMARK    7  A    between atoms: C_17  and  C_18
REMARK    8  A    between atoms: C_18  and  N_19
REMARK    9  A    between atoms: C_20  and  C_22
REMARK                            x       y       z     vdW  Elec       q    Type
REMARK                         _______ _______ _______ _____ _____    ______ ____
ROOT
ATOM      1  C   UNL     1      50.011   7.476  15.386  0.00  0.00    +0.000 A 
ATOM      2  C   UNL     1      50.206   8.474  14.422  0.00  0.00    +0.000 A 
ATOM      3  C   UNL     1      49.354   8.576  13.316  0.00  0.00    +0.000 A 
ATOM      4  C   UNL     1      48.276   7.695  13.164  0.00  0.00    +0.000 A 
ATOM      5  C   UNL     1      48.097   6.681  14.115  0.00  0.00    +0.000 A 
ATOM      6  C   UNL     1      48.949   6.578  15.219  0.00  0.00    +0.000 A 
ENDROOT
BRANCH   1   7
ATOM      7  C   UNL     1      50.904   7.385  16.597  0.00  0.00    +0.000 C 
BRANCH   7  10
ATOM      8  C   UNL     1      50.930   5.180  17.688  0.00  0.00    +0.000 C 
ATOM      9  O   UNL     1      50.011   5.500  18.437  0.00  0.00    +0.000 OA
ATOM     10  N   UNL     1      51.446   6.058  16.763  0.00  0.00    +0.000 N 
ATOM     11  H   UNL     1      52.225   5.760  16.185  0.00  0.00    +0.000 HD
BRANCH   8  17
ATOM     12  C   UNL     1      52.836   3.481  18.098  0.00  0.00    +0.000 A 
ATOM     13  C   UNL     1      53.253   2.139  18.075  0.00  0.00    +0.000 A 
ATOM     14  C   UNL     1      52.372   1.118  17.698  0.00  0.00    +0.000 A 
ATOM     15  C   UNL     1      51.064   1.423  17.350  0.00  0.00    +0.000 A 
ATOM     16  C   UNL     1      50.635   2.749  17.376  0.00  0.00    +0.000 A 
ATOM     17  C   UNL     1      51.507   3.793  17.744  0.00  0.00    +0.000 A 
BRANCH  12  18
ATOM     18  O   UNL     1      53.658   4.503  18.506  0.00  0.00    +0.000 OA
BRANCH  18  20
ATOM     19  C   UNL     1      55.001   5.304  16.703  0.00  0.00    +0.000 C 
ATOM     20  C   UNL     1      54.994   4.512  17.998  0.00  0.00    +0.000 C 
ENDBRANCH  18  20
ENDBRANCH  12  18
ENDBRANCH   8  17
ENDBRANCH   7  10
ENDBRANCH   1   7
BRANCH   4  21
ATOM     21  C   UNL     1      47.339   7.806  11.989  0.00  0.00    +0.000 C 
BRANCH  21  22
ATOM     22  N   UNL     1      46.695   6.548  11.712  0.00  0.00    +0.000 N 
ATOM     23  C   UNL     1      45.329   6.442  11.647  0.00  0.00    +0.000 C 
ATOM     24  O   UNL     1      44.595   7.418  11.773  0.00  0.00    +0.000 OA
ATOM     25  H   UNL     1      47.254   5.711  11.841  0.00  0.00    +0.000 HD
BRANCH  23  26
ATOM     26  C   UNL     1      44.792   5.107  11.354  0.00  0.00    +0.000 A 
ATOM     27  C   UNL     1      44.055   4.435  12.322  0.00  0.00    +0.000 A 
ATOM     28  S   UNL     1      43.446   2.932  11.794  0.00  0.00    +0.000 S 
ATOM     29  C   UNL     1      44.193   3.100  10.275  0.00  0.00    +0.000 A 
ATOM     30  N   UNL     1      44.080   2.130   9.329  0.00  0.00    +0.000 NA
ATOM     31  C   UNL     1      44.722   2.374   8.236  0.00  0.00    +0.000 A 
ATOM     32  N   UNL     1      45.466   3.500   8.001  0.00  0.00    +0.000 N 
ATOM     33  C   UNL     1      45.589   4.517   8.917  0.00  0.00    +0.000 A 
ATOM     34  O   UNL     1      46.239   5.527   8.666  0.00  0.00    +0.000 OA
ATOM     35  C   UNL     1      44.888   4.292  10.166  0.00  0.00    +0.000 A 
ATOM     36  H   UNL     1      45.943   3.633   7.122  0.00  0.00    +0.000 HD
ENDBRANCH  23  26
ENDBRANCH  21  22
ENDBRANCH   4  21
TORSDOF 8
ENDMDL
MODEL 4
REMARK VINA RESULT:    -6.663      2.838      8.956
REMARK INTER + INTRA:         -11.353
REMARK INTER:                 -10.015
REMARK INTRA:                  -1.338
REMARK UNBOUND:                -1.573
REMARK  Name = 
REMARK  9 active torsions:
REMARK  status: ('A' for Active; 'I' for Inactive)
REMARK    1  A    between atoms: C_1  and  C_2
REMARK    2  A    between atoms: C_2  and  O_3
REMARK    3  A    between atoms: O_3  and  C_4
REMARK    4  A    between atoms: C_9  and  C_10
REMARK    5  A    between atoms: N_12  and  C_13
REMARK    6  A    between atoms: C_13  and  C_14
REMARK    7  A    between atoms: C_17  and  C_18
REMARK    8  A    between atoms: C_18  and  N_19
REMARK    9  A    between atoms: C_20  and  C_22
REMARK                            x       y       z     vdW  Elec       q    Type
REMARK                         _______ _______ _______ _____ _____    ______ ____
ROOT
ATOM      1  C   UNL     1      48.823   7.582  12.826  0.00  0.00    +0.000 A 
ATOM      2  C   UNL     1      48.372   7.114  14.067  0.00  0.00    +0.000 A 
ATOM      3  C   UNL     1      49.166   7.247  15.212  0.00  0.00    +0.000 A 
ATOM      4  C   UNL     1      50.418   7.872  15.142  0.00  0.00    +0.000 A 
ATOM      5  C   UNL     1      50.879   8.316  13.895  0.00  0.00    +0.000 A 
ATOM      6  C   UNL     1      50.086   8.181  12.751  0.00  0.00    +0.000 A 
ENDROOT
BRANCH   1   7
ATOM      7  C   UNL     1      47.956   7.473  11.597  0.00  0.00    +0.000 C 
BRANCH   7  10
ATOM      8  C   UNL     1      45.744   6.396  11.635  0.00  0.00    +0.000 C 
ATOM      9  O   UNL     1      45.174   7.484  11.636  0.00  0.00    +0.000 OA
ATOM     10  N   UNL     1      47.115   6.300  11.638  0.00  0.00    +0.000 N 
ATOM     11  H   UNL     1      47.543   5.380  11.668  0.00  0.00    +0.000 HD
BRANCH   8  17
ATOM     12  C   UNL     1      44.809   4.277  10.486  0.00  0.00    +0.000 A 
ATOM     13  C   UNL     1      44.001   3.132  10.588  0.00  0.00    +0.000 A 
ATOM     14  C   UNL     1      43.330   2.828  11.779  0.00  0.00    +0.000 A 
ATOM     15  C   UNL     1      43.465   3.657  12.883  0.00  0.00    +0.000 A 
ATOM     16  C   UNL     1      44.269   4.793  12.797  0.00  0.00    +0.000 A 
ATOM     17  C   UNL     1      44.947   5.122  11.606  0.00  0.00    +0.000 A 
BRANCH  12  18
ATOM     18  O   UNL     1      45.518   4.581   9.349  0.00  0.00    +0.000 OA
BRANCH  18  20
ATOM     19  C   UNL     1      46.322   3.504   7.378  0.00  0.00    +0.000 C 
ATOM     20  C   UNL     1      45.089   3.976   8.128  0.00  0.00    +0.000 C 
ENDBRANCH  18  20
ENDBRANCH  12  18
ENDBRANCH   8  17
ENDBRANCH   7  10
ENDBRANCH   1   7
BRANCH   4  21
ATOM     21  C   UNL     1      51.275   8.039  16.371  0.00  0.00    +0.000 C 
BRANCH  21  22
ATOM     22  N   UNL     1      51.962   6.817  16.700  0.00  0.00    +0.000 N 
ATOM     23  C   UNL     1      51.575   6.041  17.762  0.00  0.00    +0.000 C 
ATOM     24  O   UNL     1      50.599   6.323  18.452  0.00  0.00    +0.000 OA
ATOM     25  H   UNL     1      52.889   6.695  16.306  0.00  0.00    +0.000 HD
BRANCH  23  26
ATOM     26  C   UNL     1      52.353   4.817  17.994  0.00  0.00    +0.000 A 
ATOM     27  C   UNL     1      53.675   4.911  18.412  0.00  0.00    +0.000 A 
ATOM     28  S   UNL     1      54.407   3.399  18.702  0.00  0.00    +0.000 S 
ATOM     29  C   UNL     1      53.003   2.564  18.226  0.00  0.00    +0.000 A 
ATOM     30  N   UNL     1      52.964   1.205  18.224  0.00  0.00    +0.000 NA
ATOM     31  C   UNL     1      51.848   0.704  17.810  0.00  0.00    +0.000 A 
ATOM     32  N   UNL     1      50.767   1.439  17.399  0.00  0.00    +0.000 N 
ATOM     33  C   UNL     1      50.752   2.813  17.406  0.00  0.00    +0.000 A 
ATOM     34  O   UNL     1      49.757   3.442  17.060  0.00  0.00    +0.000 OA
ATOM     35  C   UNL     1      51.984   3.428  17.861  0.00  0.00    +0.000 A 
ATOM     36  H   UNL     1      49.920   0.986  17.089  0.00  0.00    +0.000 HD
ENDBRANCH  23  26
ENDBRANCH  21  22
ENDBRANCH   4  21
TORSDOF 8
ENDMDL
MODEL 5
REMARK VINA RESULT:    -6.425      4.950      6.655
REMARK INTER + INTRA:         -11.003
REMARK INTER:                  -9.586
REMARK INTRA:                  -1.417
REMARK UNBOUND:                -1.573
REMARK  Name = 
REMARK  9 active torsions:
REMARK  status: ('A' for Active; 'I' for Inactive)
REMARK    1  A    between atoms: C_1  and  C_2
REMARK    2  A    between atoms: C_2  and  O_3
REMARK    3  A    between atoms: O_3  and  C_4
REMARK    4  A    between atoms: C_9  and  C_10
REMARK    5  A    between atoms: N_12  and  C_13
REMARK    6  A    between atoms: C_13  and  C_14
REMARK    7  A    between atoms: C_17  and  C_18
REMARK    8  A    between atoms: C_18  and  N_19
REMARK    9  A    between atoms: C_20  and  C_22
REMARK                            x       y       z     vdW  Elec       q    Type
REMARK                         _______ _______ _______ _____ _____    ______ ____
ROOT
ATOM      1  C   UNL     1      50.375   8.900  11.258  0.00  0.00    +0.000 A 
ATOM      2  C   UNL     1      49.466   9.950  11.441  0.00  0.00    +0.000 A 
ATOM      3  C   UNL     1      48.187   9.707  11.956  0.00  0.00    +0.000 A 
ATOM      4  C   UNL     1      47.800   8.410  12.319  0.00  0.00    +0.000 A 
ATOM      5  C   UNL     1      48.701   7.357  12.111  0.00  0.00    +0.000 A 
ATOM      6  C   UNL     1      49.978   7.600  11.595  0.00  0.00    +0.000 A 
ENDROOT
BRANCH   1   7
ATOM      7  C   UNL     1      51.765   9.163  10.738  0.00  0.00    +0.000 C 
BRANCH   7  10
ATOM      8  C   UNL     1      53.540   7.766   9.762  0.00  0.00    +0.000 C 
ATOM      9  O   UNL     1      54.407   8.358  10.400  0.00  0.00    +0.000 OA
ATOM     10  N   UNL     1      52.213   8.113   9.854  0.00  0.00    +0.000 N 
ATOM     11  H   UNL     1      51.535   7.616   9.286  0.00  0.00    +0.000 HD
BRANCH   8  17
ATOM     12  C   UNL     1      53.393   6.391   7.577  0.00  0.00    +0.000 A 
ATOM     13  C   UNL     1      53.799   5.249   6.865  0.00  0.00    +0.000 A 
ATOM     14  C   UNL     1      54.697   4.333   7.426  0.00  0.00    +0.000 A 
ATOM     15  C   UNL     1      55.206   4.550   8.698  0.00  0.00    +0.000 A 
ATOM     16  C   UNL     1      54.817   5.683   9.413  0.00  0.00    +0.000 A 
ATOM     17  C   UNL     1      53.908   6.614   8.870  0.00  0.00    +0.000 A 
BRANCH  12  18
ATOM     18  O   UNL     1      52.550   7.334   7.040  0.00  0.00    +0.000 OA
BRANCH  18  20
ATOM     19  C   UNL     1      52.206   9.483   6.060  0.00  0.00    +0.000 C 
ATOM     20  C   UNL     1      53.113   8.266   6.115  0.00  0.00    +0.000 C 
ENDBRANCH  18  20
ENDBRANCH  12  18
ENDBRANCH   8  17
ENDBRANCH   7  10
ENDBRANCH   1   7
BRANCH   4  21
ATOM     21  C   UNL     1      46.433   8.137  12.892  0.00  0.00    +0.000 C 
BRANCH  21  22
ATOM     22  N   UNL     1      45.981   6.811  12.559  0.00  0.00    +0.000 N 
ATOM     23  C   UNL     1      44.854   6.607  11.805  0.00  0.00    +0.000 C 
ATOM     24  O   UNL     1      44.206   7.540  11.338  0.00  0.00    +0.000 OA
ATOM     25  H   UNL     1      46.351   6.050  13.119  0.00  0.00    +0.000 HD
BRANCH  23  26
ATOM     26  C   UNL     1      44.498   5.209  11.530  0.00  0.00    +0.000 A 
ATOM     27  C   UNL     1      43.795   4.479  12.480  0.00  0.00    +0.000 A 
ATOM     28  S   UNL     1      43.401   2.899  11.973  0.00  0.00    +0.000 S 
ATOM     29  C   UNL     1      44.204   3.116  10.488  0.00  0.00    +0.000 A 
ATOM     30  N   UNL     1      44.260   2.114   9.570  0.00  0.00    +0.000 NA
ATOM     31  C   UNL     1      44.927   2.405   8.504  0.00  0.00    +0.000 A 
ATOM     32  N   UNL     1      45.542   3.607   8.270  0.00  0.00    +0.000 N 
ATOM     33  C   UNL     1      45.492   4.655   9.157  0.00  0.00    +0.000 A 
ATOM     34  O   UNL     1      46.029   5.730   8.906  0.00  0.00    +0.000 OA
ATOM     35  C   UNL     1      44.755   4.381  10.376  0.00  0.00    +0.000 A 
ATOM     36  H   UNL     1      46.047   3.773   7.412  0.00  0.00    +0.000 HD
ENDBRANCH  23  26
ENDBRANCH  21  22
ENDBRANCH   4  21
TORSDOF 8
ENDMDL
MODEL 6
REMARK VINA RESULT:    -6.419      3.616      5.900
REMARK INTER + INTRA:         -10.994
REMARK INTER:                 -10.012
REMARK INTRA:                  -0.982
REMARK UNBOUND:                -1.573
REMARK  Name = 
REMARK  9 active torsions:
REMARK  status: ('A' for Active; 'I' for Inactive)
REMARK    1  A    between atoms: C_1  and  C_2
REMARK    2  A    between atoms: C_2  and  O_3
REMARK    3  A    between atoms: O_3  and  C_4
REMARK    4  A    between atoms: C_9  and  C_10
REMARK    5  A    between atoms: N_12  and  C_13
REMARK    6  A    between atoms: C_13  and  C_14
REMARK    7  A    between atoms: C_17  and  C_18
REMARK    8  A    between atoms: C_18  and  N_19
REMARK    9  A    between atoms: C_20  and  C_22
REMARK                            x       y       z     vdW  Elec       q    Type
REMARK                         _______ _______ _______ _____ _____    ______ ____
ROOT
ATOM      1  C   UNL     1      51.626   2.846  17.743  0.00  0.00    +0.000 A 
ATOM      2  C   UNL     1      50.843   1.837  17.166  0.00  0.00    +0.000 A 
ATOM      3  C   UNL     1      49.472   2.027  16.958  0.00  0.00    +0.000 A 
ATOM      4  C   UNL     1      48.860   3.240  17.304  0.00  0.00    +0.000 A 
ATOM      5  C   UNL     1      49.639   4.238  17.906  0.00  0.00    +0.000 A 
ATOM      6  C   UNL     1      51.008   4.047  18.114  0.00  0.00    +0.000 A 
ENDROOT
BRANCH   1   7
ATOM      7  C   UNL     1      53.109   2.659  17.935  0.00  0.00    +0.000 C 
BRANCH   7  10
ATOM      8  C   UNL     1      54.546   0.663  17.864  0.00  0.00    +0.000 C 
ATOM      9  O   UNL     1      55.297   1.189  17.046  0.00  0.00    +0.000 OA
ATOM     10  N   UNL     1      53.430   1.311  18.339  0.00  0.00    +0.000 N 
ATOM     11  H   UNL     1      52.822   0.827  18.991  0.00  0.00    +0.000 HD
BRANCH   8  17
ATOM     12  C   UNL     1      54.923  -1.883  17.611  0.00  0.00    +0.000 A 
ATOM     13  C   UNL     1      55.174  -3.112  18.244  0.00  0.00    +0.000 A 
ATOM     14  C   UNL     1      55.337  -3.187  19.632  0.00  0.00    +0.000 A 
ATOM     15  C   UNL     1      55.261  -2.037  20.404  0.00  0.00    +0.000 A 
ATOM     16  C   UNL     1      55.019  -0.809  19.788  0.00  0.00    +0.000 A 
ATOM     17  C   UNL     1      54.843  -0.712  18.393  0.00  0.00    +0.000 A 
BRANCH  12  18
ATOM     18  O   UNL     1      54.803  -1.765  16.248  0.00  0.00    +0.000 OA
BRANCH  18  20
ATOM     19  C   UNL     1      54.235  -3.571  14.795  0.00  0.00    +0.000 C 
ATOM     20  C   UNL     1      55.371  -2.804  15.448  0.00  0.00    +0.000 C 
ENDBRANCH  18  20
ENDBRANCH  12  18
ENDBRANCH   8  17
ENDBRANCH   7  10
ENDBRANCH   1   7
BRANCH   4  21
ATOM     21  C   UNL     1      47.389   3.464  17.068  0.00  0.00    +0.000 C 
BRANCH  21  22
ATOM     22  N   UNL     1      47.167   4.492  16.083  0.00  0.00    +0.000 N 
ATOM     23  C   UNL     1      47.186   4.212  14.741  0.00  0.00    +0.000 C 
ATOM     24  O   UNL     1      47.344   3.071  14.316  0.00  0.00    +0.000 OA
ATOM     25  H   UNL     1      47.273   5.451  16.394  0.00  0.00    +0.000 HD
BRANCH  23  26
ATOM     26  C   UNL     1      46.944   5.343  13.836  0.00  0.00    +0.000 A 
ATOM     27  C   UNL     1      47.929   6.308  13.661  0.00  0.00    +0.000 A 
ATOM     28  S   UNL     1      47.513   7.509  12.525  0.00  0.00    +0.000 S 
ATOM     29  C   UNL     1      45.981   6.816  12.269  0.00  0.00    +0.000 A 
ATOM     30  N   UNL     1      45.094   7.377  11.404  0.00  0.00    +0.000 NA
ATOM     31  C   UNL     1      43.960   6.765  11.330  0.00  0.00    +0.000 A 
ATOM     32  N   UNL     1      43.631   5.641  12.042  0.00  0.00    +0.000 N 
ATOM     33  C   UNL     1      44.501   5.026  12.909  0.00  0.00    +0.000 A 
ATOM     34  O   UNL     1      44.187   4.003  13.510  0.00  0.00    +0.000 OA
ATOM     35  C   UNL     1      45.793   5.675  13.031  0.00  0.00    +0.000 A 
ATOM     36  H   UNL     1      42.725   5.208  11.938  0.00  0.00    +0.000 HD
ENDBRANCH  23  26
ENDBRANCH  21  22
ENDBRANCH   4  21
TORSDOF 8
ENDMDL
MODEL 7
REMARK VINA RESULT:    -6.322      4.935      6.493
REMARK INTER + INTRA:         -10.852
REMARK INTER:                  -9.586
REMARK INTRA:                  -1.266
REMARK UNBOUND:                -1.573
REMARK  Name = 
REMARK  9 active torsions:
REMARK  status: ('A' for Active; 'I' for Inactive)
REMARK    1  A    between atoms: C_1  and  C_2
REMARK    2  A    between atoms: C_2  and  O_3
REMARK    3  A    between atoms: O_3  and  C_4
REMARK    4  A    between atoms: C_9  and  C_10
REMARK    5  A    between atoms: N_12  and  C_13
REMARK    6  A    between atoms: C_13  and  C_14
REMARK    7  A    between atoms: C_17  and  C_18
REMARK    8  A    between atoms: C_18  and  N_19
REMARK    9  A    between atoms: C_20  and  C_22
REMARK                            x       y       z     vdW  Elec       q    Type
REMARK                         _______ _______ _______ _____ _____    ______ ____
ROOT
ATOM      1  C   UNL     1      50.496   8.784  11.371  0.00  0.00    +0.000 A 
ATOM      2  C   UNL     1      49.643   9.879  11.563  0.00  0.00    +0.000 A 
ATOM      3  C   UNL     1      48.341   9.694  12.043  0.00  0.00    +0.000 A 
ATOM      4  C   UNL     1      47.874   8.412  12.362  0.00  0.00    +0.000 A 
ATOM      5  C   UNL     1      48.719   7.315  12.145  0.00  0.00    +0.000 A 
ATOM      6  C   UNL     1      50.019   7.500  11.663  0.00  0.00    +0.000 A 
ENDROOT
BRANCH   1   7
ATOM      7  C   UNL     1      51.910   8.982  10.888  0.00  0.00    +0.000 C 
BRANCH   7  10
ATOM      8  C   UNL     1      53.512   8.016   9.289  0.00  0.00    +0.000 C 
ATOM      9  O   UNL     1      54.334   8.899   9.524  0.00  0.00    +0.000 OA
ATOM     10  N   UNL     1      52.282   7.994   9.903  0.00  0.00    +0.000 N 
ATOM     11  H   UNL     1      51.623   7.262   9.657  0.00  0.00    +0.000 HD
BRANCH   8  17
ATOM     12  C   UNL     1      54.161   5.584   8.698  0.00  0.00    +0.000 A 
ATOM     13  C   UNL     1      54.486   4.655   7.696  0.00  0.00    +0.000 A 
ATOM     14  C   UNL     1      54.506   5.028   6.347  0.00  0.00    +0.000 A 
ATOM     15  C   UNL     1      54.193   6.329   5.981  0.00  0.00    +0.000 A 
ATOM     16  C   UNL     1      53.861   7.260   6.965  0.00  0.00    +0.000 A 
ATOM     17  C   UNL     1      53.843   6.908   8.330  0.00  0.00    +0.000 A 
BRANCH  12  18
ATOM     18  O   UNL     1      54.087   5.242  10.026  0.00  0.00    +0.000 OA
BRANCH  18  20
ATOM     19  C   UNL     1      55.356   4.049  11.658  0.00  0.00    +0.000 C 
ATOM     20  C   UNL     1      55.298   5.289  10.783  0.00  0.00    +0.000 C 
ENDBRANCH  18  20
ENDBRANCH  12  18
ENDBRANCH   8  17
ENDBRANCH   7  10
ENDBRANCH   1   7
BRANCH   4  21
ATOM     21  C   UNL     1      46.481   8.202  12.899  0.00  0.00    +0.000 C 
BRANCH  21  22
ATOM     22  N   UNL     1      46.002   6.876  12.605  0.00  0.00    +0.000 N 
ATOM     23  C   UNL     1      44.949   6.668  11.751  0.00  0.00    +0.000 C 
ATOM     24  O   UNL     1      44.398   7.593  11.161  0.00  0.00    +0.000 OA
ATOM     25  H   UNL     1      46.276   6.140  13.247  0.00  0.00    +0.000 HD
BRANCH  23  26
ATOM     26  C   UNL     1      44.555   5.271  11.529  0.00  0.00    +0.000 A 
ATOM     27  C   UNL     1      43.847   4.591  12.513  0.00  0.00    +0.000 A 
ATOM     28  S   UNL     1      43.409   3.006  12.065  0.00  0.00    +0.000 S 
ATOM     29  C   UNL     1      44.197   3.151  10.565  0.00  0.00    +0.000 A 
ATOM     30  N   UNL     1      44.218   2.117   9.681  0.00  0.00    +0.000 NA
ATOM     31  C   UNL     1      44.878   2.354   8.598  0.00  0.00    +0.000 A 
ATOM     32  N   UNL     1      45.519   3.532   8.315  0.00  0.00    +0.000 N 
ATOM     33  C   UNL     1      45.506   4.611   9.165  0.00  0.00    +0.000 A 
ATOM     34  O   UNL     1      46.065   5.663   8.871  0.00  0.00    +0.000 OA
ATOM     35  C   UNL     1      44.778   4.397  10.402  0.00  0.00    +0.000 A 
ATOM     36  H   UNL     1      46.017   3.656   7.446  0.00  0.00    +0.000 HD
ENDBRANCH  23  26
ENDBRANCH  21  22
ENDBRANCH   4  21
TORSDOF 8
ENDMDL
MODEL 8
REMARK VINA RESULT:    -6.301      2.972      5.396
REMARK INTER + INTRA:         -10.821
REMARK INTER:                  -9.038
REMARK INTRA:                  -1.783
REMARK UNBOUND:                -1.573
REMARK  Name = 
REMARK  9 active torsions:
REMARK  status: ('A' for Active; 'I' for Inactive)
REMARK    1  A    between atoms: C_1  and  C_2
REMARK    2  A    between atoms: C_2  and  O_3
REMARK    3  A    between atoms: O_3  and  C_4
REMARK    4  A    between atoms: C_9  and  C_10
REMARK    5  A    between atoms: N_12  and  C_13
REMARK    6  A    between atoms: C_13  and  C_14
REMARK    7  A    between atoms: C_17  and  C_18
REMARK    8  A    between atoms: C_18  and  N_19
REMARK    9  A    between atoms: C_20  and  C_22
REMARK                            x       y       z     vdW  Elec       q    Type
REMARK                         _______ _______ _______ _____ _____    ______ ____
ROOT
ATOM      1  C   UNL     1      51.463   4.027  17.633  0.00  0.00    +0.000 A 
ATOM      2  C   UNL     1      50.983   2.731  17.404  0.00  0.00    +0.000 A 
ATOM      3  C   UNL     1      49.629   2.510  17.126  0.00  0.00    +0.000 A 
ATOM      4  C   UNL     1      48.732   3.584  17.050  0.00  0.00    +0.000 A 
ATOM      5  C   UNL     1      49.208   4.877  17.305  0.00  0.00    +0.000 A 
ATOM      6  C   UNL     1      50.561   5.097  17.584  0.00  0.00    +0.000 A 
ENDROOT
BRANCH   1   7
ATOM      7  C   UNL     1      52.927   4.274  17.897  0.00  0.00    +0.000 C 
BRANCH   7  10
ATOM      8  C   UNL     1      53.758   6.395  16.966  0.00  0.00    +0.000 C 
ATOM      9  O   UNL     1      54.049   5.855  15.901  0.00  0.00    +0.000 OA
ATOM     10  N   UNL     1      53.219   5.683  18.012  0.00  0.00    +0.000 N 
ATOM     11  H   UNL     1      53.022   6.164  18.883  0.00  0.00    +0.000 HD
BRANCH   8  17
ATOM     12  C   UNL     1      52.933   8.832  17.219  0.00  0.00    +0.000 A 
ATOM     13  C   UNL     1      53.270  10.190  17.356  0.00  0.00    +0.000 A 
ATOM     14  C   UNL     1      54.608  10.596  17.415  0.00  0.00    +0.000 A 
ATOM     15  C   UNL     1      55.624   9.655  17.347  0.00  0.00    +0.000 A 
ATOM     16  C   UNL     1      55.304   8.303  17.219  0.00  0.00    +0.000 A 
ATOM     17  C   UNL     1      53.963   7.872  17.149  0.00  0.00    +0.000 A 
BRANCH  12  18
ATOM     18  O   UNL     1      51.631   8.392  17.203  0.00  0.00    +0.000 OA
BRANCH  18  20
ATOM     19  C   UNL     1      50.885   7.757  15.027  0.00  0.00    +0.000 C 
ATOM     20  C   UNL     1      50.810   8.815  16.113  0.00  0.00    +0.000 C 
ENDBRANCH  18  20
ENDBRANCH  12  18
ENDBRANCH   8  17
ENDBRANCH   7  10
ENDBRANCH   1   7
BRANCH   4  21
ATOM     21  C   UNL     1      47.276   3.361  16.732  0.00  0.00    +0.000 C 
BRANCH  21  22
ATOM     22  N   UNL     1      46.784   4.350  15.808  0.00  0.00    +0.000 N 
ATOM     23  C   UNL     1      46.796   4.132  14.454  0.00  0.00    +0.000 C 
ATOM     24  O   UNL     1      47.178   3.071  13.969  0.00  0.00    +0.000 OA
ATOM     25  H   UNL     1      46.692   5.297  16.160  0.00  0.00    +0.000 HD
BRANCH  23  26
ATOM     26  C   UNL     1      46.265   5.215  13.615  0.00  0.00    +0.000 A 
ATOM     27  C   UNL     1      47.002   6.381  13.450  0.00  0.00    +0.000 A 
ATOM     28  S   UNL     1      46.275   7.502  12.390  0.00  0.00    +0.000 S 
ATOM     29  C   UNL     1      44.924   6.495  12.160  0.00  0.00    +0.000 A 
ATOM     30  N   UNL     1      43.894   6.876  11.358  0.00  0.00    +0.000 NA
ATOM     31  C   UNL     1      42.922   6.030  11.299  0.00  0.00    +0.000 A 
ATOM     32  N   UNL     1      42.885   4.834  11.968  0.00  0.00    +0.000 N 
ATOM     33  C   UNL     1      43.911   4.396  12.769  0.00  0.00    +0.000 A 
ATOM     34  O   UNL     1      43.861   3.306  13.332  0.00  0.00    +0.000 OA
ATOM     35  C   UNL     1      45.031   5.312  12.872  0.00  0.00    +0.000 A 
ATOM     36  H   UNL     1      42.094   4.213  11.878  0.00  0.00    +0.000 HD
ENDBRANCH  23  26
ENDBRANCH  21  22
ENDBRANCH   4  21
TORSDOF 8
ENDMDL
MODEL 9
REMARK VINA RESULT:    -6.266      5.643      8.674
REMARK INTER + INTRA:         -10.769
REMARK INTER:                  -9.527
REMARK INTRA:                  -1.242
REMARK UNBOUND:                -1.573
REMARK  Name = 
REMARK  9 active torsions:
REMARK  status: ('A' for Active; 'I' for Inactive)
REMARK    1  A    between atoms: C_1  and  C_2
REMARK    2  A    between atoms: C_2  and  O_3
REMARK    3  A    between atoms: O_3  and  C_4
REMARK    4  A    between atoms: C_9  and  C_10
REMARK    5  A    between atoms: N_12  and  C_13
REMARK    6  A    between atoms: C_13  and  C_14
REMARK    7  A    between atoms: C_17  and  C_18
REMARK    8  A    between atoms: C_18  and  N_19
REMARK    9  A    between atoms: C_20  and  C_22
REMARK                            x       y       z     vdW  Elec       q    Type
REMARK                         _______ _______ _______ _____ _____    ______ ____
ROOT
ATOM      1  C   UNL     1      47.678   8.542  12.141  0.00  0.00    +0.000 A 
ATOM      2  C   UNL     1      48.509   7.415  12.113  0.00  0.00    +0.000 A 
ATOM      3  C   UNL     1      49.866   7.535  11.792  0.00  0.00    +0.000 A 
ATOM      4  C   UNL     1      50.424   8.790  11.515  0.00  0.00    +0.000 A 
ATOM      5  C   UNL     1      49.587   9.914  11.518  0.00  0.00    +0.000 A 
ATOM      6  C   UNL     1      48.231   9.793  11.837  0.00  0.00    +0.000 A 
ENDROOT
BRANCH   1   7
ATOM      7  C   UNL     1      46.224   8.422  12.521  0.00  0.00    +0.000 C 
BRANCH   7  10
ATOM      8  C   UNL     1      44.711   6.646  11.741  0.00  0.00    +0.000 C 
ATOM      9  O   UNL     1      44.065   7.444  11.065  0.00  0.00    +0.000 OA
ATOM     10  N   UNL     1      45.780   7.049  12.506  0.00  0.00    +0.000 N 
ATOM     11  H   UNL     1      46.266   6.360  13.071  0.00  0.00    +0.000 HD
BRANCH   8  17
ATOM     12  C   UNL     1      44.507   4.324  10.621  0.00  0.00    +0.000 A 
ATOM     13  C   UNL     1      44.106   2.983  10.739  0.00  0.00    +0.000 A 
ATOM     14  C   UNL     1      43.560   2.497  11.933  0.00  0.00    +0.000 A 
ATOM     15  C   UNL     1      43.416   3.340  13.024  0.00  0.00    +0.000 A 
ATOM     16  C   UNL     1      43.817   4.672  12.924  0.00  0.00    +0.000 A 
ATOM     17  C   UNL     1      44.361   5.185  11.729  0.00  0.00    +0.000 A 
BRANCH  12  18
ATOM     18  O   UNL     1      45.089   4.824   9.481  0.00  0.00    +0.000 OA
BRANCH  18  20
ATOM     19  C   UNL     1      46.279   3.825   7.670  0.00  0.00    +0.000 C 
ATOM     20  C   UNL     1      44.910   4.080   8.274  0.00  0.00    +0.000 C 
ENDBRANCH  18  20
ENDBRANCH  12  18
ENDBRANCH   8  17
ENDBRANCH   7  10
ENDBRANCH   1   7
BRANCH   4  21
ATOM     21  C   UNL     1      51.888   8.936  11.187  0.00  0.00    +0.000 C 
BRANCH  21  22
ATOM     22  N   UNL     1      52.195   8.372   9.898  0.00  0.00    +0.000 N 
ATOM     23  C   UNL     1      53.364   8.670   9.246  0.00  0.00    +0.000 C 
ATOM     24  O   UNL     1      54.223   9.390   9.748  0.00  0.00    +0.000 OA
ATOM     25  H   UNL     1      51.419   7.980   9.376  0.00  0.00    +0.000 HD
BRANCH  23  26
ATOM     26  C   UNL     1      53.564   8.030   7.940  0.00  0.00    +0.000 A 
ATOM     27  C   UNL     1      53.613   8.810   6.792  0.00  0.00    +0.000 A 
ATOM     28  S   UNL     1      53.922   7.917   5.372  0.00  0.00    +0.000 S 
ATOM     29  C   UNL     1      53.944   6.450   6.233  0.00  0.00    +0.000 A 
ATOM     30  N   UNL     1      54.148   5.267   5.595  0.00  0.00    +0.000 NA
ATOM     31  C   UNL     1      54.109   4.231   6.365  0.00  0.00    +0.000 A 
ATOM     32  N   UNL     1      53.885   4.271   7.716  0.00  0.00    +0.000 N 
ATOM     33  C   UNL     1      53.698   5.443   8.407  0.00  0.00    +0.000 A 
ATOM     34  O   UNL     1      53.529   5.448   9.623  0.00  0.00    +0.000 OA
ATOM     35  C   UNL     1      53.731   6.639   7.588  0.00  0.00    +0.000 A 
ATOM     36  H   UNL     1      53.869   3.423   8.264  0.00  0.00    +0.000 HD
ENDBRANCH  23  26
ENDBRANCH  21  22
ENDBRANCH   4  21
TORSDOF 8
ENDMDL
