MODEL 1
REMARK VINA RESULT:    -7.258      0.000      0.000
REMARK INTER + INTRA:         -11.542
REMARK INTER:                 -10.228
REMARK INTRA:                  -1.313
REMARK UNBOUND:                -1.313
REMARK  Name = 
REMARK  8 active torsions:
REMARK  status: ('A' for Active; 'I' for Inactive)
REMARK    1  A    between atoms: C_1  and  O_2
REMARK    2  A    between atoms: O_2  and  C_3
REMARK    3  A    between atoms: C_8  and  C_9
REMARK    4  A    between atoms: N_11  and  C_12
REMARK    5  A    between atoms: C_12  and  C_13
REMARK    6  A    between atoms: C_16  and  C_17
REMARK    7  A    between atoms: C_17  and  N_18
REMARK    8  A    between atoms: C_19  and  C_21
REMARK                            x       y       z     vdW  Elec       q    Type
REMARK                         _______ _______ _______ _____ _____    ______ ____
ROOT
ATOM      1  C   UNL     1      50.237   7.351  15.268  0.00  0.00    +0.000 A 
ATOM      2  C   UNL     1      48.990   6.713  15.317  0.00  0.00    +0.000 A 
ATOM      3  C   UNL     1      48.095   6.807  14.246  0.00  0.00    +0.000 A 
ATOM      4  C   UNL     1      48.423   7.561  13.113  0.00  0.00    +0.000 A 
ATOM      5  C   UNL     1      49.670   8.187  13.069  0.00  0.00    +0.000 A 
ATOM      6  F   UNL     1      50.014   8.913  11.994  0.00  0.00    +0.000 F 
ATOM      7  C   UNL     1      50.570   8.092  14.127  0.00  0.00    +0.000 A 
ENDROOT
BRANCH   1   8
ATOM      8  C   UNL     1      51.180   7.278  16.440  0.00  0.00    +0.000 C 
BRANCH   8  11
ATOM      9  C   UNL     1      51.248   5.137  17.653  0.00  0.00    +0.000 C 
ATOM     10  O   UNL     1      50.433   5.534  18.483  0.00  0.00    +0.000 OA
ATOM     11  N   UNL     1      51.683   5.938  16.625  0.00  0.00    +0.000 N 
ATOM     12  H   UNL     1      52.379   5.573  15.984  0.00  0.00    +0.000 HD
BRANCH   9  18
ATOM     13  C   UNL     1      51.081   2.592  17.252  0.00  0.00    +0.000 A 
ATOM     14  C   UNL     1      51.643   1.319  17.452  0.00  0.00    +0.000 A 
ATOM     15  C   UNL     1      52.871   1.169  18.099  0.00  0.00    +0.000 A 
ATOM     16  C   UNL     1      53.567   2.288  18.533  0.00  0.00    +0.000 A 
ATOM     17  C   UNL     1      53.024   3.559  18.342  0.00  0.00    +0.000 A 
ATOM     18  C   UNL     1      51.772   3.729  17.717  0.00  0.00    +0.000 A 
BRANCH  13  20
ATOM     19  C   UNL     1      48.701   2.541  17.303  0.00  0.00    +0.000 C 
ATOM     20  O   UNL     1      49.901   2.776  16.573  0.00  0.00    +0.000 OA
ENDBRANCH  13  20
ENDBRANCH   9  18
ENDBRANCH   8  11
ENDBRANCH   1   8
BRANCH   4  21
ATOM     21  C   UNL     1      47.468   7.682  11.961  0.00  0.00    +0.000 C 
BRANCH  21  22
ATOM     22  N   UNL     1      46.739   6.459  11.740  0.00  0.00    +0.000 N 
ATOM     23  C   UNL     1      45.373   6.377  11.802  0.00  0.00    +0.000 C 
ATOM     24  O   UNL     1      44.666   7.348  12.057  0.00  0.00    +0.000 OA
ATOM     25  H   UNL     1      47.291   5.607  11.740  0.00  0.00    +0.000 HD
BRANCH  23  26
ATOM     26  C   UNL     1      44.793   5.070  11.470  0.00  0.00    +0.000 A 
ATOM     27  C   UNL     1      44.012   4.404  12.406  0.00  0.00    +0.000 A 
ATOM     28  S   UNL     1      43.400   2.913  11.847  0.00  0.00    +0.000 S 
ATOM     29  C   UNL     1      44.188   3.085  10.351  0.00  0.00    +0.000 A 
ATOM     30  N   UNL     1      44.103   2.118   9.400  0.00  0.00    +0.000 NA
ATOM     31  C   UNL     1      44.778   2.367   8.323  0.00  0.00    +0.000 A 
ATOM     32  N   UNL     1      45.516   3.502   8.110  0.00  0.00    +0.000 N 
ATOM     33  C   UNL     1      45.586   4.531   9.022  0.00  0.00    +0.000 A 
ATOM     34  O   UNL     1      46.174   5.572   8.755  0.00  0.00    +0.000 OA
ATOM     35  C   UNL     1      44.884   4.280  10.265  0.00  0.00    +0.000 A 
ATOM     36  H   UNL     1      46.000   3.648   7.238  0.00  0.00    +0.000 HD
ENDBRANCH  23  26
ENDBRANCH  21  22
ENDBRANCH   4  21
TORSDOF 7
ENDMDL
MODEL 2
REMARK VINA RESULT:    -7.238      3.508      9.671
REMARK INTER + INTRA:         -11.514
REMARK INTER:                 -10.206
REMARK INTRA:                  -1.308
REMARK UNBOUND:                -1.313
REMARK  Name = 
REMARK  8 active torsions:
REMARK  status: ('A' for Active; 'I' for Inactive)
REMARK    1  A    between atoms: C_1  and  O_2
REMARK    2  A    between atoms: O_2  and  C_3
REMARK    3  A    between atoms: C_8  and  C_9
REMARK    4  A    between atoms: N_11  and  C_12
REMARK    5  A    between atoms: C_12  and  C_13
REMARK    6  A    between atoms: C_16  and  C_17
REMARK    7  A    between atoms: C_17  and  N_18
REMARK    8  A    between atoms: C_19  and  C_21
REMARK                            x       y       z     vdW  Elec       q    Type
REMARK                         _______ _______ _______ _____ _____    ______ ____
ROOT
ATOM      1  C   UNL     1      47.565   6.039  14.400  0.00  0.00    +0.000 A 
ATOM      2  C   UNL     1      48.580   6.736  15.071  0.00  0.00    +0.000 A 
ATOM      3  C   UNL     1      49.171   6.206  16.223  0.00  0.00    +0.000 A 
ATOM      4  C   UNL     1      48.743   4.977  16.739  0.00  0.00    +0.000 A 
ATOM      5  C   UNL     1      47.737   4.286  16.060  0.00  0.00    +0.000 A 
ATOM      6  F   UNL     1      47.309   3.104  16.527  0.00  0.00    +0.000 F 
ATOM      7  C   UNL     1      47.149   4.802  14.908  0.00  0.00    +0.000 A 
ENDROOT
BRANCH   1   8
ATOM      8  C   UNL     1      46.906   6.633  13.183  0.00  0.00    +0.000 C 
BRANCH   8  11
ATOM      9  C   UNL     1      45.690   5.874  11.183  0.00  0.00    +0.000 C 
ATOM     10  O   UNL     1      45.208   6.990  11.001  0.00  0.00    +0.000 OA
ATOM     11  N   UNL     1      46.522   5.608  12.243  0.00  0.00    +0.000 N 
ATOM     12  H   UNL     1      46.868   4.663  12.365  0.00  0.00    +0.000 HD
BRANCH   9  18
ATOM     13  C   UNL     1      44.875   3.503  10.564  0.00  0.00    +0.000 A 
ATOM     14  C   UNL     1      44.745   2.513   9.575  0.00  0.00    +0.000 A 
ATOM     15  C   UNL     1      45.134   2.758   8.257  0.00  0.00    +0.000 A 
ATOM     16  C   UNL     1      45.634   4.003   7.902  0.00  0.00    +0.000 A 
ATOM     17  C   UNL     1      45.770   4.997   8.871  0.00  0.00    +0.000 A 
ATOM     18  C   UNL     1      45.409   4.760  10.213  0.00  0.00    +0.000 A 
BRANCH  13  20
ATOM     19  C   UNL     1      43.295   2.501  12.037  0.00  0.00    +0.000 C 
ATOM     20  O   UNL     1      44.454   3.310  11.857  0.00  0.00    +0.000 OA
ENDBRANCH  13  20
ENDBRANCH   9  18
ENDBRANCH   8  11
ENDBRANCH   1   8
BRANCH   4  21
ATOM     21  C   UNL     1      49.358   4.401  17.980  0.00  0.00    +0.000 C 
BRANCH  21  22
ATOM     22  N   UNL     1      50.711   3.962  17.751  0.00  0.00    +0.000 N 
ATOM     23  C   UNL     1      51.698   4.046  18.698  0.00  0.00    +0.000 C 
ATOM     24  O   UNL     1      51.500   4.511  19.817  0.00  0.00    +0.000 OA
ATOM     25  H   UNL     1      50.960   3.775  16.785  0.00  0.00    +0.000 HD
BRANCH  23  26
ATOM     26  C   UNL     1      52.998   3.477  18.322  0.00  0.00    +0.000 A 
ATOM     27  C   UNL     1      54.151   4.241  18.456  0.00  0.00    +0.000 A 
ATOM     28  S   UNL     1      55.572   3.418  17.995  0.00  0.00    +0.000 S 
ATOM     29  C   UNL     1      54.695   2.027  17.564  0.00  0.00    +0.000 A 
ATOM     30  N   UNL     1      55.322   0.936  17.051  0.00  0.00    +0.000 NA
ATOM     31  C   UNL     1      54.528  -0.038  16.738  0.00  0.00    +0.000 A 
ATOM     32  N   UNL     1      53.168  -0.021  16.906  0.00  0.00    +0.000 N 
ATOM     33  C   UNL     1      52.498   1.040  17.472  0.00  0.00    +0.000 A 
ATOM     34  O   UNL     1      51.295   0.979  17.697  0.00  0.00    +0.000 OA
ATOM     35  C   UNL     1      53.337   2.175  17.797  0.00  0.00    +0.000 A 
ATOM     36  H   UNL     1      52.607  -0.823  16.665  0.00  0.00    +0.000 HD
ENDBRANCH  23  26
ENDBRANCH  21  22
ENDBRANCH   4  21
TORSDOF 7
ENDMDL
MODEL 3
REMARK VINA RESULT:    -7.106      3.161      9.501
REMARK INTER + INTRA:         -11.328
REMARK INTER:                 -10.445
REMARK INTRA:                  -0.882
REMARK UNBOUND:                -1.313
REMARK  Name = 
REMARK  8 active torsions:
REMARK  status: ('A' for Active; 'I' for Inactive)
REMARK    1  A    between atoms: C_1  and  O_2
REMARK    2  A    between atoms: O_2  and  C_3
REMARK    3  A    between atoms: C_8  and  C_9
REMARK    4  A    between atoms: N_11  and  C_12
REMARK    5  A    between atoms: C_12  and  C_13
REMARK    6  A    between atoms: C_16  and  C_17
REMARK    7  A    between atoms: C_17  and  N_18
REMARK    8  A    between atoms: C_19  and  C_21
REMARK                            x       y       z     vdW  Elec       q    Type
REMARK                         _______ _______ _______ _____ _____    ______ ____
ROOT
ATOM      1  C   UNL     1      47.508   5.715  14.503  0.00  0.00    +0.000 A 
ATOM      2  C   UNL     1      47.036   4.398  14.607  0.00  0.00    +0.000 A 
ATOM      3  C   UNL     1      47.276   3.642  15.759  0.00  0.00    +0.000 A 
ATOM      4  C   UNL     1      48.011   4.180  16.822  0.00  0.00    +0.000 A 
ATOM      5  C   UNL     1      48.470   5.494  16.713  0.00  0.00    +0.000 A 
ATOM      6  F   UNL     1      49.174   6.039  17.717  0.00  0.00    +0.000 F 
ATOM      7  C   UNL     1      48.230   6.258  15.574  0.00  0.00    +0.000 A 
ENDROOT
BRANCH   1   8
ATOM      8  C   UNL     1      47.280   6.511  13.246  0.00  0.00    +0.000 C 
BRANCH   8  11
ATOM      9  C   UNL     1      45.719   6.032  11.405  0.00  0.00    +0.000 C 
ATOM     10  O   UNL     1      45.093   7.070  11.609  0.00  0.00    +0.000 OA
ATOM     11  N   UNL     1      46.798   5.673  12.175  0.00  0.00    +0.000 N 
ATOM     12  H   UNL     1      47.261   4.791  11.983  0.00  0.00    +0.000 HD
BRANCH   9  18
ATOM     13  C   UNL     1      44.319   4.160  10.308  0.00  0.00    +0.000 A 
ATOM     14  C   UNL     1      44.123   3.317   9.200  0.00  0.00    +0.000 A 
ATOM     15  C   UNL     1      44.922   3.431   8.061  0.00  0.00    +0.000 A 
ATOM     16  C   UNL     1      45.910   4.404   8.001  0.00  0.00    +0.000 A 
ATOM     17  C   UNL     1      46.117   5.249   9.092  0.00  0.00    +0.000 A 
ATOM     18  C   UNL     1      45.340   5.131  10.262  0.00  0.00    +0.000 A 
BRANCH  13  20
ATOM     19  C   UNL     1      43.704   2.996  12.292  0.00  0.00    +0.000 C 
ATOM     20  O   UNL     1      43.516   4.107  11.421  0.00  0.00    +0.000 OA
ENDBRANCH  13  20
ENDBRANCH   9  18
ENDBRANCH   8  11
ENDBRANCH   1   8
BRANCH   4  21
ATOM     21  C   UNL     1      48.287   3.376  18.058  0.00  0.00    +0.000 C 
BRANCH  21  22
ATOM     22  N   UNL     1      49.679   3.022  18.166  0.00  0.00    +0.000 N 
ATOM     23  C   UNL     1      50.315   2.197  17.276  0.00  0.00    +0.000 C 
ATOM     24  O   UNL     1      49.737   1.692  16.318  0.00  0.00    +0.000 OA
ATOM     25  H   UNL     1      50.127   3.244  19.049  0.00  0.00    +0.000 HD
BRANCH  23  26
ATOM     26  C   UNL     1      51.755   2.009  17.492  0.00  0.00    +0.000 A 
ATOM     27  C   UNL     1      52.280   0.725  17.566  0.00  0.00    +0.000 A 
ATOM     28  S   UNL     1      53.970   0.691  17.796  0.00  0.00    +0.000 S 
ATOM     29  C   UNL     1      54.055   2.388  17.845  0.00  0.00    +0.000 A 
ATOM     30  N   UNL     1      55.238   3.023  18.053  0.00  0.00    +0.000 NA
ATOM     31  C   UNL     1      55.150   4.314  18.097  0.00  0.00    +0.000 A 
ATOM     32  N   UNL     1      53.988   5.023  17.937  0.00  0.00    +0.000 N 
ATOM     33  C   UNL     1      52.778   4.424  17.669  0.00  0.00    +0.000 A 
ATOM     34  O   UNL     1      51.780   5.095  17.433  0.00  0.00    +0.000 OA
ATOM     35  C   UNL     1      52.814   2.976  17.656  0.00  0.00    +0.000 A 
ATOM     36  H   UNL     1      53.990   6.031  17.957  0.00  0.00    +0.000 HD
ENDBRANCH  23  26
ENDBRANCH  21  22
ENDBRANCH   4  21
TORSDOF 7
ENDMDL
MODEL 4
REMARK VINA RESULT:    -7.074      3.366      8.994
REMARK INTER + INTRA:         -11.283
REMARK INTER:                 -10.249
REMARK INTRA:                  -1.033
REMARK UNBOUND:                -1.313
REMARK  Name = 
REMARK  8 active torsions:
REMARK  status: ('A' for Active; 'I' for Inactive)
REMARK    1  A    between atoms: C_1  and  O_2
REMARK    2  A    between atoms: O_2  and  C_3
REMARK    3  A    between atoms: C_8  and  C_9
REMARK    4  A    between atoms: N_11  and  C_12
REMARK    5  A    between atoms: C_12  and  C_13
REMARK    6  A    between atoms: C_16  and  C_17
REMARK    7  A    between atoms: C_17  and  N_18
REMARK    8  A    between atoms: C_19  and  C_21
REMARK                            x       y       z     vdW  Elec       q    Type
REMARK                         _______ _______ _______ _____ _____    ______ ____
ROOT
ATOM      1  C   UNL     1      45.164   5.976  11.151  0.00  0.00    +0.000 A 
ATOM      2  C   UNL     1      44.486   6.934  11.918  0.00  0.00    +0.000 A 
ATOM      3  C   UNL     1      45.187   7.801  12.763  0.00  0.00    +0.000 A 
ATOM      4  C   UNL     1      46.580   7.712  12.874  0.00  0.00    +0.000 A 
ATOM      5  C   UNL     1      47.248   6.760  12.101  0.00  0.00    +0.000 A 
ATOM      6  F   UNL     1      48.583   6.653  12.182  0.00  0.00    +0.000 F 
ATOM      7  C   UNL     1      46.559   5.898  11.251  0.00  0.00    +0.000 A 
ENDROOT
BRANCH   1   8
ATOM      8  C   UNL     1      44.401   5.020  10.273  0.00  0.00    +0.000 C 
BRANCH   8  11
ATOM      9  C   UNL     1      45.357   3.256   8.848  0.00  0.00    +0.000 C 
ATOM     10  O   UNL     1      44.851   2.370   9.533  0.00  0.00    +0.000 OA
ATOM     11  N   UNL     1      45.199   4.587   9.152  0.00  0.00    +0.000 N 
ATOM     12  H   UNL     1      45.663   5.277   8.572  0.00  0.00    +0.000 HD
BRANCH   9  18
ATOM     13  C   UNL     1      46.722   1.647   7.359  0.00  0.00    +0.000 A 
ATOM     14  C   UNL     1      47.511   1.475   6.209  0.00  0.00    +0.000 A 
ATOM     15  C   UNL     1      47.726   2.530   5.320  0.00  0.00    +0.000 A 
ATOM     16  C   UNL     1      47.135   3.764   5.554  0.00  0.00    +0.000 A 
ATOM     17  C   UNL     1      46.349   3.952   6.691  0.00  0.00    +0.000 A 
ATOM     18  C   UNL     1      46.144   2.907   7.615  0.00  0.00    +0.000 A 
BRANCH  13  20
ATOM     19  C   UNL     1      46.506  -0.702   7.686  0.00  0.00    +0.000 C 
ATOM     20  O   UNL     1      46.450   0.616   8.224  0.00  0.00    +0.000 OA
ENDBRANCH  13  20
ENDBRANCH   9  18
ENDBRANCH   8  11
ENDBRANCH   1   8
BRANCH   4  21
ATOM     21  C   UNL     1      47.344   8.626  13.785  0.00  0.00    +0.000 C 
BRANCH  21  22
ATOM     22  N   UNL     1      47.742   7.960  14.999  0.00  0.00    +0.000 N 
ATOM     23  C   UNL     1      49.051   7.732  15.336  0.00  0.00    +0.000 C 
ATOM     24  O   UNL     1      49.985   8.077  14.618  0.00  0.00    +0.000 OA
ATOM     25  H   UNL     1      47.005   7.479  15.504  0.00  0.00    +0.000 HD
BRANCH  23  26
ATOM     26  C   UNL     1      49.277   7.113  16.648  0.00  0.00    +0.000 A 
ATOM     27  C   UNL     1      49.954   7.816  17.636  0.00  0.00    +0.000 A 
ATOM     28  S   UNL     1      50.107   6.958  19.101  0.00  0.00    +0.000 S 
ATOM     29  C   UNL     1      49.309   5.602  18.457  0.00  0.00    +0.000 A 
ATOM     30  N   UNL     1      49.132   4.477  19.198  0.00  0.00    +0.000 NA
ATOM     31  C   UNL     1      48.537   3.513  18.571  0.00  0.00    +0.000 A 
ATOM     32  N   UNL     1      48.092   3.582  17.277  0.00  0.00    +0.000 N 
ATOM     33  C   UNL     1      48.201   4.718  16.508  0.00  0.00    +0.000 A 
ATOM     34  O   UNL     1      47.703   4.774  15.390  0.00  0.00    +0.000 OA
ATOM     35  C   UNL     1      48.902   5.812  17.149  0.00  0.00    +0.000 A 
ATOM     36  H   UNL     1      47.613   2.803  16.853  0.00  0.00    +0.000 HD
ENDBRANCH  23  26
ENDBRANCH  21  22
ENDBRANCH   4  21
TORSDOF 7
ENDMDL
MODEL 5
REMARK VINA RESULT:    -6.902      2.957      8.779
REMARK INTER + INTRA:         -11.039
REMARK INTER:                  -9.873
REMARK INTRA:                  -1.166
REMARK UNBOUND:                -1.313
REMARK  Name = 
REMARK  8 active torsions:
REMARK  status: ('A' for Active; 'I' for Inactive)
REMARK    1  A    between atoms: C_1  and  O_2
REMARK    2  A    between atoms: O_2  and  C_3
REMARK    3  A    between atoms: C_8  and  C_9
REMARK    4  A    between atoms: N_11  and  C_12
REMARK    5  A    between atoms: C_12  and  C_13
REMARK    6  A    between atoms: C_16  and  C_17
REMARK    7  A    between atoms: C_17  and  N_18
REMARK    8  A    between atoms: C_19  and  C_21
REMARK                            x       y       z     vdW  Elec       q    Type
REMARK                         _______ _______ _______ _____ _____    ______ ____
ROOT
ATOM      1  C   UNL     1      47.955   7.837  13.311  0.00  0.00    +0.000 A 
ATOM      2  C   UNL     1      48.321   6.633  13.930  0.00  0.00    +0.000 A 
ATOM      3  C   UNL     1      48.692   6.606  15.279  0.00  0.00    +0.000 A 
ATOM      4  C   UNL     1      48.727   7.788  16.029  0.00  0.00    +0.000 A 
ATOM      5  C   UNL     1      48.354   8.981  15.407  0.00  0.00    +0.000 A 
ATOM      6  F   UNL     1      48.372  10.129  16.100  0.00  0.00    +0.000 F 
ATOM      7  C   UNL     1      47.974   9.016  14.067  0.00  0.00    +0.000 A 
ENDROOT
BRANCH   1   8
ATOM      8  C   UNL     1      47.593   7.865  11.850  0.00  0.00    +0.000 C 
BRANCH   8  11
ATOM      9  C   UNL     1      45.680   6.483  11.153  0.00  0.00    +0.000 C 
ATOM     10  O   UNL     1      44.900   7.423  11.283  0.00  0.00    +0.000 OA
ATOM     11  N   UNL     1      47.021   6.610  11.428  0.00  0.00    +0.000 N 
ATOM     12  H   UNL     1      47.616   5.795  11.334  0.00  0.00    +0.000 HD
BRANCH   9  18
ATOM     13  C   UNL     1      44.588   4.160  11.441  0.00  0.00    +0.000 A 
ATOM     14  C   UNL     1      44.255   2.924  10.861  0.00  0.00    +0.000 A 
ATOM     15  C   UNL     1      44.513   2.671   9.512  0.00  0.00    +0.000 A 
ATOM     16  C   UNL     1      45.081   3.657   8.718  0.00  0.00    +0.000 A 
ATOM     17  C   UNL     1      45.416   4.890   9.278  0.00  0.00    +0.000 A 
ATOM     18  C   UNL     1      45.191   5.155  10.645  0.00  0.00    +0.000 A 
BRANCH  13  20
ATOM     19  C   UNL     1      42.980   4.915  13.028  0.00  0.00    +0.000 C 
ATOM     20  O   UNL     1      44.300   4.458  12.751  0.00  0.00    +0.000 OA
ENDBRANCH  13  20
ENDBRANCH   9  18
ENDBRANCH   8  11
ENDBRANCH   1   8
BRANCH   4  21
ATOM     21  C   UNL     1      49.135   7.777  17.473  0.00  0.00    +0.000 C 
BRANCH  21  22
ATOM     22  N   UNL     1      50.175   6.812  17.726  0.00  0.00    +0.000 N 
ATOM     23  C   UNL     1      49.988   5.691  18.492  0.00  0.00    +0.000 C 
ATOM     24  O   UNL     1      48.914   5.430  19.025  0.00  0.00    +0.000 OA
ATOM     25  H   UNL     1      51.117   7.101  17.484  0.00  0.00    +0.000 HD
BRANCH  23  26
ATOM     26  C   UNL     1      51.133   4.776  18.578  0.00  0.00    +0.000 A 
ATOM     27  C   UNL     1      52.287   5.174  19.240  0.00  0.00    +0.000 A 
ATOM     28  S   UNL     1      53.506   3.981  19.265  0.00  0.00    +0.000 S 
ATOM     29  C   UNL     1      52.551   2.905  18.359  0.00  0.00    +0.000 A 
ATOM     30  N   UNL     1      53.025   1.685  17.996  0.00  0.00    +0.000 NA
ATOM     31  C   UNL     1      52.203   0.983  17.283  0.00  0.00    +0.000 A 
ATOM     32  N   UNL     1      50.948   1.389  16.914  0.00  0.00    +0.000 N 
ATOM     33  C   UNL     1      50.406   2.594  17.305  0.00  0.00    +0.000 A 
ATOM     34  O   UNL     1      49.245   2.879  17.039  0.00  0.00    +0.000 OA
ATOM     35  C   UNL     1      51.304   3.436  18.067  0.00  0.00    +0.000 A 
ATOM     36  H   UNL     1      50.345   0.785  16.377  0.00  0.00    +0.000 HD
ENDBRANCH  23  26
ENDBRANCH  21  22
ENDBRANCH   4  21
TORSDOF 7
ENDMDL
MODEL 6
REMARK VINA RESULT:    -6.886      1.726      2.719
REMARK INTER + INTRA:         -11.017
REMARK INTER:                  -9.531
REMARK INTRA:                  -1.485
REMARK UNBOUND:                -1.313
REMARK  Name = 
REMARK  8 active torsions:
REMARK  status: ('A' for Active; 'I' for Inactive)
REMARK    1  A    between atoms: C_1  and  O_2
REMARK    2  A    between atoms: O_2  and  C_3
REMARK    3  A    between atoms: C_8  and  C_9
REMARK    4  A    between atoms: N_11  and  C_12
REMARK    5  A    between atoms: C_12  and  C_13
REMARK    6  A    between atoms: C_16  and  C_17
REMARK    7  A    between atoms: C_17  and  N_18
REMARK    8  A    between atoms: C_19  and  C_21
REMARK                            x       y       z     vdW  Elec       q    Type
REMARK                         _______ _______ _______ _____ _____    ______ ____
ROOT
ATOM      1  C   UNL     1      49.629   7.721  15.988  0.00  0.00    +0.000 A 
ATOM      2  C   UNL     1      50.451   7.381  14.904  0.00  0.00    +0.000 A 
ATOM      3  C   UNL     1      50.010   7.560  13.588  0.00  0.00    +0.000 A 
ATOM      4  C   UNL     1      48.730   8.062  13.331  0.00  0.00    +0.000 A 
ATOM      5  C   UNL     1      47.921   8.407  14.416  0.00  0.00    +0.000 A 
ATOM      6  F   UNL     1      46.690   8.895  14.202  0.00  0.00    +0.000 F 
ATOM      7  C   UNL     1      48.354   8.240  15.730  0.00  0.00    +0.000 A 
ENDROOT
BRANCH   1   8
ATOM      8  C   UNL     1      50.094   7.491  17.402  0.00  0.00    +0.000 C 
BRANCH   8  11
ATOM      9  C   UNL     1      50.128   5.062  17.797  0.00  0.00    +0.000 C 
ATOM     10  O   UNL     1      48.913   5.033  17.979  0.00  0.00    +0.000 OA
ATOM     11  N   UNL     1      50.792   6.234  17.525  0.00  0.00    +0.000 N 
ATOM     12  H   UNL     1      51.799   6.208  17.413  0.00  0.00    +0.000 HD
BRANCH   9  18
ATOM     13  C   UNL     1      52.273   3.698  18.252  0.00  0.00    +0.000 A 
ATOM     14  C   UNL     1      52.941   2.465  18.149  0.00  0.00    +0.000 A 
ATOM     15  C   UNL     1      52.294   1.339  17.637  0.00  0.00    +0.000 A 
ATOM     16  C   UNL     1      50.965   1.420  17.246  0.00  0.00    +0.000 A 
ATOM     17  C   UNL     1      50.288   2.636  17.343  0.00  0.00    +0.000 A 
ATOM     18  C   UNL     1      50.932   3.792  17.829  0.00  0.00    +0.000 A 
BRANCH  13  20
ATOM     19  C   UNL     1      53.303   4.703  20.149  0.00  0.00    +0.000 C 
ATOM     20  O   UNL     1      52.865   4.810  18.798  0.00  0.00    +0.000 OA
ENDBRANCH  13  20
ENDBRANCH   9  18
ENDBRANCH   8  11
ENDBRANCH   1   8
BRANCH   4  21
ATOM     21  C   UNL     1      48.238   8.248  11.926  0.00  0.00    +0.000 C 
BRANCH  21  22
ATOM     22  N   UNL     1      47.531   7.086  11.450  0.00  0.00    +0.000 N 
ATOM     23  C   UNL     1      46.167   7.031  11.338  0.00  0.00    +0.000 C 
ATOM     24  O   UNL     1      45.442   7.973  11.645  0.00  0.00    +0.000 OA
ATOM     25  H   UNL     1      48.073   6.229  11.392  0.00  0.00    +0.000 HD
BRANCH  23  26
ATOM     26  C   UNL     1      45.620   5.798  10.758  0.00  0.00    +0.000 A 
ATOM     27  C   UNL     1      45.830   5.514   9.415  0.00  0.00    +0.000 A 
ATOM     28  S   UNL     1      45.147   4.033   8.915  0.00  0.00    +0.000 S 
ATOM     29  C   UNL     1      44.513   3.737  10.465  0.00  0.00    +0.000 A 
ATOM     30  N   UNL     1      43.772   2.626  10.717  0.00  0.00    +0.000 NA
ATOM     31  C   UNL     1      43.327   2.545  11.930  0.00  0.00    +0.000 A 
ATOM     32  N   UNL     1      43.571   3.468  12.913  0.00  0.00    +0.000 N 
ATOM     33  C   UNL     1      44.360   4.579  12.718  0.00  0.00    +0.000 A 
ATOM     34  O   UNL     1      44.636   5.328  13.647  0.00  0.00    +0.000 OA
ATOM     35  C   UNL     1      44.845   4.740  11.362  0.00  0.00    +0.000 A 
ATOM     36  H   UNL     1      43.215   3.335  13.847  0.00  0.00    +0.000 HD
ENDBRANCH  23  26
ENDBRANCH  21  22
ENDBRANCH   4  21
TORSDOF 7
ENDMDL
MODEL 7
REMARK VINA RESULT:    -6.853      5.274      8.577
REMARK INTER + INTRA:         -10.971
REMARK INTER:                  -9.602
REMARK INTRA:                  -1.370
REMARK UNBOUND:                -1.313
REMARK  Name = 
REMARK  8 active torsions:
REMARK  status: ('A' for Active; 'I' for Inactive)
REMARK    1  A    between atoms: C_1  and  O_2
REMARK    2  A    between atoms: O_2  and  C_3
REMARK    3  A    between atoms: C_8  and  C_9
REMARK    4  A    between atoms: N_11  and  C_12
REMARK    5  A    between atoms: C_12  and  C_13
REMARK    6  A    between atoms: C_16  and  C_17
REMARK    7  A    between atoms: C_17  and  N_18
REMARK    8  A    between atoms: C_19  and  C_21
REMARK                            x       y       z     vdW  Elec       q    Type
REMARK                         _______ _______ _______ _____ _____    ______ ____
ROOT
ATOM      1  C   UNL     1      48.111   7.819  12.507  0.00  0.00    +0.000 A 
ATOM      2  C   UNL     1      49.372   7.209  12.578  0.00  0.00    +0.000 A 
ATOM      3  C   UNL     1      50.510   7.861  12.090  0.00  0.00    +0.000 A 
ATOM      4  C   UNL     1      50.405   9.127  11.502  0.00  0.00    +0.000 A 
ATOM      5  C   UNL     1      49.147   9.730  11.442  0.00  0.00    +0.000 A 
ATOM      6  F   UNL     1      49.016  10.944  10.888  0.00  0.00    +0.000 F 
ATOM      7  C   UNL     1      48.010   9.092  11.933  0.00  0.00    +0.000 A 
ENDROOT
BRANCH   1   8
ATOM      8  C   UNL     1      46.884   7.097  12.999  0.00  0.00    +0.000 C 
BRANCH   8  11
ATOM      9  C   UNL     1      45.608   6.059  11.168  0.00  0.00    +0.000 C 
ATOM     10  O   UNL     1      44.960   7.087  10.981  0.00  0.00    +0.000 OA
ATOM     11  N   UNL     1      46.563   5.974  12.152  0.00  0.00    +0.000 N 
ATOM     12  H   UNL     1      47.049   5.093  12.284  0.00  0.00    +0.000 HD
BRANCH   9  18
ATOM     13  C   UNL     1      44.993   3.588  10.738  0.00  0.00    +0.000 A 
ATOM     14  C   UNL     1      44.922   2.524   9.823  0.00  0.00    +0.000 A 
ATOM     15  C   UNL     1      45.245   2.710   8.478  0.00  0.00    +0.000 A 
ATOM     16  C   UNL     1      45.618   3.967   8.022  0.00  0.00    +0.000 A 
ATOM     17  C   UNL     1      45.694   5.034   8.918  0.00  0.00    +0.000 A 
ATOM     18  C   UNL     1      45.400   4.860  10.285  0.00  0.00    +0.000 A 
BRANCH  13  20
ATOM     19  C   UNL     1      43.372   2.837  12.313  0.00  0.00    +0.000 C 
ATOM     20  O   UNL     1      44.632   3.449  12.056  0.00  0.00    +0.000 OA
ENDBRANCH  13  20
ENDBRANCH   9  18
ENDBRANCH   8  11
ENDBRANCH   1   8
BRANCH   4  21
ATOM     21  C   UNL     1      51.615   9.832  10.963  0.00  0.00    +0.000 C 
BRANCH  21  22
ATOM     22  N   UNL     1      52.035   9.283   9.700  0.00  0.00    +0.000 N 
ATOM     23  C   UNL     1      53.289   8.774   9.482  0.00  0.00    +0.000 C 
ATOM     24  O   UNL     1      54.153   8.756  10.353  0.00  0.00    +0.000 OA
ATOM     25  H   UNL     1      51.429   9.473   8.908  0.00  0.00    +0.000 HD
BRANCH  23  26
ATOM     26  C   UNL     1      53.520   8.181   8.159  0.00  0.00    +0.000 A 
ATOM     27  C   UNL     1      53.625   9.002   7.043  0.00  0.00    +0.000 A 
ATOM     28  S   UNL     1      53.915   8.150   5.594  0.00  0.00    +0.000 S 
ATOM     29  C   UNL     1      53.871   6.653   6.398  0.00  0.00    +0.000 A 
ATOM     30  N   UNL     1      54.020   5.487   5.716  0.00  0.00    +0.000 NA
ATOM     31  C   UNL     1      53.934   4.424   6.450  0.00  0.00    +0.000 A 
ATOM     32  N   UNL     1      53.727   4.426   7.804  0.00  0.00    +0.000 N 
ATOM     33  C   UNL     1      53.625   5.583   8.544  0.00  0.00    +0.000 A 
ATOM     34  O   UNL     1      53.540   5.545   9.765  0.00  0.00    +0.000 OA
ATOM     35  C   UNL     1      53.669   6.801   7.761  0.00  0.00    +0.000 A 
ATOM     36  H   UNL     1      53.694   3.563   8.324  0.00  0.00    +0.000 HD
ENDBRANCH  23  26
ENDBRANCH  21  22
ENDBRANCH   4  21
TORSDOF 7
ENDMDL
MODEL 8
REMARK VINA RESULT:    -6.771      1.953      3.145
REMARK INTER + INTRA:         -10.855
REMARK INTER:                  -9.815
REMARK INTRA:                  -1.040
REMARK UNBOUND:                -1.313
REMARK  Name = 
REMARK  8 active torsions:
REMARK  status: ('A' for Active; 'I' for Inactive)
REMARK    1  A    between atoms: C_1  and  O_2
REMARK    2  A    between atoms: O_2  and  C_3
REMARK    3  A    between atoms: C_8  and  C_9
REMARK    4  A    between atoms: N_11  and  C_12
REMARK    5  A    between atoms: C_12  and  C_13
REMARK    6  A    between atoms: C_16  and  C_17
REMARK    7  A    between atoms: C_17  and  N_18
REMARK    8  A    between atoms: C_19  and  C_21
REMARK                            x       y       z     vdW  Elec       q    Type
REMARK                         _______ _______ _______ _____ _____    ______ ____
ROOT
ATOM      1  C   UNL     1      49.073   4.964  17.425  0.00  0.00    +0.000 A 
ATOM      2  C   UNL     1      48.001   4.493  16.654  0.00  0.00    +0.000 A 
ATOM      3  C   UNL     1      47.651   5.124  15.455  0.00  0.00    +0.000 A 
ATOM      4  C   UNL     1      48.352   6.253  15.016  0.00  0.00    +0.000 A 
ATOM      5  C   UNL     1      49.423   6.711  15.786  0.00  0.00    +0.000 A 
ATOM      6  F   UNL     1      50.117   7.788  15.389  0.00  0.00    +0.000 F 
ATOM      7  C   UNL     1      49.784   6.085  16.977  0.00  0.00    +0.000 A 
ENDROOT
BRANCH   1   8
ATOM      8  C   UNL     1      49.422   4.305  18.733  0.00  0.00    +0.000 C 
BRANCH   8  11
ATOM      9  C   UNL     1      51.048   2.717  17.790  0.00  0.00    +0.000 C 
ATOM     10  O   UNL     1      50.216   2.265  17.007  0.00  0.00    +0.000 OA
ATOM     11  N   UNL     1      50.736   3.710  18.686  0.00  0.00    +0.000 N 
ATOM     12  H   UNL     1      51.451   4.027  19.331  0.00  0.00    +0.000 HD
BRANCH   9  18
ATOM     13  C   UNL     1      53.609   3.036  17.701  0.00  0.00    +0.000 A 
ATOM     14  C   UNL     1      54.877   2.440  17.591  0.00  0.00    +0.000 A 
ATOM     15  C   UNL     1      55.017   1.051  17.547  0.00  0.00    +0.000 A 
ATOM     16  C   UNL     1      53.895   0.238  17.638  0.00  0.00    +0.000 A 
ATOM     17  C   UNL     1      52.629   0.815  17.747  0.00  0.00    +0.000 A 
ATOM     18  C   UNL     1      52.465   2.215  17.765  0.00  0.00    +0.000 A 
BRANCH  13  20
ATOM     19  C   UNL     1      54.515   5.131  18.382  0.00  0.00    +0.000 C 
ATOM     20  O   UNL     1      53.443   4.396  17.799  0.00  0.00    +0.000 OA
ENDBRANCH  13  20
ENDBRANCH   9  18
ENDBRANCH   8  11
ENDBRANCH   1   8
BRANCH   4  21
ATOM     21  C   UNL     1      47.979   6.948  13.740  0.00  0.00    +0.000 C 
BRANCH  21  22
ATOM     22  N   UNL     1      47.232   6.085  12.860  0.00  0.00    +0.000 N 
ATOM     23  C   UNL     1      46.367   6.552  11.907  0.00  0.00    +0.000 C 
ATOM     24  O   UNL     1      46.159   7.750  11.736  0.00  0.00    +0.000 OA
ATOM     25  H   UNL     1      47.215   5.102  13.111  0.00  0.00    +0.000 HD
BRANCH  23  26
ATOM     26  C   UNL     1      45.751   5.535  11.045  0.00  0.00    +0.000 A 
ATOM     27  C   UNL     1      45.887   5.625   9.665  0.00  0.00    +0.000 A 
ATOM     28  S   UNL     1      45.131   4.351   8.821  0.00  0.00    +0.000 S 
ATOM     29  C   UNL     1      44.563   3.655  10.264  0.00  0.00    +0.000 A 
ATOM     30  N   UNL     1      43.798   2.532  10.245  0.00  0.00    +0.000 NA
ATOM     31  C   UNL     1      43.410   2.131  11.414  0.00  0.00    +0.000 A 
ATOM     32  N   UNL     1      43.731   2.745  12.596  0.00  0.00    +0.000 N 
ATOM     33  C   UNL     1      44.547   3.852  12.666  0.00  0.00    +0.000 A 
ATOM     34  O   UNL     1      44.893   4.314  13.747  0.00  0.00    +0.000 OA
ATOM     35  C   UNL     1      44.971   4.368  11.380  0.00  0.00    +0.000 A 
ATOM     36  H   UNL     1      43.417   2.368  13.477  0.00  0.00    +0.000 HD
ENDBRANCH  23  26
ENDBRANCH  21  22
ENDBRANCH   4  21
TORSDOF 7
ENDMDL
MODEL 9
REMARK VINA RESULT:    -6.543      3.157      9.136
REMARK INTER + INTRA:         -10.533
REMARK INTER:                  -9.109
REMARK INTRA:                  -1.424
REMARK UNBOUND:                -1.313
REMARK  Name = 
REMARK  8 active torsions:
REMARK  status: ('A' for Active; 'I' for Inactive)
REMARK    1  A    between atoms: C_1  and  O_2
REMARK    2  A    between atoms: O_2  and  C_3
REMARK    3  A    between atoms: C_8  and  C_9
REMARK    4  A    between atoms: N_11  and  C_12
REMARK    5  A    between atoms: C_12  and  C_13
REMARK    6  A    between atoms: C_16  and  C_17
REMARK    7  A    between atoms: C_17  and  N_18
REMARK    8  A    between atoms: C_19  and  C_21
REMARK                            x       y       z     vdW  Elec       q    Type
REMARK                         _______ _______ _______ _____ _____    ______ ____
ROOT
ATOM      1  C   UNL     1      48.726   7.172  13.897  0.00  0.00    +0.000 A 
ATOM      2  C   UNL     1      49.764   8.030  14.289  0.00  0.00    +0.000 A 
ATOM      3  C   UNL     1      50.276   7.986  15.590  0.00  0.00    +0.000 A 
ATOM      4  C   UNL     1      49.744   7.097  16.532  0.00  0.00    +0.000 A 
ATOM      5  C   UNL     1      48.715   6.242  16.131  0.00  0.00    +0.000 A 
ATOM      6  F   UNL     1      48.188   5.376  17.010  0.00  0.00    +0.000 F 
ATOM      7  C   UNL     1      48.205   6.273  14.835  0.00  0.00    +0.000 A 
ENDROOT
BRANCH   1   8
ATOM      8  C   UNL     1      48.154   7.251  12.506  0.00  0.00    +0.000 C 
BRANCH   8  11
ATOM      9  C   UNL     1      45.913   6.274  12.221  0.00  0.00    +0.000 C 
ATOM     10  O   UNL     1      45.368   7.348  12.468  0.00  0.00    +0.000 OA
ATOM     11  N   UNL     1      47.280   6.135  12.236  0.00  0.00    +0.000 N 
ATOM     12  H   UNL     1      47.678   5.221  12.055  0.00  0.00    +0.000 HD
BRANCH   9  18
ATOM     13  C   UNL     1      44.890   4.605  10.537  0.00  0.00    +0.000 A 
ATOM     14  C   UNL     1      44.022   3.522  10.318  0.00  0.00    +0.000 A 
ATOM     15  C   UNL     1      43.360   2.904  11.381  0.00  0.00    +0.000 A 
ATOM     16  C   UNL     1      43.576   3.343  12.680  0.00  0.00    +0.000 A 
ATOM     17  C   UNL     1      44.434   4.417  12.915  0.00  0.00    +0.000 A 
ATOM     18  C   UNL     1      45.089   5.072  11.853  0.00  0.00    +0.000 A 
BRANCH  13  20
ATOM     19  C   UNL     1      45.834   4.408   8.360  0.00  0.00    +0.000 C 
ATOM     20  O   UNL     1      45.594   5.200   9.519  0.00  0.00    +0.000 OA
ENDBRANCH  13  20
ENDBRANCH   9  18
ENDBRANCH   8  11
ENDBRANCH   1   8
BRANCH   4  21
ATOM     21  C   UNL     1      50.273   7.047  17.935  0.00  0.00    +0.000 C 
BRANCH  21  22
ATOM     22  N   UNL     1      51.023   5.842  18.180  0.00  0.00    +0.000 N 
ATOM     23  C   UNL     1      52.337   5.691  17.824  0.00  0.00    +0.000 C 
ATOM     24  O   UNL     1      52.974   6.576  17.260  0.00  0.00    +0.000 OA
ATOM     25  H   UNL     1      50.480   5.027  18.445  0.00  0.00    +0.000 HD
BRANCH  23  26
ATOM     26  C   UNL     1      52.968   4.426  18.223  0.00  0.00    +0.000 A 
ATOM     27  C   UNL     1      54.182   4.443  18.900  0.00  0.00    +0.000 A 
ATOM     28  S   UNL     1      54.758   2.890  19.307  0.00  0.00    +0.000 S 
ATOM     29  C   UNL     1      53.428   2.139  18.560  0.00  0.00    +0.000 A 
ATOM     30  N   UNL     1      53.322   0.785  18.519  0.00  0.00    +0.000 NA
ATOM     31  C   UNL     1      52.276   0.350  17.893  0.00  0.00    +0.000 A 
ATOM     32  N   UNL     1      51.323   1.149  17.318  0.00  0.00    +0.000 N 
ATOM     33  C   UNL     1      51.361   2.523  17.382  0.00  0.00    +0.000 A 
ATOM     34  O   UNL     1      50.440   3.201  16.943  0.00  0.00    +0.000 OA
ATOM     35  C   UNL     1      52.538   3.061  18.034  0.00  0.00    +0.000 A 
ATOM     36  H   UNL     1      50.516   0.748  16.865  0.00  0.00    +0.000 HD
ENDBRANCH  23  26
ENDBRANCH  21  22
ENDBRANCH   4  21
TORSDOF 7
ENDMDL
