MODEL 1
REMARK VINA RESULT:    -8.221      0.000      0.000
REMARK INTER + INTRA:         -12.784
REMARK INTER:                 -12.066
REMARK INTRA:                  -0.718
REMARK UNBOUND:                -0.718
REMARK  Name = 
REMARK  10 active torsions:
REMARK  status: ('A' for Active; 'I' for Inactive)
REMARK    1  A    between atoms: C_1  and  C_2
REMARK    2  A    between atoms: C_2  and  N_3
REMARK    3  A    between atoms: C_2  and  C_20
REMARK    4  A    between atoms: N_3  and  C_4
REMARK    5  A    between atoms: C_4  and  C_5
REMARK    6  A    between atoms: C_8  and  C_9
REMARK    7  A    between atoms: C_9  and  N_10
REMARK    8  A    between atoms: N_10  and  C_11
REMARK    9  A    between atoms: N_10  and  C_12
REMARK   10  A    between atoms: C_12  and  C_13
REMARK                            x       y       z     vdW  Elec       q    Type
REMARK                         _______ _______ _______ _____ _____    ______ ____
ROOT
ATOM      1  C   UNL     1      48.207   5.776  15.344  0.00  0.00    +0.000 C 
ENDROOT
BRANCH   1   2
ATOM      2  C   UNL     1      47.346   5.731  14.107  0.00  0.00    +0.000 A 
ATOM      3  C   UNL     1      47.525   6.649  13.063  0.00  0.00    +0.000 A 
ATOM      4  C   UNL     1      46.756   6.554  11.903  0.00  0.00    +0.000 A 
ATOM      5  C   UNL     1      45.826   5.518  11.749  0.00  0.00    +0.000 A 
ATOM      6  C   UNL     1      45.627   4.617  12.801  0.00  0.00    +0.000 A 
ATOM      7  C   UNL     1      46.378   4.725  13.968  0.00  0.00    +0.000 A 
BRANCH   5   8
ATOM      8  C   UNL     1      45.055   5.361  10.458  0.00  0.00    +0.000 C 
BRANCH   8   9
ATOM      9  N   UNL     1      45.141   3.995   9.888  0.00  0.00    +0.000 NA
ATOM     10  C   UNL     1      43.983   3.184  10.287  0.00  0.00    +0.000 C 
BRANCH   9  11
ATOM     11  C   UNL     1      45.210   4.056   8.417  0.00  0.00    +0.000 C 
BRANCH  11  12
ATOM     12  C   UNL     1      46.227   3.101   7.880  0.00  0.00    +0.000 A 
ATOM     13  C   UNL     1      46.343   1.732   8.022  0.00  0.00    +0.000 A 
ATOM     14  C   UNL     1      47.404   1.305   7.188  0.00  0.00    +0.000 A 
ATOM     15  C   UNL     1      47.933   2.426   6.590  0.00  0.00    +0.000 A 
ATOM     16  N   UNL     1      47.231   3.515   7.036  0.00  0.00    +0.000 N 
ATOM     17  H   UNL     1      47.367   4.472   6.735  0.00  0.00    +0.000 HD
ENDBRANCH  11  12
ENDBRANCH   9  11
ENDBRANCH   8   9
ENDBRANCH   5   8
ENDBRANCH   1   2
BRANCH   1  18
ATOM     18  N   UNL     1      48.415   4.448  15.921  0.00  0.00    +0.000 NA
ATOM     19  H   UNL     1      47.609   3.870  15.687  0.00  0.00    +0.000 HD
BRANCH  18  21
ATOM     20  C   UNL     1      47.954   5.788  17.978  0.00  0.00    +0.000 C 
ATOM     21  C   UNL     1      48.528   4.494  17.385  0.00  0.00    +0.000 C 
BRANCH  21  22
ATOM     22  C   UNL     1      49.989   4.365  17.770  0.00  0.00    +0.000 A 
ATOM     23  C   UNL     1      50.748   5.317  18.438  0.00  0.00    +0.000 A 
ATOM     24  S   UNL     1      52.322   4.772  18.830  0.00  0.00    +0.000 S 
ATOM     25  C   UNL     1      52.028   3.241  18.142  0.00  0.00    +0.000 A 
ATOM     26  N   UNL     1      52.951   2.240  18.204  0.00  0.00    +0.000 NA
ATOM     27  C   UNL     1      52.560   1.131  17.675  0.00  0.00    +0.000 A 
ATOM     28  N   UNL     1      51.350   0.935  17.059  0.00  0.00    +0.000 N 
ATOM     29  C   UNL     1      50.414   1.928  16.915  0.00  0.00    +0.000 A 
ATOM     30  O   UNL     1      49.381   1.750  16.281  0.00  0.00    +0.000 OA
ATOM     31  C   UNL     1      50.777   3.174  17.565  0.00  0.00    +0.000 A 
ATOM     32  H   UNL     1      51.121   0.047  16.631  0.00  0.00    +0.000 HD
ENDBRANCH  21  22
ENDBRANCH  18  21
ENDBRANCH   1  18
TORSDOF 8
ENDMDL
MODEL 2
REMARK VINA RESULT:    -7.644      2.386      3.178
REMARK INTER + INTRA:         -11.936
REMARK INTER:                 -10.451
REMARK INTRA:                  -1.486
REMARK UNBOUND:                -0.718
REMARK  Name = 
REMARK  10 active torsions:
REMARK  status: ('A' for Active; 'I' for Inactive)
REMARK    1  A    between atoms: C_1  and  C_2
REMARK    2  A    between atoms: C_2  and  N_3
REMARK    3  A    between atoms: C_2  and  C_20
REMARK    4  A    between atoms: N_3  and  C_4
REMARK    5  A    between atoms: C_4  and  C_5
REMARK    6  A    between atoms: C_8  and  C_9
REMARK    7  A    between atoms: C_9  and  N_10
REMARK    8  A    between atoms: N_10  and  C_11
REMARK    9  A    between atoms: N_10  and  C_12
REMARK   10  A    between atoms: C_12  and  C_13
REMARK                            x       y       z     vdW  Elec       q    Type
REMARK                         _______ _______ _______ _____ _____    ______ ____
ROOT
ATOM      1  C   UNL     1      49.665   7.954  13.525  0.00  0.00    +0.000 C 
ENDROOT
BRANCH   1   2
ATOM      2  C   UNL     1      48.280   7.696  12.988  0.00  0.00    +0.000 A 
ATOM      3  C   UNL     1      48.031   6.647  12.093  0.00  0.00    +0.000 A 
ATOM      4  C   UNL     1      46.733   6.390  11.653  0.00  0.00    +0.000 A 
ATOM      5  C   UNL     1      45.656   7.149  12.130  0.00  0.00    +0.000 A 
ATOM      6  C   UNL     1      45.906   8.214  13.003  0.00  0.00    +0.000 A 
ATOM      7  C   UNL     1      47.205   8.485  13.425  0.00  0.00    +0.000 A 
BRANCH   5   8
ATOM      8  C   UNL     1      44.239   6.816  11.724  0.00  0.00    +0.000 C 
BRANCH   8   9
ATOM      9  N   UNL     1      43.916   5.376  11.857  0.00  0.00    +0.000 NA
ATOM     10  C   UNL     1      43.033   5.138  13.007  0.00  0.00    +0.000 C 
BRANCH   9  11
ATOM     11  C   UNL     1      43.263   4.881  10.631  0.00  0.00    +0.000 C 
BRANCH  11  12
ATOM     12  C   UNL     1      44.199   4.052   9.814  0.00  0.00    +0.000 A 
ATOM     13  C   UNL     1      44.485   2.701   9.861  0.00  0.00    +0.000 A 
ATOM     14  C   UNL     1      45.335   2.406   8.768  0.00  0.00    +0.000 A 
ATOM     15  C   UNL     1      45.578   3.587   8.106  0.00  0.00    +0.000 A 
ATOM     16  N   UNL     1      44.908   4.586   8.762  0.00  0.00    +0.000 N 
ATOM     17  H   UNL     1      44.865   5.557   8.479  0.00  0.00    +0.000 HD
ENDBRANCH  11  12
ENDBRANCH   9  11
ENDBRANCH   8   9
ENDBRANCH   5   8
ENDBRANCH   1   2
BRANCH   1  18
ATOM     18  N   UNL     1      50.019   7.035  14.607  0.00  0.00    +0.000 NA
ATOM     19  H   UNL     1      49.720   6.098  14.338  0.00  0.00    +0.000 HD
BRANCH  18  21
ATOM     20  C   UNL     1      49.829   8.717  16.443  0.00  0.00    +0.000 C 
ATOM     21  C   UNL     1      49.346   7.380  15.866  0.00  0.00    +0.000 C 
BRANCH  21  22
ATOM     22  C   UNL     1      49.593   6.275  16.875  0.00  0.00    +0.000 A 
ATOM     23  C   UNL     1      50.512   6.305  17.916  0.00  0.00    +0.000 A 
ATOM     24  S   UNL     1      50.417   4.938  18.940  0.00  0.00    +0.000 S 
ATOM     25  C   UNL     1      49.130   4.277  18.039  0.00  0.00    +0.000 A 
ATOM     26  N   UNL     1      48.505   3.128  18.422  0.00  0.00    +0.000 NA
ATOM     27  C   UNL     1      47.525   2.784  17.659  0.00  0.00    +0.000 A 
ATOM     28  N   UNL     1      47.130   3.457  16.530  0.00  0.00    +0.000 N 
ATOM     29  C   UNL     1      47.766   4.583  16.069  0.00  0.00    +0.000 A 
ATOM     30  O   UNL     1      47.449   5.111  15.011  0.00  0.00    +0.000 OA
ATOM     31  C   UNL     1      48.828   5.054  16.940  0.00  0.00    +0.000 A 
ATOM     32  H   UNL     1      46.373   3.112  15.955  0.00  0.00    +0.000 HD
ENDBRANCH  21  22
ENDBRANCH  18  21
ENDBRANCH   1  18
TORSDOF 8
ENDMDL
MODEL 3
REMARK VINA RESULT:    -7.012      3.977      8.943
REMARK INTER + INTRA:         -11.010
REMARK INTER:                  -9.365
REMARK INTRA:                  -1.645
REMARK UNBOUND:                -0.718
REMARK  Name = 
REMARK  10 active torsions:
REMARK  status: ('A' for Active; 'I' for Inactive)
REMARK    1  A    between atoms: C_1  and  C_2
REMARK    2  A    between atoms: C_2  and  N_3
REMARK    3  A    between atoms: C_2  and  C_20
REMARK    4  A    between atoms: N_3  and  C_4
REMARK    5  A    between atoms: C_4  and  C_5
REMARK    6  A    between atoms: C_8  and  C_9
REMARK    7  A    between atoms: C_9  and  N_10
REMARK    8  A    between atoms: N_10  and  C_11
REMARK    9  A    between atoms: N_10  and  C_12
REMARK   10  A    between atoms: C_12  and  C_13
REMARK                            x       y       z     vdW  Elec       q    Type
REMARK                         _______ _______ _______ _____ _____    ______ ____
ROOT
ATOM      1  C   UNL     1      48.058   7.809  14.345  0.00  0.00    +0.000 C 
ENDROOT
BRANCH   1   2
ATOM      2  C   UNL     1      48.852   7.592  15.609  0.00  0.00    +0.000 A 
ATOM      3  C   UNL     1      48.567   8.309  16.779  0.00  0.00    +0.000 A 
ATOM      4  C   UNL     1      49.275   8.052  17.952  0.00  0.00    +0.000 A 
ATOM      5  C   UNL     1      50.251   7.047  17.989  0.00  0.00    +0.000 A 
ATOM      6  C   UNL     1      50.555   6.348  16.815  0.00  0.00    +0.000 A 
ATOM      7  C   UNL     1      49.864   6.621  15.637  0.00  0.00    +0.000 A 
BRANCH   5   8
ATOM      8  C   UNL     1      50.957   6.705  19.281  0.00  0.00    +0.000 C 
BRANCH   8   9
ATOM      9  N   UNL     1      50.789   5.289  19.683  0.00  0.00    +0.000 NA
ATOM     10  C   UNL     1      51.703   4.940  20.779  0.00  0.00    +0.000 C 
BRANCH   9  11
ATOM     11  C   UNL     1      49.400   5.036  20.107  0.00  0.00    +0.000 C 
BRANCH  11  12
ATOM     12  C   UNL     1      48.609   4.387  19.018  0.00  0.00    +0.000 A 
ATOM     13  C   UNL     1      47.485   4.818  18.339  0.00  0.00    +0.000 A 
ATOM     14  C   UNL     1      47.229   3.887  17.305  0.00  0.00    +0.000 A 
ATOM     15  C   UNL     1      48.176   2.893  17.402  0.00  0.00    +0.000 A 
ATOM     16  N   UNL     1      48.993   3.189  18.461  0.00  0.00    +0.000 N 
ATOM     17  H   UNL     1      49.807   2.661  18.748  0.00  0.00    +0.000 HD
ENDBRANCH  11  12
ENDBRANCH   9  11
ENDBRANCH   8   9
ENDBRANCH   5   8
ENDBRANCH   1   2
BRANCH   1  18
ATOM     18  N   UNL     1      47.168   6.686  14.052  0.00  0.00    +0.000 NA
ATOM     19  H   UNL     1      47.495   5.876  14.576  0.00  0.00    +0.000 HD
BRANCH  18  21
ATOM     20  C   UNL     1      47.857   7.404  11.761  0.00  0.00    +0.000 C 
ATOM     21  C   UNL     1      47.175   6.334  12.625  0.00  0.00    +0.000 C 
BRANCH  21  22
ATOM     22  C   UNL     1      45.745   6.143  12.158  0.00  0.00    +0.000 A 
ATOM     23  C   UNL     1      44.941   7.104  11.561  0.00  0.00    +0.000 A 
ATOM     24  S   UNL     1      43.432   6.492  11.037  0.00  0.00    +0.000 S 
ATOM     25  C   UNL     1      43.817   4.920  11.570  0.00  0.00    +0.000 A 
ATOM     26  N   UNL     1      42.978   3.866  11.356  0.00  0.00    +0.000 NA
ATOM     27  C   UNL     1      43.434   2.738  11.781  0.00  0.00    +0.000 A 
ATOM     28  N   UNL     1      44.629   2.563  12.430  0.00  0.00    +0.000 N 
ATOM     29  C   UNL     1      45.478   3.601  12.725  0.00  0.00    +0.000 A 
ATOM     30  O   UNL     1      46.496   3.430  13.385  0.00  0.00    +0.000 OA
ATOM     31  C   UNL     1      45.045   4.881  12.196  0.00  0.00    +0.000 A 
ATOM     32  H   UNL     1      44.910   1.653  12.771  0.00  0.00    +0.000 HD
ENDBRANCH  21  22
ENDBRANCH  18  21
ENDBRANCH   1  18
TORSDOF 8
ENDMDL
MODEL 4
REMARK VINA RESULT:    -6.879      2.964      3.886
REMARK INTER + INTRA:         -10.814
REMARK INTER:                  -9.765
REMARK INTRA:                  -1.048
REMARK UNBOUND:                -0.718
REMARK  Name = 
REMARK  10 active torsions:
REMARK  status: ('A' for Active; 'I' for Inactive)
REMARK    1  A    between atoms: C_1  and  C_2
REMARK    2  A    between atoms: C_2  and  N_3
REMARK    3  A    between atoms: C_2  and  C_20
REMARK    4  A    between atoms: N_3  and  C_4
REMARK    5  A    between atoms: C_4  and  C_5
REMARK    6  A    between atoms: C_8  and  C_9
REMARK    7  A    between atoms: C_9  and  N_10
REMARK    8  A    between atoms: N_10  and  C_11
REMARK    9  A    between atoms: N_10  and  C_12
REMARK   10  A    between atoms: C_12  and  C_13
REMARK                            x       y       z     vdW  Elec       q    Type
REMARK                         _______ _______ _______ _____ _____    ______ ____
ROOT
ATOM      1  C   UNL     1      48.115   8.220  14.024  0.00  0.00    +0.000 C 
ENDROOT
BRANCH   1   2
ATOM      2  C   UNL     1      47.153   7.444  13.159  0.00  0.00    +0.000 A 
ATOM      3  C   UNL     1      47.091   6.045  13.215  0.00  0.00    +0.000 A 
ATOM      4  C   UNL     1      46.155   5.351  12.449  0.00  0.00    +0.000 A 
ATOM      5  C   UNL     1      45.240   6.043  11.645  0.00  0.00    +0.000 A 
ATOM      6  C   UNL     1      45.319   7.438  11.566  0.00  0.00    +0.000 A 
ATOM      7  C   UNL     1      46.268   8.130  12.314  0.00  0.00    +0.000 A 
BRANCH   5   8
ATOM      8  C   UNL     1      44.168   5.298  10.882  0.00  0.00    +0.000 C 
BRANCH   8   9
ATOM      9  N   UNL     1      44.614   3.972  10.391  0.00  0.00    +0.000 NA
ATOM     10  C   UNL     1      43.837   2.892  11.014  0.00  0.00    +0.000 C 
BRANCH   9  11
ATOM     11  C   UNL     1      44.471   3.893   8.926  0.00  0.00    +0.000 C 
BRANCH  11  12
ATOM     12  C   UNL     1      45.590   3.115   8.313  0.00  0.00    +0.000 A 
ATOM     13  C   UNL     1      45.897   1.769   8.380  0.00  0.00    +0.000 A 
ATOM     14  C   UNL     1      46.977   1.533   7.496  0.00  0.00    +0.000 A 
ATOM     15  C   UNL     1      47.327   2.744   6.943  0.00  0.00    +0.000 A 
ATOM     16  N   UNL     1      46.499   3.703   7.464  0.00  0.00    +0.000 N 
ATOM     17  H   UNL     1      46.492   4.682   7.210  0.00  0.00    +0.000 HD
ENDBRANCH  11  12
ENDBRANCH   9  11
ENDBRANCH   8   9
ENDBRANCH   5   8
ENDBRANCH   1   2
BRANCH   1  18
ATOM     18  N   UNL     1      47.932   7.934  15.447  0.00  0.00    +0.000 NA
ATOM     19  H   UNL     1      47.500   8.748  15.882  0.00  0.00    +0.000 HD
BRANCH  18  21
ATOM     20  C   UNL     1      50.318   7.258  15.155  0.00  0.00    +0.000 C 
ATOM     21  C   UNL     1      49.209   7.682  16.127  0.00  0.00    +0.000 C 
BRANCH  21  22
ATOM     22  C   UNL     1      49.007   6.598  17.169  0.00  0.00    +0.000 A 
ATOM     23  C   UNL     1      49.450   5.285  17.083  0.00  0.00    +0.000 A 
ATOM     24  S   UNL     1      49.164   4.381  18.507  0.00  0.00    +0.000 S 
ATOM     25  C   UNL     1      48.464   5.723  19.289  0.00  0.00    +0.000 A 
ATOM     26  N   UNL     1      48.064   5.663  20.591  0.00  0.00    +0.000 NA
ATOM     27  C   UNL     1      47.594   6.774  21.048  0.00  0.00    +0.000 A 
ATOM     28  N   UNL     1      47.452   7.928  20.322  0.00  0.00    +0.000 N 
ATOM     29  C   UNL     1      47.781   8.021  18.992  0.00  0.00    +0.000 A 
ATOM     30  O   UNL     1      47.560   9.037  18.345  0.00  0.00    +0.000 OA
ATOM     31  C   UNL     1      48.389   6.818  18.454  0.00  0.00    +0.000 A 
ATOM     32  H   UNL     1      47.041   8.756  20.733  0.00  0.00    +0.000 HD
ENDBRANCH  21  22
ENDBRANCH  18  21
ENDBRANCH   1  18
TORSDOF 8
ENDMDL
MODEL 5
REMARK VINA RESULT:    -6.868      2.831      3.724
REMARK INTER + INTRA:         -10.798
REMARK INTER:                 -10.131
REMARK INTRA:                  -0.667
REMARK UNBOUND:                -0.718
REMARK  Name = 
REMARK  10 active torsions:
REMARK  status: ('A' for Active; 'I' for Inactive)
REMARK    1  A    between atoms: C_1  and  C_2
REMARK    2  A    between atoms: C_2  and  N_3
REMARK    3  A    between atoms: C_2  and  C_20
REMARK    4  A    between atoms: N_3  and  C_4
REMARK    5  A    between atoms: C_4  and  C_5
REMARK    6  A    between atoms: C_8  and  C_9
REMARK    7  A    between atoms: C_9  and  N_10
REMARK    8  A    between atoms: N_10  and  C_11
REMARK    9  A    between atoms: N_10  and  C_12
REMARK   10  A    between atoms: C_12  and  C_13
REMARK                            x       y       z     vdW  Elec       q    Type
REMARK                         _______ _______ _______ _____ _____    ______ ____
ROOT
ATOM      1  C   UNL     1      49.091   7.524  13.688  0.00  0.00    +0.000 C 
ENDROOT
BRANCH   1   2
ATOM      2  C   UNL     1      47.732   6.911  13.460  0.00  0.00    +0.000 A 
ATOM      3  C   UNL     1      46.726   7.606  12.776  0.00  0.00    +0.000 A 
ATOM      4  C   UNL     1      45.496   6.999  12.526  0.00  0.00    +0.000 A 
ATOM      5  C   UNL     1      45.264   5.673  12.917  0.00  0.00    +0.000 A 
ATOM      6  C   UNL     1      46.258   4.987  13.624  0.00  0.00    +0.000 A 
ATOM      7  C   UNL     1      47.478   5.601  13.894  0.00  0.00    +0.000 A 
BRANCH   5   8
ATOM      8  C   UNL     1      43.964   4.983  12.569  0.00  0.00    +0.000 C 
BRANCH   8   9
ATOM      9  N   UNL     1      44.146   3.804  11.690  0.00  0.00    +0.000 NA
ATOM     10  C   UNL     1      43.342   2.668  12.160  0.00  0.00    +0.000 C 
BRANCH   9  11
ATOM     11  C   UNL     1      43.763   4.131  10.305  0.00  0.00    +0.000 C 
BRANCH  11  12
ATOM     12  C   UNL     1      44.639   3.428   9.319  0.00  0.00    +0.000 A 
ATOM     13  C   UNL     1      45.273   3.892   8.182  0.00  0.00    +0.000 A 
ATOM     14  C   UNL     1      46.095   2.847   7.696  0.00  0.00    +0.000 A 
ATOM     15  C   UNL     1      45.913   1.762   8.523  0.00  0.00    +0.000 A 
ATOM     16  N   UNL     1      45.007   2.113   9.489  0.00  0.00    +0.000 N 
ATOM     17  H   UNL     1      44.709   1.532  10.262  0.00  0.00    +0.000 HD
ENDBRANCH  11  12
ENDBRANCH   9  11
ENDBRANCH   8   9
ENDBRANCH   5   8
ENDBRANCH   1   2
BRANCH   1  18
ATOM     18  N   UNL     1      49.904   6.737  14.615  0.00  0.00    +0.000 NA
ATOM     19  H   UNL     1      49.280   6.139  15.156  0.00  0.00    +0.000 HD
BRANCH  18  21
ATOM     20  C   UNL     1      51.911   6.905  16.091  0.00  0.00    +0.000 C 
ATOM     21  C   UNL     1      50.644   7.586  15.557  0.00  0.00    +0.000 C 
BRANCH  21  22
ATOM     22  C   UNL     1      49.735   7.943  16.718  0.00  0.00    +0.000 A 
ATOM     23  C   UNL     1      49.436   9.225  17.161  0.00  0.00    +0.000 A 
ATOM     24  S   UNL     1      48.263   9.251  18.406  0.00  0.00    +0.000 S 
ATOM     25  C   UNL     1      48.101   7.555  18.372  0.00  0.00    +0.000 A 
ATOM     26  N   UNL     1      47.185   6.908  19.148  0.00  0.00    +0.000 NA
ATOM     27  C   UNL     1      47.158   5.631  18.974  0.00  0.00    +0.000 A 
ATOM     28  N   UNL     1      47.981   4.932  18.127  0.00  0.00    +0.000 N 
ATOM     29  C   UNL     1      48.960   5.530  17.374  0.00  0.00    +0.000 A 
ATOM     30  O   UNL     1      49.740   4.873  16.695  0.00  0.00    +0.000 OA
ATOM     31  C   UNL     1      48.976   6.978  17.476  0.00  0.00    +0.000 A 
ATOM     32  H   UNL     1      47.932   3.924  18.066  0.00  0.00    +0.000 HD
ENDBRANCH  21  22
ENDBRANCH  18  21
ENDBRANCH   1  18
TORSDOF 8
ENDMDL
MODEL 6
REMARK VINA RESULT:    -6.762      3.749      4.786
REMARK INTER + INTRA:         -10.643
REMARK INTER:                  -9.342
REMARK INTRA:                  -1.301
REMARK UNBOUND:                -0.718
REMARK  Name = 
REMARK  10 active torsions:
REMARK  status: ('A' for Active; 'I' for Inactive)
REMARK    1  A    between atoms: C_1  and  C_2
REMARK    2  A    between atoms: C_2  and  N_3
REMARK    3  A    between atoms: C_2  and  C_20
REMARK    4  A    between atoms: N_3  and  C_4
REMARK    5  A    between atoms: C_4  and  C_5
REMARK    6  A    between atoms: C_8  and  C_9
REMARK    7  A    between atoms: C_9  and  N_10
REMARK    8  A    between atoms: N_10  and  C_11
REMARK    9  A    between atoms: N_10  and  C_12
REMARK   10  A    between atoms: C_12  and  C_13
REMARK                            x       y       z     vdW  Elec       q    Type
REMARK                         _______ _______ _______ _____ _____    ______ ____
ROOT
ATOM      1  C   UNL     1      47.981   9.773  12.704  0.00  0.00    +0.000 C 
ENDROOT
BRANCH   1   2
ATOM      2  C   UNL     1      47.053   8.690  12.212  0.00  0.00    +0.000 A 
ATOM      3  C   UNL     1      47.528   7.404  11.919  0.00  0.00    +0.000 A 
ATOM      4  C   UNL     1      46.644   6.402  11.521  0.00  0.00    +0.000 A 
ATOM      5  C   UNL     1      45.267   6.654  11.448  0.00  0.00    +0.000 A 
ATOM      6  C   UNL     1      44.795   7.944  11.714  0.00  0.00    +0.000 A 
ATOM      7  C   UNL     1      45.680   8.952  12.090  0.00  0.00    +0.000 A 
BRANCH   5   8
ATOM      8  C   UNL     1      44.298   5.546  11.103  0.00  0.00    +0.000 C 
BRANCH   8   9
ATOM      9  N   UNL     1      44.969   4.298  10.667  0.00  0.00    +0.000 NA
ATOM     10  C   UNL     1      44.925   3.280  11.724  0.00  0.00    +0.000 C 
BRANCH   9  11
ATOM     11  C   UNL     1      44.324   3.767   9.452  0.00  0.00    +0.000 C 
BRANCH  11  12
ATOM     12  C   UNL     1      45.321   3.116   8.549  0.00  0.00    +0.000 A 
ATOM     13  C   UNL     1      46.143   3.652   7.576  0.00  0.00    +0.000 A 
ATOM     14  C   UNL     1      46.997   2.619   7.122  0.00  0.00    +0.000 A 
ATOM     15  C   UNL     1      46.650   1.471   7.798  0.00  0.00    +0.000 A 
ATOM     16  N   UNL     1      45.613   1.775   8.642  0.00  0.00    +0.000 N 
ATOM     17  H   UNL     1      45.177   1.139   9.298  0.00  0.00    +0.000 HD
ENDBRANCH  11  12
ENDBRANCH   9  11
ENDBRANCH   8   9
ENDBRANCH   5   8
ENDBRANCH   1   2
BRANCH   1  18
ATOM     18  N   UNL     1      47.911   9.943  14.155  0.00  0.00    +0.000 NA
ATOM     19  H   UNL     1      47.729  10.926  14.352  0.00  0.00    +0.000 HD
BRANCH  18  21
ATOM     20  C   UNL     1      50.301   9.306  13.813  0.00  0.00    +0.000 C 
ATOM     21  C   UNL     1      49.171   9.576  14.815  0.00  0.00    +0.000 C 
BRANCH  21  22
ATOM     22  C   UNL     1      48.941   8.340  15.663  0.00  0.00    +0.000 A 
ATOM     23  C   UNL     1      49.232   7.031  15.301  0.00  0.00    +0.000 A 
ATOM     24  S   UNL     1      48.970   5.907  16.564  0.00  0.00    +0.000 S 
ATOM     25  C   UNL     1      48.484   7.137  17.639  0.00  0.00    +0.000 A 
ATOM     26  N   UNL     1      48.188   6.872  18.943  0.00  0.00    +0.000 NA
ATOM     27  C   UNL     1      47.879   7.916  19.634  0.00  0.00    +0.000 A 
ATOM     28  N   UNL     1      47.802   9.194  19.142  0.00  0.00    +0.000 N 
ATOM     29  C   UNL     1      48.028   9.502  17.823  0.00  0.00    +0.000 A 
ATOM     30  O   UNL     1      47.865  10.637  17.392  0.00  0.00    +0.000 OA
ATOM     31  C   UNL     1      48.458   8.370  17.022  0.00  0.00    +0.000 A 
ATOM     32  H   UNL     1      47.518   9.964  19.732  0.00  0.00    +0.000 HD
ENDBRANCH  21  22
ENDBRANCH  18  21
ENDBRANCH   1  18
TORSDOF 8
ENDMDL
MODEL 7
REMARK VINA RESULT:    -6.754      2.209      2.896
REMARK INTER + INTRA:         -10.630
REMARK INTER:                  -9.670
REMARK INTRA:                  -0.961
REMARK UNBOUND:                -0.718
REMARK  Name = 
REMARK  10 active torsions:
REMARK  status: ('A' for Active; 'I' for Inactive)
REMARK    1  A    between atoms: C_1  and  C_2
REMARK    2  A    between atoms: C_2  and  N_3
REMARK    3  A    between atoms: C_2  and  C_20
REMARK    4  A    between atoms: N_3  and  C_4
REMARK    5  A    between atoms: C_4  and  C_5
REMARK    6  A    between atoms: C_8  and  C_9
REMARK    7  A    between atoms: C_9  and  N_10
REMARK    8  A    between atoms: N_10  and  C_11
REMARK    9  A    between atoms: N_10  and  C_12
REMARK   10  A    between atoms: C_12  and  C_13
REMARK                            x       y       z     vdW  Elec       q    Type
REMARK                         _______ _______ _______ _____ _____    ______ ____
ROOT
ATOM      1  C   UNL     1      49.017   7.762  13.214  0.00  0.00    +0.000 C 
ENDROOT
BRANCH   1   2
ATOM      2  C   UNL     1      47.690   7.051  13.121  0.00  0.00    +0.000 A 
ATOM      3  C   UNL     1      46.550   7.701  12.631  0.00  0.00    +0.000 A 
ATOM      4  C   UNL     1      45.346   7.008  12.500  0.00  0.00    +0.000 A 
ATOM      5  C   UNL     1      45.272   5.645  12.818  0.00  0.00    +0.000 A 
ATOM      6  C   UNL     1      46.402   5.002  13.333  0.00  0.00    +0.000 A 
ATOM      7  C   UNL     1      47.598   5.699  13.486  0.00  0.00    +0.000 A 
BRANCH   5   8
ATOM      8  C   UNL     1      43.992   4.871  12.593  0.00  0.00    +0.000 C 
BRANCH   8   9
ATOM      9  N   UNL     1      44.162   3.714  11.683  0.00  0.00    +0.000 NA
ATOM     10  C   UNL     1      43.361   2.568  12.134  0.00  0.00    +0.000 C 
BRANCH   9  11
ATOM     11  C   UNL     1      43.763   4.077  10.311  0.00  0.00    +0.000 C 
BRANCH  11  12
ATOM     12  C   UNL     1      44.637   3.412   9.297  0.00  0.00    +0.000 A 
ATOM     13  C   UNL     1      45.223   3.906   8.148  0.00  0.00    +0.000 A 
ATOM     14  C   UNL     1      46.070   2.896   7.633  0.00  0.00    +0.000 A 
ATOM     15  C   UNL     1      45.950   1.799   8.456  0.00  0.00    +0.000 A 
ATOM     16  N   UNL     1      45.057   2.111   9.448  0.00  0.00    +0.000 N 
ATOM     17  H   UNL     1      44.802   1.514  10.225  0.00  0.00    +0.000 HD
ENDBRANCH  11  12
ENDBRANCH   9  11
ENDBRANCH   8   9
ENDBRANCH   5   8
ENDBRANCH   1   2
BRANCH   1  18
ATOM     18  N   UNL     1      49.986   7.020  14.021  0.00  0.00    +0.000 NA
ATOM     19  H   UNL     1      49.552   6.146  14.314  0.00  0.00    +0.000 HD
BRANCH  18  21
ATOM     20  C   UNL     1      50.762   9.213  14.929  0.00  0.00    +0.000 C 
ATOM     21  C   UNL     1      50.378   7.758  15.229  0.00  0.00    +0.000 C 
BRANCH  21  22
ATOM     22  C   UNL     1      51.550   7.050  15.880  0.00  0.00    +0.000 A 
ATOM     23  C   UNL     1      52.883   7.430  15.805  0.00  0.00    +0.000 A 
ATOM     24  S   UNL     1      53.914   6.475  16.781  0.00  0.00    +0.000 S 
ATOM     25  C   UNL     1      52.608   5.542  17.352  0.00  0.00    +0.000 A 
ATOM     26  N   UNL     1      52.779   4.576  18.299  0.00  0.00    +0.000 NA
ATOM     27  C   UNL     1      51.687   3.991  18.656  0.00  0.00    +0.000 A 
ATOM     28  N   UNL     1      50.445   4.251  18.133  0.00  0.00    +0.000 N 
ATOM     29  C   UNL     1      50.232   5.168  17.134  0.00  0.00    +0.000 A 
ATOM     30  O   UNL     1      49.128   5.316  16.624  0.00  0.00    +0.000 OA
ATOM     31  C   UNL     1      51.420   5.910  16.756  0.00  0.00    +0.000 A 
ATOM     32  H   UNL     1      49.633   3.728  18.433  0.00  0.00    +0.000 HD
ENDBRANCH  21  22
ENDBRANCH  18  21
ENDBRANCH   1  18
TORSDOF 8
ENDMDL
MODEL 8
REMARK VINA RESULT:    -6.734      3.425      8.845
REMARK INTER + INTRA:         -10.601
REMARK INTER:                  -9.086
REMARK INTRA:                  -1.515
REMARK UNBOUND:                -0.718
REMARK  Name = 
REMARK  10 active torsions:
REMARK  status: ('A' for Active; 'I' for Inactive)
REMARK    1  A    between atoms: C_1  and  C_2
REMARK    2  A    between atoms: C_2  and  N_3
REMARK    3  A    between atoms: C_2  and  C_20
REMARK    4  A    between atoms: N_3  and  C_4
REMARK    5  A    between atoms: C_4  and  C_5
REMARK    6  A    between atoms: C_8  and  C_9
REMARK    7  A    between atoms: C_9  and  N_10
REMARK    8  A    between atoms: N_10  and  C_11
REMARK    9  A    between atoms: N_10  and  C_12
REMARK   10  A    between atoms: C_12  and  C_13
REMARK                            x       y       z     vdW  Elec       q    Type
REMARK                         _______ _______ _______ _____ _____    ______ ____
ROOT
ATOM      1  C   UNL     1      47.609   8.102  12.106  0.00  0.00    +0.000 C 
ENDROOT
BRANCH   1   2
ATOM      2  C   UNL     1      48.137   8.059  13.518  0.00  0.00    +0.000 A 
ATOM      3  C   UNL     1      47.882   9.099  14.421  0.00  0.00    +0.000 A 
ATOM      4  C   UNL     1      48.330   9.013  15.739  0.00  0.00    +0.000 A 
ATOM      5  C   UNL     1      49.004   7.869  16.188  0.00  0.00    +0.000 A 
ATOM      6  C   UNL     1      49.283   6.841  15.280  0.00  0.00    +0.000 A 
ATOM      7  C   UNL     1      48.856   6.937  13.959  0.00  0.00    +0.000 A 
BRANCH   5   8
ATOM      8  C   UNL     1      49.413   7.735  17.637  0.00  0.00    +0.000 C 
BRANCH   8   9
ATOM      9  N   UNL     1      50.221   6.522  17.907  0.00  0.00    +0.000 NA
ATOM     10  C   UNL     1      51.531   6.876  18.469  0.00  0.00    +0.000 C 
BRANCH   9  11
ATOM     11  C   UNL     1      49.513   5.632  18.846  0.00  0.00    +0.000 C 
BRANCH  11  12
ATOM     12  C   UNL     1      48.786   4.547  18.121  0.00  0.00    +0.000 A 
ATOM     13  C   UNL     1      47.474   4.468  17.693  0.00  0.00    +0.000 A 
ATOM     14  C   UNL     1      47.345   3.284  16.929  0.00  0.00    +0.000 A 
ATOM     15  C   UNL     1      48.567   2.651  16.941  0.00  0.00    +0.000 A 
ATOM     16  N   UNL     1      49.429   3.409  17.690  0.00  0.00    +0.000 N 
ATOM     17  H   UNL     1      50.411   3.216  17.840  0.00  0.00    +0.000 HD
ENDBRANCH  11  12
ENDBRANCH   9  11
ENDBRANCH   8   9
ENDBRANCH   5   8
ENDBRANCH   1   2
BRANCH   1  18
ATOM     18  N   UNL     1      47.072   6.810  11.677  0.00  0.00    +0.000 NA
ATOM     19  H   UNL     1      47.530   6.549  10.805  0.00  0.00    +0.000 HD
BRANCH  18  21
ATOM     20  C   UNL     1      44.901   7.812  12.398  0.00  0.00    +0.000 C 
ATOM     21  C   UNL     1      45.626   6.870  11.427  0.00  0.00    +0.000 C 
BRANCH  21  22
ATOM     22  C   UNL     1      45.047   5.474  11.549  0.00  0.00    +0.000 A 
ATOM     23  C   UNL     1      44.398   4.949  12.659  0.00  0.00    +0.000 A 
ATOM     24  S   UNL     1      43.752   3.388  12.389  0.00  0.00    +0.000 S 
ATOM     25  C   UNL     1      44.297   3.377  10.774  0.00  0.00    +0.000 A 
ATOM     26  N   UNL     1      44.006   2.349   9.928  0.00  0.00    +0.000 NA
ATOM     27  C   UNL     1      44.453   2.512   8.729  0.00  0.00    +0.000 A 
ATOM     28  N   UNL     1      45.192   3.586   8.302  0.00  0.00    +0.000 N 
ATOM     29  C   UNL     1      45.564   4.615   9.131  0.00  0.00    +0.000 A 
ATOM     30  O   UNL     1      46.299   5.516   8.746  0.00  0.00    +0.000 OA
ATOM     31  C   UNL     1      45.016   4.515  10.472  0.00  0.00    +0.000 A 
ATOM     32  H   UNL     1      45.544   3.633   7.355  0.00  0.00    +0.000 HD
ENDBRANCH  21  22
ENDBRANCH  18  21
ENDBRANCH   1  18
TORSDOF 8
ENDMDL
MODEL 9
REMARK VINA RESULT:    -6.282      1.755      2.302
REMARK INTER + INTRA:          -9.938
REMARK INTER:                  -9.981
REMARK INTRA:                   0.043
REMARK UNBOUND:                -0.718
REMARK  Name = 
REMARK  10 active torsions:
REMARK  status: ('A' for Active; 'I' for Inactive)
REMARK    1  A    between atoms: C_1  and  C_2
REMARK    2  A    between atoms: C_2  and  N_3
REMARK    3  A    between atoms: C_2  and  C_20
REMARK    4  A    between atoms: N_3  and  C_4
REMARK    5  A    between atoms: C_4  and  C_5
REMARK    6  A    between atoms: C_8  and  C_9
REMARK    7  A    between atoms: C_9  and  N_10
REMARK    8  A    between atoms: N_10  and  C_11
REMARK    9  A    between atoms: N_10  and  C_12
REMARK   10  A    between atoms: C_12  and  C_13
REMARK                            x       y       z     vdW  Elec       q    Type
REMARK                         _______ _______ _______ _____ _____    ______ ____
ROOT
ATOM      1  C   UNL     1      48.571   5.646  15.379  0.00  0.00    +0.000 C 
ENDROOT
BRANCH   1   2
ATOM      2  C   UNL     1      47.658   5.707  14.179  0.00  0.00    +0.000 A 
ATOM      3  C   UNL     1      47.654   6.817  13.325  0.00  0.00    +0.000 A 
ATOM      4  C   UNL     1      46.845   6.828  12.190  0.00  0.00    +0.000 A 
ATOM      5  C   UNL     1      46.057   5.715  11.866  0.00  0.00    +0.000 A 
ATOM      6  C   UNL     1      46.039   4.617  12.733  0.00  0.00    +0.000 A 
ATOM      7  C   UNL     1      46.830   4.615  13.879  0.00  0.00    +0.000 A 
BRANCH   5   8
ATOM      8  C   UNL     1      45.246   5.690  10.590  0.00  0.00    +0.000 C 
BRANCH   8   9
ATOM      9  N   UNL     1      44.521   4.414  10.384  0.00  0.00    +0.000 NA
ATOM     10  C   UNL     1      43.253   4.404  11.126  0.00  0.00    +0.000 C 
BRANCH   9  11
ATOM     11  C   UNL     1      44.247   4.206   8.950  0.00  0.00    +0.000 C 
BRANCH  11  12
ATOM     12  C   UNL     1      45.271   3.314   8.326  0.00  0.00    +0.000 A 
ATOM     13  C   UNL     1      46.273   3.589   7.415  0.00  0.00    +0.000 A 
ATOM     14  C   UNL     1      47.052   2.417   7.269  0.00  0.00    +0.000 A 
ATOM     15  C   UNL     1      46.485   1.445   8.063  0.00  0.00    +0.000 A 
ATOM     16  N   UNL     1      45.388   1.990   8.680  0.00  0.00    +0.000 N 
ATOM     17  H   UNL     1      44.797   1.525   9.357  0.00  0.00    +0.000 HD
ENDBRANCH  11  12
ENDBRANCH   9  11
ENDBRANCH   8   9
ENDBRANCH   5   8
ENDBRANCH   1   2
BRANCH   1  18
ATOM     18  N   UNL     1      47.875   5.986  16.620  0.00  0.00    +0.000 NA
ATOM     19  H   UNL     1      48.474   6.608  17.160  0.00  0.00    +0.000 HD
BRANCH  18  21
ATOM     20  C   UNL     1      47.151   5.161  18.863  0.00  0.00    +0.000 C 
ATOM     21  C   UNL     1      47.599   4.799  17.441  0.00  0.00    +0.000 C 
BRANCH  21  22
ATOM     22  C   UNL     1      48.850   3.945  17.507  0.00  0.00    +0.000 A 
ATOM     23  C   UNL     1      48.969   2.630  17.075  0.00  0.00    +0.000 A 
ATOM     24  S   UNL     1      50.568   2.029  17.176  0.00  0.00    +0.000 S 
ATOM     25  C   UNL     1      51.152   3.513  17.776  0.00  0.00    +0.000 A 
ATOM     26  N   UNL     1      52.480   3.718  18.008  0.00  0.00    +0.000 NA
ATOM     27  C   UNL     1      52.765   4.907  18.418  0.00  0.00    +0.000 A 
ATOM     28  N   UNL     1      51.848   5.900  18.654  0.00  0.00    +0.000 N 
ATOM     29  C   UNL     1      50.496   5.724  18.496  0.00  0.00    +0.000 A 
ATOM     30  O   UNL     1      49.695   6.599  18.799  0.00  0.00    +0.000 OA
ATOM     31  C   UNL     1      50.134   4.425  17.958  0.00  0.00    +0.000 A 
ATOM     32  H   UNL     1      52.137   6.801  19.011  0.00  0.00    +0.000 HD
ENDBRANCH  21  22
ENDBRANCH  18  21
ENDBRANCH   1  18
TORSDOF 8
ENDMDL
