MODEL 1
REMARK VINA RESULT:    -7.666      0.000      0.000
REMARK INTER + INTRA:         -12.003
REMARK INTER:                 -11.252
REMARK INTRA:                  -0.751
REMARK UNBOUND:                -0.751
REMARK  Name = 
REMARK  10 active torsions:
REMARK  status: ('A' for Active; 'I' for Inactive)
REMARK    1  A    between atoms: C_1  and  N_2
REMARK    2  A    between atoms: N_2  and  C_3
REMARK    3  A    between atoms: N_2  and  C_4
REMARK    4  A    between atoms: C_4  and  C_5
REMARK    5  A    between atoms: C_5  and  O_6
REMARK    6  A    between atoms: O_6  and  C_7
REMARK    7  A    between atoms: C_10  and  C_11
REMARK    8  A    between atoms: C_11  and  O_12
REMARK    9  A    between atoms: O_12  and  C_13
REMARK   10  A    between atoms: C_16  and  C_17
REMARK                            x       y       z     vdW  Elec       q    Type
REMARK                         _______ _______ _______ _____ _____    ______ ____
ROOT
ATOM      1  C   UNL     1      44.596   5.894  10.655  0.00  0.00    +0.000 C 
ENDROOT
BRANCH   1   5
ATOM      2  C   UNL     1      47.167   5.050  14.031  0.00  0.00    +0.000 A 
ATOM      3  C   UNL     1      47.568   5.954  13.045  0.00  0.00    +0.000 A 
ATOM      4  C   UNL     1      46.751   6.201  11.936  0.00  0.00    +0.000 A 
ATOM      5  C   UNL     1      45.517   5.557  11.803  0.00  0.00    +0.000 A 
ATOM      6  C   UNL     1      45.139   4.618  12.772  0.00  0.00    +0.000 A 
ATOM      7  C   UNL     1      45.960   4.367  13.875  0.00  0.00    +0.000 A 
BRANCH   2   8
ATOM      8  O   UNL     1      47.878   4.738  15.161  0.00  0.00    +0.000 OA
BRANCH   8   9
ATOM      9  C   UNL     1      47.120   4.137  16.216  0.00  0.00    +0.000 C 
BRANCH   9  10
ATOM     10  C   UNL     1      48.074   3.546  17.269  0.00  0.00    +0.000 C 
BRANCH  10  12
ATOM     11  C   UNL     1      50.266   4.496  17.595  0.00  0.00    +0.000 C 
ATOM     12  N   UNL     1      49.491   3.504  16.845  0.00  0.00    +0.000 NA
ATOM     13  C   UNL     1      50.091   2.180  17.021  0.00  0.00    +0.000 C 
ENDBRANCH  10  12
ENDBRANCH   9  10
ENDBRANCH   8   9
ENDBRANCH   2   8
ENDBRANCH   1   5
BRANCH   1  14
ATOM     14  O   UNL     1      43.971   4.707  10.163  0.00  0.00    +0.000 OA
BRANCH  14  15
ATOM     15  C   UNL     1      44.819   3.978   9.353  0.00  0.00    +0.000 A 
ATOM     16  C   UNL     1      44.828   2.601   9.525  0.00  0.00    +0.000 A 
ATOM     17  C   UNL     1      45.663   1.832   8.712  0.00  0.00    +0.000 A 
ATOM     18  C   UNL     1      46.460   2.466   7.755  0.00  0.00    +0.000 A 
ATOM     19  C   UNL     1      46.372   3.848   7.651  0.00  0.00    +0.000 A 
ATOM     20  N   UNL     1      45.579   4.617   8.437  0.00  0.00    +0.000 NA
BRANCH  18  21
ATOM     21  C   UNL     1      47.366   1.750   6.834  0.00  0.00    +0.000 C 
ATOM     22  N   UNL     1      48.389   2.459   6.270  0.00  0.00    +0.000 N 
ATOM     23  O   UNL     1      47.187   0.571   6.555  0.00  0.00    +0.000 OA
ATOM     24  H   UNL     1      48.435   3.467   6.285  0.00  0.00    +0.000 HD
ATOM     25  H   UNL     1      48.933   1.975   5.566  0.00  0.00    +0.000 HD
ENDBRANCH  18  21
ENDBRANCH  14  15
ENDBRANCH   1  14
TORSDOF 8
ENDMDL
MODEL 2
REMARK VINA RESULT:    -7.508      2.330      3.116
REMARK INTER + INTRA:         -11.771
REMARK INTER:                 -10.921
REMARK INTRA:                  -0.850
REMARK UNBOUND:                -0.751
REMARK  Name = 
REMARK  10 active torsions:
REMARK  status: ('A' for Active; 'I' for Inactive)
REMARK    1  A    between atoms: C_1  and  N_2
REMARK    2  A    between atoms: N_2  and  C_3
REMARK    3  A    between atoms: N_2  and  C_4
REMARK    4  A    between atoms: C_4  and  C_5
REMARK    5  A    between atoms: C_5  and  O_6
REMARK    6  A    between atoms: O_6  and  C_7
REMARK    7  A    between atoms: C_10  and  C_11
REMARK    8  A    between atoms: C_11  and  O_12
REMARK    9  A    between atoms: O_12  and  C_13
REMARK   10  A    between atoms: C_16  and  C_17
REMARK                            x       y       z     vdW  Elec       q    Type
REMARK                         _______ _______ _______ _____ _____    ______ ____
ROOT
ATOM      1  C   UNL     1      43.638   4.409  11.206  0.00  0.00    +0.000 C 
ENDROOT
BRANCH   1   5
ATOM      2  C   UNL     1      47.205   5.616  13.337  0.00  0.00    +0.000 A 
ATOM      3  C   UNL     1      46.610   6.474  12.409  0.00  0.00    +0.000 A 
ATOM      4  C   UNL     1      45.476   6.070  11.696  0.00  0.00    +0.000 A 
ATOM      5  C   UNL     1      44.913   4.808  11.909  0.00  0.00    +0.000 A 
ATOM      6  C   UNL     1      45.539   3.933  12.807  0.00  0.00    +0.000 A 
ATOM      7  C   UNL     1      46.676   4.336  13.513  0.00  0.00    +0.000 A 
BRANCH   2   8
ATOM      8  O   UNL     1      48.308   5.907  14.098  0.00  0.00    +0.000 OA
BRANCH   8   9
ATOM      9  C   UNL     1      48.500   7.295  14.393  0.00  0.00    +0.000 C 
BRANCH   9  10
ATOM     10  C   UNL     1      49.914   7.725  13.964  0.00  0.00    +0.000 C 
BRANCH  10  12
ATOM     11  C   UNL     1      50.077   7.759  11.558  0.00  0.00    +0.000 C 
ATOM     12  N   UNL     1      49.946   8.586  12.761  0.00  0.00    +0.000 NA
ATOM     13  C   UNL     1      48.757   9.433  12.645  0.00  0.00    +0.000 C 
ENDBRANCH  10  12
ENDBRANCH   9  10
ENDBRANCH   8   9
ENDBRANCH   2   8
ENDBRANCH   1   5
BRANCH   1  14
ATOM     14  O   UNL     1      43.701   4.773   9.827  0.00  0.00    +0.000 OA
BRANCH  14  15
ATOM     15  C   UNL     1      44.629   4.017   9.138  0.00  0.00    +0.000 A 
ATOM     16  C   UNL     1      44.604   2.645   9.344  0.00  0.00    +0.000 A 
ATOM     17  C   UNL     1      45.519   1.849   8.652  0.00  0.00    +0.000 A 
ATOM     18  C   UNL     1      46.426   2.452   7.776  0.00  0.00    +0.000 A 
ATOM     19  C   UNL     1      46.365   3.831   7.629  0.00  0.00    +0.000 A 
ATOM     20  N   UNL     1      45.495   4.626   8.299  0.00  0.00    +0.000 NA
BRANCH  18  21
ATOM     21  C   UNL     1      47.424   1.705   6.984  0.00  0.00    +0.000 C 
ATOM     22  N   UNL     1      48.475   2.407   6.463  0.00  0.00    +0.000 N 
ATOM     23  O   UNL     1      47.297   0.507   6.767  0.00  0.00    +0.000 OA
ATOM     24  H   UNL     1      48.497   3.415   6.416  0.00  0.00    +0.000 HD
ATOM     25  H   UNL     1      49.089   1.896   5.840  0.00  0.00    +0.000 HD
ENDBRANCH  18  21
ENDBRANCH  14  15
ENDBRANCH   1  14
TORSDOF 8
ENDMDL
MODEL 3
REMARK VINA RESULT:    -7.419      1.809      2.449
REMARK INTER + INTRA:         -11.640
REMARK INTER:                 -10.909
REMARK INTRA:                  -0.730
REMARK UNBOUND:                -0.751
REMARK  Name = 
REMARK  10 active torsions:
REMARK  status: ('A' for Active; 'I' for Inactive)
REMARK    1  A    between atoms: C_1  and  N_2
REMARK    2  A    between atoms: N_2  and  C_3
REMARK    3  A    between atoms: N_2  and  C_4
REMARK    4  A    between atoms: C_4  and  C_5
REMARK    5  A    between atoms: C_5  and  O_6
REMARK    6  A    between atoms: O_6  and  C_7
REMARK    7  A    between atoms: C_10  and  C_11
REMARK    8  A    between atoms: C_11  and  O_12
REMARK    9  A    between atoms: O_12  and  C_13
REMARK   10  A    between atoms: C_16  and  C_17
REMARK                            x       y       z     vdW  Elec       q    Type
REMARK                         _______ _______ _______ _____ _____    ______ ____
ROOT
ATOM      1  C   UNL     1      43.481   4.541  11.127  0.00  0.00    +0.000 C 
ENDROOT
BRANCH   1   5
ATOM      2  C   UNL     1      47.206   5.499  13.110  0.00  0.00    +0.000 A 
ATOM      3  C   UNL     1      46.568   4.280  13.352  0.00  0.00    +0.000 A 
ATOM      4  C   UNL     1      45.347   3.985  12.736  0.00  0.00    +0.000 A 
ATOM      5  C   UNL     1      44.751   4.898  11.861  0.00  0.00    +0.000 A 
ATOM      6  C   UNL     1      45.371   6.138  11.656  0.00  0.00    +0.000 A 
ATOM      7  C   UNL     1      46.588   6.434  12.278  0.00  0.00    +0.000 A 
BRANCH   2   8
ATOM      8  O   UNL     1      48.405   5.891  13.647  0.00  0.00    +0.000 OA
BRANCH   8   9
ATOM      9  C   UNL     1      48.351   7.050  14.486  0.00  0.00    +0.000 C 
BRANCH   9  10
ATOM     10  C   UNL     1      49.762   7.380  15.004  0.00  0.00    +0.000 C 
BRANCH  10  12
ATOM     11  C   UNL     1      51.627   6.788  16.413  0.00  0.00    +0.000 C 
ATOM     12  N   UNL     1      50.362   6.318  15.842  0.00  0.00    +0.000 NA
ATOM     13  C   UNL     1      49.471   5.883  16.920  0.00  0.00    +0.000 C 
ENDBRANCH  10  12
ENDBRANCH   9  10
ENDBRANCH   8   9
ENDBRANCH   2   8
ENDBRANCH   1   5
BRANCH   1  14
ATOM     14  O   UNL     1      43.637   4.781   9.728  0.00  0.00    +0.000 OA
BRANCH  14  15
ATOM     15  C   UNL     1      44.475   3.855   9.138  0.00  0.00    +0.000 A 
ATOM     16  C   UNL     1      45.441   4.340   8.268  0.00  0.00    +0.000 A 
ATOM     17  C   UNL     1      46.314   3.432   7.666  0.00  0.00    +0.000 A 
ATOM     18  C   UNL     1      46.192   2.071   7.955  0.00  0.00    +0.000 A 
ATOM     19  C   UNL     1      45.201   1.684   8.848  0.00  0.00    +0.000 A 
ATOM     20  N   UNL     1      44.334   2.545   9.434  0.00  0.00    +0.000 NA
BRANCH  18  21
ATOM     21  C   UNL     1      47.070   1.028   7.388  0.00  0.00    +0.000 C 
ATOM     22  N   UNL     1      46.782  -0.276   7.683  0.00  0.00    +0.000 N 
ATOM     23  O   UNL     1      48.046   1.319   6.707  0.00  0.00    +0.000 OA
ATOM     24  H   UNL     1      46.144  -0.546   8.416  0.00  0.00    +0.000 HD
ATOM     25  H   UNL     1      47.455  -0.964   7.369  0.00  0.00    +0.000 HD
ENDBRANCH  18  21
ENDBRANCH  14  15
ENDBRANCH   1  14
TORSDOF 8
ENDMDL
MODEL 4
REMARK VINA RESULT:    -6.423      1.783      8.728
REMARK INTER + INTRA:         -10.178
REMARK INTER:                  -9.711
REMARK INTRA:                  -0.467
REMARK UNBOUND:                -0.751
REMARK  Name = 
REMARK  10 active torsions:
REMARK  status: ('A' for Active; 'I' for Inactive)
REMARK    1  A    between atoms: C_1  and  N_2
REMARK    2  A    between atoms: N_2  and  C_3
REMARK    3  A    between atoms: N_2  and  C_4
REMARK    4  A    between atoms: C_4  and  C_5
REMARK    5  A    between atoms: C_5  and  O_6
REMARK    6  A    between atoms: O_6  and  C_7
REMARK    7  A    between atoms: C_10  and  C_11
REMARK    8  A    between atoms: C_11  and  O_12
REMARK    9  A    between atoms: O_12  and  C_13
REMARK   10  A    between atoms: C_16  and  C_17
REMARK                            x       y       z     vdW  Elec       q    Type
REMARK                         _______ _______ _______ _____ _____    ______ ____
ROOT
ATOM      1  C   UNL     1      46.532   5.216  14.048  0.00  0.00    +0.000 C 
ENDROOT
BRANCH   1   5
ATOM      2  C   UNL     1      44.846   4.325  10.164  0.00  0.00    +0.000 A 
ATOM      3  C   UNL     1      44.861   3.354  11.169  0.00  0.00    +0.000 A 
ATOM      4  C   UNL     1      45.437   3.632  12.413  0.00  0.00    +0.000 A 
ATOM      5  C   UNL     1      45.994   4.888  12.676  0.00  0.00    +0.000 A 
ATOM      6  C   UNL     1      46.017   5.843  11.651  0.00  0.00    +0.000 A 
ATOM      7  C   UNL     1      45.448   5.561  10.406  0.00  0.00    +0.000 A 
BRANCH   2   8
ATOM      8  O   UNL     1      44.303   4.169   8.915  0.00  0.00    +0.000 OA
BRANCH   8   9
ATOM      9  C   UNL     1      44.934   3.183   8.091  0.00  0.00    +0.000 C 
BRANCH   9  10
ATOM     10  C   UNL     1      46.272   3.728   7.562  0.00  0.00    +0.000 C 
BRANCH  10  12
ATOM     11  C   UNL     1      46.805   1.377   7.635  0.00  0.00    +0.000 C 
ATOM     12  N   UNL     1      47.214   2.682   7.106  0.00  0.00    +0.000 NA
ATOM     13  C   UNL     1      47.308   2.610   5.646  0.00  0.00    +0.000 C 
ENDBRANCH  10  12
ENDBRANCH   9  10
ENDBRANCH   8   9
ENDBRANCH   2   8
ENDBRANCH   1   5
BRANCH   1  14
ATOM     14  O   UNL     1      46.611   4.030  14.842  0.00  0.00    +0.000 OA
BRANCH  14  15
ATOM     15  C   UNL     1      47.433   4.201  15.938  0.00  0.00    +0.000 A 
ATOM     16  C   UNL     1      47.291   3.297  16.981  0.00  0.00    +0.000 A 
ATOM     17  C   UNL     1      48.118   3.431  18.099  0.00  0.00    +0.000 A 
ATOM     18  C   UNL     1      49.058   4.464  18.134  0.00  0.00    +0.000 A 
ATOM     19  C   UNL     1      49.132   5.311  17.036  0.00  0.00    +0.000 A 
ATOM     20  N   UNL     1      48.333   5.208  15.946  0.00  0.00    +0.000 NA
BRANCH  18  21
ATOM     21  C   UNL     1      49.991   4.689  19.257  0.00  0.00    +0.000 C 
ATOM     22  N   UNL     1      49.576   4.328  20.509  0.00  0.00    +0.000 N 
ATOM     23  O   UNL     1      51.083   5.213  19.082  0.00  0.00    +0.000 OA
ATOM     24  H   UNL     1      48.615   4.115  20.731  0.00  0.00    +0.000 HD
ATOM     25  H   UNL     1      50.189   4.584  21.274  0.00  0.00    +0.000 HD
ENDBRANCH  18  21
ENDBRANCH  14  15
ENDBRANCH   1  14
TORSDOF 8
ENDMDL
MODEL 5
REMARK VINA RESULT:    -6.157      1.877      8.269
REMARK INTER + INTRA:          -9.788
REMARK INTER:                  -9.164
REMARK INTRA:                  -0.624
REMARK UNBOUND:                -0.751
REMARK  Name = 
REMARK  10 active torsions:
REMARK  status: ('A' for Active; 'I' for Inactive)
REMARK    1  A    between atoms: C_1  and  N_2
REMARK    2  A    between atoms: N_2  and  C_3
REMARK    3  A    between atoms: N_2  and  C_4
REMARK    4  A    between atoms: C_4  and  C_5
REMARK    5  A    between atoms: C_5  and  O_6
REMARK    6  A    between atoms: O_6  and  C_7
REMARK    7  A    between atoms: C_10  and  C_11
REMARK    8  A    between atoms: C_11  and  O_12
REMARK    9  A    between atoms: O_12  and  C_13
REMARK   10  A    between atoms: C_16  and  C_17
REMARK                            x       y       z     vdW  Elec       q    Type
REMARK                         _______ _______ _______ _____ _____    ______ ____
ROOT
ATOM      1  C   UNL     1      47.785   5.561  15.070  0.00  0.00    +0.000 C 
ENDROOT
BRANCH   1   5
ATOM      2  C   UNL     1      45.296   4.735  11.629  0.00  0.00    +0.000 A 
ATOM      3  C   UNL     1      45.701   6.042  11.912  0.00  0.00    +0.000 A 
ATOM      4  C   UNL     1      46.478   6.313  13.044  0.00  0.00    +0.000 A 
ATOM      5  C   UNL     1      46.872   5.281  13.902  0.00  0.00    +0.000 A 
ATOM      6  C   UNL     1      46.425   3.978  13.639  0.00  0.00    +0.000 A 
ATOM      7  C   UNL     1      45.643   3.711  12.512  0.00  0.00    +0.000 A 
BRANCH   2   8
ATOM      8  O   UNL     1      44.545   4.351  10.548  0.00  0.00    +0.000 OA
BRANCH   8   9
ATOM      9  C   UNL     1      44.678   2.978  10.165  0.00  0.00    +0.000 C 
BRANCH   9  10
ATOM     10  C   UNL     1      44.741   2.872   8.631  0.00  0.00    +0.000 C 
BRANCH  10  12
ATOM     11  C   UNL     1      46.438   1.291   7.968  0.00  0.00    +0.000 C 
ATOM     12  N   UNL     1      46.109   2.715   8.091  0.00  0.00    +0.000 NA
ATOM     13  C   UNL     1      46.279   3.370   6.793  0.00  0.00    +0.000 C 
ENDBRANCH  10  12
ENDBRANCH   9  10
ENDBRANCH   8   9
ENDBRANCH   2   8
ENDBRANCH   1   5
BRANCH   1  14
ATOM     14  O   UNL     1      47.458   4.706  16.167  0.00  0.00    +0.000 OA
BRANCH  14  15
ATOM     15  C   UNL     1      48.541   3.949  16.568  0.00  0.00    +0.000 A 
ATOM     16  C   UNL     1      48.438   2.573  16.426  0.00  0.00    +0.000 A 
ATOM     17  C   UNL     1      49.522   1.779  16.808  0.00  0.00    +0.000 A 
ATOM     18  C   UNL     1      50.671   2.389  17.318  0.00  0.00    +0.000 A 
ATOM     19  C   UNL     1      50.682   3.774  17.411  0.00  0.00    +0.000 A 
ATOM     20  N   UNL     1      49.640   4.565  17.059  0.00  0.00    +0.000 NA
BRANCH  18  21
ATOM     21  C   UNL     1      51.878   1.647  17.737  0.00  0.00    +0.000 C 
ATOM     22  N   UNL     1      51.731   0.329  18.067  0.00  0.00    +0.000 N 
ATOM     23  O   UNL     1      52.966   2.201  17.824  0.00  0.00    +0.000 OA
ATOM     24  H   UNL     1      50.833  -0.101  18.234  0.00  0.00    +0.000 HD
ATOM     25  H   UNL     1      52.549  -0.131  18.448  0.00  0.00    +0.000 HD
ENDBRANCH  18  21
ENDBRANCH  14  15
ENDBRANCH   1  14
TORSDOF 8
ENDMDL
MODEL 6
REMARK VINA RESULT:    -5.416      3.081      4.207
REMARK INTER + INTRA:          -8.700
REMARK INTER:                  -8.006
REMARK INTRA:                  -0.694
REMARK UNBOUND:                -0.751
REMARK  Name = 
REMARK  10 active torsions:
REMARK  status: ('A' for Active; 'I' for Inactive)
REMARK    1  A    between atoms: C_1  and  N_2
REMARK    2  A    between atoms: N_2  and  C_3
REMARK    3  A    between atoms: N_2  and  C_4
REMARK    4  A    between atoms: C_4  and  C_5
REMARK    5  A    between atoms: C_5  and  O_6
REMARK    6  A    between atoms: O_6  and  C_7
REMARK    7  A    between atoms: C_10  and  C_11
REMARK    8  A    between atoms: C_11  and  O_12
REMARK    9  A    between atoms: O_12  and  C_13
REMARK   10  A    between atoms: C_16  and  C_17
REMARK                            x       y       z     vdW  Elec       q    Type
REMARK                         _______ _______ _______ _____ _____    ______ ____
ROOT
ATOM      1  C   UNL     1      43.975   5.585  12.620  0.00  0.00    +0.000 C 
ENDROOT
BRANCH   1   5
ATOM      2  C   UNL     1      47.852   7.496  12.803  0.00  0.00    +0.000 A 
ATOM      3  C   UNL     1      46.713   8.236  12.475  0.00  0.00    +0.000 A 
ATOM      4  C   UNL     1      45.465   7.611  12.383  0.00  0.00    +0.000 A 
ATOM      5  C   UNL     1      45.335   6.240  12.630  0.00  0.00    +0.000 A 
ATOM      6  C   UNL     1      46.487   5.494  12.914  0.00  0.00    +0.000 A 
ATOM      7  C   UNL     1      47.734   6.119  12.997  0.00  0.00    +0.000 A 
BRANCH   2   8
ATOM      8  O   UNL     1      49.121   8.002  12.930  0.00  0.00    +0.000 OA
BRANCH   8   9
ATOM      9  C   UNL     1      49.657   8.616  11.753  0.00  0.00    +0.000 C 
BRANCH   9  10
ATOM     10  C   UNL     1      50.762   7.724  11.161  0.00  0.00    +0.000 C 
BRANCH  10  12
ATOM     11  C   UNL     1      53.035   7.715  10.357  0.00  0.00    +0.000 C 
ATOM     12  N   UNL     1      52.134   8.226  11.394  0.00  0.00    +0.000 NA
ATOM     13  C   UNL     1      52.200   9.688  11.422  0.00  0.00    +0.000 C 
ENDBRANCH  10  12
ENDBRANCH   9  10
ENDBRANCH   8   9
ENDBRANCH   2   8
ENDBRANCH   1   5
BRANCH   1  14
ATOM     14  O   UNL     1      43.454   5.552  11.291  0.00  0.00    +0.000 OA
BRANCH  14  15
ATOM     15  C   UNL     1      44.128   4.645  10.498  0.00  0.00    +0.000 A 
ATOM     16  C   UNL     1      43.880   3.299  10.727  0.00  0.00    +0.000 A 
ATOM     17  C   UNL     1      44.534   2.355   9.933  0.00  0.00    +0.000 A 
ATOM     18  C   UNL     1      45.412   2.789   8.936  0.00  0.00    +0.000 A 
ATOM     19  C   UNL     1      45.584   4.157   8.776  0.00  0.00    +0.000 A 
ATOM     20  N   UNL     1      44.972   5.092   9.542  0.00  0.00    +0.000 NA
BRANCH  18  21
ATOM     21  C   UNL     1      46.142   1.879   8.030  0.00  0.00    +0.000 C 
ATOM     22  N   UNL     1      46.758   2.427   6.940  0.00  0.00    +0.000 N 
ATOM     23  O   UNL     1      46.166   0.671   8.226  0.00  0.00    +0.000 OA
ATOM     24  H   UNL     1      46.572   3.364   6.615  0.00  0.00    +0.000 HD
ATOM     25  H   UNL     1      47.164   1.774   6.281  0.00  0.00    +0.000 HD
ENDBRANCH  18  21
ENDBRANCH  14  15
ENDBRANCH   1  14
TORSDOF 8
ENDMDL
MODEL 7
REMARK VINA RESULT:    -5.260      2.984      8.581
REMARK INTER + INTRA:          -8.471
REMARK INTER:                  -7.597
REMARK INTRA:                  -0.873
REMARK UNBOUND:                -0.751
REMARK  Name = 
REMARK  10 active torsions:
REMARK  status: ('A' for Active; 'I' for Inactive)
REMARK    1  A    between atoms: C_1  and  N_2
REMARK    2  A    between atoms: N_2  and  C_3
REMARK    3  A    between atoms: N_2  and  C_4
REMARK    4  A    between atoms: C_4  and  C_5
REMARK    5  A    between atoms: C_5  and  O_6
REMARK    6  A    between atoms: O_6  and  C_7
REMARK    7  A    between atoms: C_10  and  C_11
REMARK    8  A    between atoms: C_11  and  O_12
REMARK    9  A    between atoms: O_12  and  C_13
REMARK   10  A    between atoms: C_16  and  C_17
REMARK                            x       y       z     vdW  Elec       q    Type
REMARK                         _______ _______ _______ _____ _____    ______ ____
ROOT
ATOM      1  C   UNL     1      49.304   7.321  13.736  0.00  0.00    +0.000 C 
ENDROOT
BRANCH   1   5
ATOM      2  C   UNL     1      45.185   6.317  12.868  0.00  0.00    +0.000 A 
ATOM      3  C   UNL     1      45.606   7.650  12.863  0.00  0.00    +0.000 A 
ATOM      4  C   UNL     1      46.929   7.976  13.176  0.00  0.00    +0.000 A 
ATOM      5  C   UNL     1      47.856   6.975  13.488  0.00  0.00    +0.000 A 
ATOM      6  C   UNL     1      47.419   5.644  13.536  0.00  0.00    +0.000 A 
ATOM      7  C   UNL     1      46.094   5.321  13.230  0.00  0.00    +0.000 A 
BRANCH   2   8
ATOM      8  O   UNL     1      43.920   5.880  12.569  0.00  0.00    +0.000 OA
BRANCH   8   9
ATOM      9  C   UNL     1      43.628   5.760  11.172  0.00  0.00    +0.000 C 
BRANCH   9  10
ATOM     10  C   UNL     1      43.469   4.275  10.803  0.00  0.00    +0.000 C 
BRANCH  10  12
ATOM     11  C   UNL     1      45.365   4.716   9.381  0.00  0.00    +0.000 C 
ATOM     12  N   UNL     1      44.175   3.880   9.564  0.00  0.00    +0.000 NA
ATOM     13  C   UNL     1      44.564   2.469   9.564  0.00  0.00    +0.000 C 
ENDBRANCH  10  12
ENDBRANCH   9  10
ENDBRANCH   8   9
ENDBRANCH   2   8
ENDBRANCH   1   5
BRANCH   1  14
ATOM     14  O   UNL     1      49.433   8.054  14.955  0.00  0.00    +0.000 OA
BRANCH  14  15
ATOM     15  C   UNL     1      49.427   7.222  16.057  0.00  0.00    +0.000 A 
ATOM     16  C   UNL     1      48.575   7.560  17.099  0.00  0.00    +0.000 A 
ATOM     17  C   UNL     1      48.533   6.732  18.223  0.00  0.00    +0.000 A 
ATOM     18  C   UNL     1      49.343   5.594  18.265  0.00  0.00    +0.000 A 
ATOM     19  C   UNL     1      50.153   5.334  17.167  0.00  0.00    +0.000 A 
ATOM     20  N   UNL     1      50.221   6.129  16.072  0.00  0.00    +0.000 NA
BRANCH  18  21
ATOM     21  C   UNL     1      49.366   4.643  19.395  0.00  0.00    +0.000 C 
ATOM     22  N   UNL     1      48.567   3.537  19.311  0.00  0.00    +0.000 N 
ATOM     23  O   UNL     1      50.048   4.854  20.390  0.00  0.00    +0.000 OA
ATOM     24  H   UNL     1      47.827   3.442  18.631  0.00  0.00    +0.000 HD
ATOM     25  H   UNL     1      48.522   2.954  20.138  0.00  0.00    +0.000 HD
ENDBRANCH  18  21
ENDBRANCH  14  15
ENDBRANCH   1  14
TORSDOF 8
ENDMDL
MODEL 8
REMARK VINA RESULT:    -5.188      4.221      5.758
REMARK INTER + INTRA:          -8.365
REMARK INTER:                  -7.315
REMARK INTRA:                  -1.050
REMARK UNBOUND:                -0.751
REMARK  Name = 
REMARK  10 active torsions:
REMARK  status: ('A' for Active; 'I' for Inactive)
REMARK    1  A    between atoms: C_1  and  N_2
REMARK    2  A    between atoms: N_2  and  C_3
REMARK    3  A    between atoms: N_2  and  C_4
REMARK    4  A    between atoms: C_4  and  C_5
REMARK    5  A    between atoms: C_5  and  O_6
REMARK    6  A    between atoms: O_6  and  C_7
REMARK    7  A    between atoms: C_10  and  C_11
REMARK    8  A    between atoms: C_11  and  O_12
REMARK    9  A    between atoms: O_12  and  C_13
REMARK   10  A    between atoms: C_16  and  C_17
REMARK                            x       y       z     vdW  Elec       q    Type
REMARK                         _______ _______ _______ _____ _____    ______ ____
ROOT
ATOM      1  C   UNL     1      49.155   7.706  13.084  0.00  0.00    +0.000 C 
ENDROOT
BRANCH   1   5
ATOM      2  C   UNL     1      49.126   8.558  17.326  0.00  0.00    +0.000 A 
ATOM      3  C   UNL     1      48.258   9.231  16.463  0.00  0.00    +0.000 A 
ATOM      4  C   UNL     1      48.292   8.980  15.087  0.00  0.00    +0.000 A 
ATOM      5  C   UNL     1      49.184   8.043  14.555  0.00  0.00    +0.000 A 
ATOM      6  C   UNL     1      50.083   7.404  15.419  0.00  0.00    +0.000 A 
ATOM      7  C   UNL     1      50.054   7.662  16.792  0.00  0.00    +0.000 A 
BRANCH   2   8
ATOM      8  O   UNL     1      49.176   8.716  18.687  0.00  0.00    +0.000 OA
BRANCH   8   9
ATOM      9  C   UNL     1      49.299   7.504  19.441  0.00  0.00    +0.000 C 
BRANCH   9  10
ATOM     10  C   UNL     1      47.911   7.054  19.928  0.00  0.00    +0.000 C 
BRANCH  10  12
ATOM     11  C   UNL     1      47.659   5.229  18.373  0.00  0.00    +0.000 C 
ATOM     12  N   UNL     1      47.663   5.603  19.790  0.00  0.00    +0.000 NA
ATOM     13  C   UNL     1      48.651   4.793  20.506  0.00  0.00    +0.000 C 
ENDBRANCH  10  12
ENDBRANCH   9  10
ENDBRANCH   8   9
ENDBRANCH   2   8
ENDBRANCH   1   5
BRANCH   1  14
ATOM     14  O   UNL     1      49.022   6.295  12.905  0.00  0.00    +0.000 OA
BRANCH  14  15
ATOM     15  C   UNL     1      47.702   5.893  12.958  0.00  0.00    +0.000 A 
ATOM     16  C   UNL     1      46.806   6.556  12.133  0.00  0.00    +0.000 A 
ATOM     17  C   UNL     1      45.466   6.164  12.151  0.00  0.00    +0.000 A 
ATOM     18  C   UNL     1      45.069   5.122  12.992  0.00  0.00    +0.000 A 
ATOM     19  C   UNL     1      46.042   4.512  13.772  0.00  0.00    +0.000 A 
ATOM     20  N   UNL     1      47.346   4.883  13.782  0.00  0.00    +0.000 NA
BRANCH  18  21
ATOM     21  C   UNL     1      43.683   4.617  13.079  0.00  0.00    +0.000 C 
ATOM     22  N   UNL     1      42.670   5.533  13.036  0.00  0.00    +0.000 N 
ATOM     23  O   UNL     1      43.449   3.424  13.222  0.00  0.00    +0.000 OA
ATOM     24  H   UNL     1      42.817   6.525  13.154  0.00  0.00    +0.000 HD
ATOM     25  H   UNL     1      41.736   5.175  13.199  0.00  0.00    +0.000 HD
ENDBRANCH  18  21
ENDBRANCH  14  15
ENDBRANCH   1  14
TORSDOF 8
ENDMDL
MODEL 9
REMARK VINA RESULT:    -5.098      4.799      7.122
REMARK INTER + INTRA:          -8.233
REMARK INTER:                  -7.569
REMARK INTRA:                  -0.664
REMARK UNBOUND:                -0.751
REMARK  Name = 
REMARK  10 active torsions:
REMARK  status: ('A' for Active; 'I' for Inactive)
REMARK    1  A    between atoms: C_1  and  N_2
REMARK    2  A    between atoms: N_2  and  C_3
REMARK    3  A    between atoms: N_2  and  C_4
REMARK    4  A    between atoms: C_4  and  C_5
REMARK    5  A    between atoms: C_5  and  O_6
REMARK    6  A    between atoms: O_6  and  C_7
REMARK    7  A    between atoms: C_10  and  C_11
REMARK    8  A    between atoms: C_11  and  O_12
REMARK    9  A    between atoms: O_12  and  C_13
REMARK   10  A    between atoms: C_16  and  C_17
REMARK                            x       y       z     vdW  Elec       q    Type
REMARK                         _______ _______ _______ _____ _____    ______ ____
ROOT
ATOM      1  C   UNL     1      47.232   8.213  12.128  0.00  0.00    +0.000 C 
ENDROOT
BRANCH   1   5
ATOM      2  C   UNL     1      51.254   9.259  10.924  0.00  0.00    +0.000 A 
ATOM      3  C   UNL     1      50.918   7.929  11.188  0.00  0.00    +0.000 A 
ATOM      4  C   UNL     1      49.626   7.596  11.610  0.00  0.00    +0.000 A 
ATOM      5  C   UNL     1      48.649   8.585  11.762  0.00  0.00    +0.000 A 
ATOM      6  C   UNL     1      49.003   9.922  11.540  0.00  0.00    +0.000 A 
ATOM      7  C   UNL     1      50.296  10.254  11.126  0.00  0.00    +0.000 A 
BRANCH   2   8
ATOM      8  O   UNL     1      52.481   9.700  10.498  0.00  0.00    +0.000 OA
BRANCH   8   9
ATOM      9  C   UNL     1      53.236   8.760   9.726  0.00  0.00    +0.000 C 
BRANCH   9  10
ATOM     10  C   UNL     1      53.010   9.020   8.226  0.00  0.00    +0.000 C 
BRANCH  10  12
ATOM     11  C   UNL     1      52.453   6.776   7.542  0.00  0.00    +0.000 C 
ATOM     12  N   UNL     1      53.388   7.888   7.352  0.00  0.00    +0.000 NA
ATOM     13  C   UNL     1      53.424   8.260   5.936  0.00  0.00    +0.000 C 
ENDBRANCH  10  12
ENDBRANCH   9  10
ENDBRANCH   8   9
ENDBRANCH   2   8
ENDBRANCH   1   5
BRANCH   1  14
ATOM     14  O   UNL     1      47.229   7.065  12.978  0.00  0.00    +0.000 OA
BRANCH  14  15
ATOM     15  C   UNL     1      46.437   6.054  12.472  0.00  0.00    +0.000 A 
ATOM     16  C   UNL     1      46.082   6.138  11.133  0.00  0.00    +0.000 A 
ATOM     17  C   UNL     1      45.294   5.123  10.586  0.00  0.00    +0.000 A 
ATOM     18  C   UNL     1      44.890   4.059  11.396  0.00  0.00    +0.000 A 
ATOM     19  C   UNL     1      45.305   4.058  12.721  0.00  0.00    +0.000 A 
ATOM     20  N   UNL     1      46.059   5.037  13.278  0.00  0.00    +0.000 NA
BRANCH  18  21
ATOM     21  C   UNL     1      44.070   2.927  10.917  0.00  0.00    +0.000 C 
ATOM     22  N   UNL     1      44.568   2.170   9.894  0.00  0.00    +0.000 N 
ATOM     23  O   UNL     1      42.965   2.696  11.393  0.00  0.00    +0.000 OA
ATOM     24  H   UNL     1      45.349   2.459   9.324  0.00  0.00    +0.000 HD
ATOM     25  H   UNL     1      43.946   1.466   9.515  0.00  0.00    +0.000 HD
ENDBRANCH  18  21
ENDBRANCH  14  15
ENDBRANCH   1  14
TORSDOF 8
ENDMDL
