MODEL 1
REMARK VINA RESULT:    -7.983      0.000      0.000
REMARK INTER + INTRA:         -11.658
REMARK INTER:                 -10.783
REMARK INTRA:                  -0.876
REMARK UNBOUND:                -0.876
REMARK  Name = 
REMARK  7 active torsions:
REMARK  status: ('A' for Active; 'I' for Inactive)
REMARK    1  A    between atoms: C_1  and  C_2
REMARK    2  A    between atoms: C_2  and  C_3
REMARK    3  A    between atoms: C_2  and  C_14
REMARK    4  A    between atoms: C_3  and  N_4
REMARK    5  A    between atoms: N_4  and  C_5
REMARK    6  A    between atoms: C_8  and  C_9
REMARK    7  A    between atoms: C_18  and  C_19
REMARK                            x       y       z     vdW  Elec       q    Type
REMARK                         _______ _______ _______ _____ _____    ______ ____
ROOT
ATOM      1  N   UNL     1      43.790   4.898   9.911  0.00  0.00    +0.000 N 
ATOM      2  H   UNL     1      42.875   5.035   9.488  0.00  0.00    +0.000 HD
ENDROOT
BRANCH   1   3
ATOM      3  C   UNL     1      44.597   4.023   9.175  0.00  0.00    +0.000 A 
ATOM      4  C   UNL     1      44.562   2.630   9.319  0.00  0.00    +0.000 A 
ATOM      5  C   UNL     1      45.450   1.800   8.625  0.00  0.00    +0.000 A 
ATOM      6  C   UNL     1      46.420   2.349   7.786  0.00  0.00    +0.000 A 
ATOM      7  C   UNL     1      46.496   3.738   7.651  0.00  0.00    +0.000 A 
ATOM      8  C   UNL     1      45.593   4.560   8.344  0.00  0.00    +0.000 A 
BRANCH   6   9
ATOM      9  C   UNL     1      47.366   1.420   7.110  0.00  0.00    +0.000 C 
ATOM     10  N   UNL     1      48.433   1.963   6.456  0.00  0.00    +0.000 N 
ATOM     11  O   UNL     1      47.184   0.209   7.111  0.00  0.00    +0.000 OA
ATOM     12  H   UNL     1      48.506   2.947   6.242  0.00  0.00    +0.000 HD
ATOM     13  H   UNL     1      49.006   1.320   5.925  0.00  0.00    +0.000 HD
ENDBRANCH   6   9
ENDBRANCH   1   3
BRANCH   1  14
ATOM     14  C   UNL     1      43.770   4.810  11.363  0.00  0.00    +0.000 C 
BRANCH  14  16
ATOM     15  C   UNL     1      45.688   3.835  12.795  0.00  0.00    +0.000 C 
ATOM     16  C   UNL     1      45.167   4.927  11.908  0.00  0.00    +0.000 C 
BRANCH  16  17
ATOM     17  C   UNL     1      45.776   6.270  11.996  0.00  0.00    +0.000 A 
ATOM     18  C   UNL     1      47.165   6.419  12.118  0.00  0.00    +0.000 A 
ATOM     19  C   UNL     1      47.743   7.688  12.216  0.00  0.00    +0.000 A 
ATOM     20  C   UNL     1      46.942   8.829  12.188  0.00  0.00    +0.000 A 
ATOM     21  C   UNL     1      45.559   8.701  12.054  0.00  0.00    +0.000 A 
ATOM     22  C   UNL     1      44.982   7.427  11.962  0.00  0.00    +0.000 A 
BRANCH  21  23
ATOM     23  C   UNL     1      44.726   9.869  12.006  0.00  0.00    +0.000 C 
ATOM     24  N   UNL     1      44.048  10.809  11.970  0.00  0.00    +0.000 NA
ENDBRANCH  21  23
ENDBRANCH  16  17
ENDBRANCH  14  16
ENDBRANCH   1  14
TORSDOF 6
ENDMDL
MODEL 2
REMARK VINA RESULT:    -7.910      1.511      2.068
REMARK INTER + INTRA:         -11.560
REMARK INTER:                 -10.589
REMARK INTRA:                  -0.971
REMARK UNBOUND:                -0.876
REMARK  Name = 
REMARK  7 active torsions:
REMARK  status: ('A' for Active; 'I' for Inactive)
REMARK    1  A    between atoms: C_1  and  C_2
REMARK    2  A    between atoms: C_2  and  C_3
REMARK    3  A    between atoms: C_2  and  C_14
REMARK    4  A    between atoms: C_3  and  N_4
REMARK    5  A    between atoms: N_4  and  C_5
REMARK    6  A    between atoms: C_8  and  C_9
REMARK    7  A    between atoms: C_18  and  C_19
REMARK                            x       y       z     vdW  Elec       q    Type
REMARK                         _______ _______ _______ _____ _____    ______ ____
ROOT
ATOM      1  N   UNL     1      43.750   4.830  10.011  0.00  0.00    +0.000 N 
ATOM      2  H   UNL     1      42.823   4.944   9.609  0.00  0.00    +0.000 HD
ENDROOT
BRANCH   1   3
ATOM      3  C   UNL     1      44.564   3.979   9.255  0.00  0.00    +0.000 A 
ATOM      4  C   UNL     1      44.584   2.587   9.409  0.00  0.00    +0.000 A 
ATOM      5  C   UNL     1      45.478   1.784   8.691  0.00  0.00    +0.000 A 
ATOM      6  C   UNL     1      46.399   2.360   7.817  0.00  0.00    +0.000 A 
ATOM      7  C   UNL     1      46.420   3.750   7.670  0.00  0.00    +0.000 A 
ATOM      8  C   UNL     1      45.512   4.544   8.387  0.00  0.00    +0.000 A 
BRANCH   6   9
ATOM      9  C   UNL     1      47.354   1.460   7.117  0.00  0.00    +0.000 C 
ATOM     10  N   UNL     1      48.460   2.024   6.548  0.00  0.00    +0.000 N 
ATOM     11  O   UNL     1      47.149   0.256   7.022  0.00  0.00    +0.000 OA
ATOM     12  H   UNL     1      48.561   3.018   6.409  0.00  0.00    +0.000 HD
ATOM     13  H   UNL     1      49.042   1.407   5.997  0.00  0.00    +0.000 HD
ENDBRANCH   6   9
ENDBRANCH   1   3
BRANCH   1  14
ATOM     14  C   UNL     1      43.765   4.738  11.463  0.00  0.00    +0.000 C 
BRANCH  14  16
ATOM     15  C   UNL     1      45.747   3.746  12.793  0.00  0.00    +0.000 C 
ATOM     16  C   UNL     1      45.173   4.865  11.975  0.00  0.00    +0.000 C 
BRANCH  16  17
ATOM     17  C   UNL     1      45.751   6.219  12.114  0.00  0.00    +0.000 A 
ATOM     18  C   UNL     1      44.959   7.293  12.542  0.00  0.00    +0.000 A 
ATOM     19  C   UNL     1      45.498   8.578  12.660  0.00  0.00    +0.000 A 
ATOM     20  C   UNL     1      46.841   8.807  12.357  0.00  0.00    +0.000 A 
ATOM     21  C   UNL     1      47.648   7.746  11.942  0.00  0.00    +0.000 A 
ATOM     22  C   UNL     1      47.102   6.462  11.818  0.00  0.00    +0.000 A 
BRANCH  21  23
ATOM     23  C   UNL     1      49.034   7.966  11.645  0.00  0.00    +0.000 C 
ATOM     24  N   UNL     1      50.155   8.139  11.402  0.00  0.00    +0.000 NA
ENDBRANCH  21  23
ENDBRANCH  16  17
ENDBRANCH  14  16
ENDBRANCH   1  14
TORSDOF 6
ENDMDL
MODEL 3
REMARK VINA RESULT:    -7.732      2.246      3.106
REMARK INTER + INTRA:         -11.320
REMARK INTER:                 -10.380
REMARK INTRA:                  -0.941
REMARK UNBOUND:                -0.876
REMARK  Name = 
REMARK  7 active torsions:
REMARK  status: ('A' for Active; 'I' for Inactive)
REMARK    1  A    between atoms: C_1  and  C_2
REMARK    2  A    between atoms: C_2  and  C_3
REMARK    3  A    between atoms: C_2  and  C_14
REMARK    4  A    between atoms: C_3  and  N_4
REMARK    5  A    between atoms: N_4  and  C_5
REMARK    6  A    between atoms: C_8  and  C_9
REMARK    7  A    between atoms: C_18  and  C_19
REMARK                            x       y       z     vdW  Elec       q    Type
REMARK                         _______ _______ _______ _____ _____    ______ ____
ROOT
ATOM      1  N   UNL     1      43.545   3.280  10.376  0.00  0.00    +0.000 N 
ATOM      2  H   UNL     1      42.756   2.661  10.209  0.00  0.00    +0.000 HD
ENDROOT
BRANCH   1   3
ATOM      3  C   UNL     1      44.575   3.104   9.444  0.00  0.00    +0.000 A 
ATOM      4  C   UNL     1      45.068   4.132   8.631  0.00  0.00    +0.000 A 
ATOM      5  C   UNL     1      46.038   3.888   7.651  0.00  0.00    +0.000 A 
ATOM      6  C   UNL     1      46.521   2.597   7.442  0.00  0.00    +0.000 A 
ATOM      7  C   UNL     1      46.021   1.549   8.219  0.00  0.00    +0.000 A 
ATOM      8  C   UNL     1      45.056   1.806   9.206  0.00  0.00    +0.000 A 
BRANCH   6   9
ATOM      9  C   UNL     1      47.518   2.392   6.356  0.00  0.00    +0.000 C 
ATOM     10  N   UNL     1      47.405   3.164   5.235  0.00  0.00    +0.000 N 
ATOM     11  O   UNL     1      48.396   1.543   6.443  0.00  0.00    +0.000 OA
ATOM     12  H   UNL     1      46.584   3.712   5.025  0.00  0.00    +0.000 HD
ATOM     13  H   UNL     1      48.033   2.939   4.474  0.00  0.00    +0.000 HD
ENDBRANCH   6   9
ENDBRANCH   1   3
BRANCH   1  14
ATOM     14  C   UNL     1      43.871   3.467  11.781  0.00  0.00    +0.000 C 
BRANCH  14  16
ATOM     15  C   UNL     1      42.973   5.880  11.556  0.00  0.00    +0.000 C 
ATOM     16  C   UNL     1      44.006   4.932  12.091  0.00  0.00    +0.000 C 
BRANCH  16  17
ATOM     17  C   UNL     1      45.343   5.456  12.441  0.00  0.00    +0.000 A 
ATOM     18  C   UNL     1      46.015   6.334  11.580  0.00  0.00    +0.000 A 
ATOM     19  C   UNL     1      47.286   6.821  11.901  0.00  0.00    +0.000 A 
ATOM     20  C   UNL     1      47.902   6.440  13.093  0.00  0.00    +0.000 A 
ATOM     21  C   UNL     1      47.243   5.578  13.969  0.00  0.00    +0.000 A 
ATOM     22  C   UNL     1      45.972   5.087  13.641  0.00  0.00    +0.000 A 
BRANCH  21  23
ATOM     23  C   UNL     1      47.860   5.193  15.206  0.00  0.00    +0.000 C 
ATOM     24  N   UNL     1      48.361   4.888  16.207  0.00  0.00    +0.000 NA
ENDBRANCH  21  23
ENDBRANCH  16  17
ENDBRANCH  14  16
ENDBRANCH   1  14
TORSDOF 6
ENDMDL
MODEL 4
REMARK VINA RESULT:    -7.663      3.032      6.642
REMARK INTER + INTRA:         -11.226
REMARK INTER:                 -10.176
REMARK INTRA:                  -1.050
REMARK UNBOUND:                -0.876
REMARK  Name = 
REMARK  7 active torsions:
REMARK  status: ('A' for Active; 'I' for Inactive)
REMARK    1  A    between atoms: C_1  and  C_2
REMARK    2  A    between atoms: C_2  and  C_3
REMARK    3  A    between atoms: C_2  and  C_14
REMARK    4  A    between atoms: C_3  and  N_4
REMARK    5  A    between atoms: N_4  and  C_5
REMARK    6  A    between atoms: C_8  and  C_9
REMARK    7  A    between atoms: C_18  and  C_19
REMARK                            x       y       z     vdW  Elec       q    Type
REMARK                         _______ _______ _______ _____ _____    ______ ____
ROOT
ATOM      1  N   UNL     1      43.515   5.358  12.493  0.00  0.00    +0.000 N 
ATOM      2  H   UNL     1      42.815   5.890  13.005  0.00  0.00    +0.000 HD
ENDROOT
BRANCH   1   3
ATOM      3  C   UNL     1      44.822   5.762  12.791  0.00  0.00    +0.000 A 
ATOM      4  C   UNL     1      45.405   6.933  12.290  0.00  0.00    +0.000 A 
ATOM      5  C   UNL     1      46.744   7.251  12.545  0.00  0.00    +0.000 A 
ATOM      6  C   UNL     1      47.546   6.385  13.289  0.00  0.00    +0.000 A 
ATOM      7  C   UNL     1      46.995   5.195  13.773  0.00  0.00    +0.000 A 
ATOM      8  C   UNL     1      45.648   4.892  13.520  0.00  0.00    +0.000 A 
BRANCH   6   9
ATOM      9  C   UNL     1      48.973   6.754  13.488  0.00  0.00    +0.000 C 
ATOM     10  N   UNL     1      49.703   7.092  12.385  0.00  0.00    +0.000 N 
ATOM     11  O   UNL     1      49.493   6.731  14.597  0.00  0.00    +0.000 OA
ATOM     12  H   UNL     1      49.388   6.916  11.442  0.00  0.00    +0.000 HD
ATOM     13  H   UNL     1      50.692   7.244  12.534  0.00  0.00    +0.000 HD
ENDBRANCH   6   9
ENDBRANCH   1   3
BRANCH   1  14
ATOM     14  C   UNL     1      43.151   5.059  11.117  0.00  0.00    +0.000 C 
BRANCH  14  16
ATOM     15  C   UNL     1      43.411   2.573  11.775  0.00  0.00    +0.000 C 
ATOM     16  C   UNL     1      43.582   3.663  10.759  0.00  0.00    +0.000 C 
BRANCH  16  17
ATOM     17  C   UNL     1      44.588   3.491   9.690  0.00  0.00    +0.000 A 
ATOM     18  C   UNL     1      45.123   4.604   9.026  0.00  0.00    +0.000 A 
ATOM     19  C   UNL     1      46.065   4.444   8.004  0.00  0.00    +0.000 A 
ATOM     20  C   UNL     1      46.490   3.168   7.635  0.00  0.00    +0.000 A 
ATOM     21  C   UNL     1      45.978   2.049   8.294  0.00  0.00    +0.000 A 
ATOM     22  C   UNL     1      45.029   2.213   9.312  0.00  0.00    +0.000 A 
BRANCH  21  23
ATOM     23  C   UNL     1      46.421   0.733   7.934  0.00  0.00    +0.000 C 
ATOM     24  N   UNL     1      46.776  -0.334   7.647  0.00  0.00    +0.000 NA
ENDBRANCH  21  23
ENDBRANCH  16  17
ENDBRANCH  14  16
ENDBRANCH   1  14
TORSDOF 6
ENDMDL
MODEL 5
REMARK VINA RESULT:    -6.074      5.859      8.010
REMARK INTER + INTRA:          -9.080
REMARK INTER:                  -8.454
REMARK INTRA:                  -0.626
REMARK UNBOUND:                -0.876
REMARK  Name = 
REMARK  7 active torsions:
REMARK  status: ('A' for Active; 'I' for Inactive)
REMARK    1  A    between atoms: C_1  and  C_2
REMARK    2  A    between atoms: C_2  and  C_3
REMARK    3  A    between atoms: C_2  and  C_14
REMARK    4  A    between atoms: C_3  and  N_4
REMARK    5  A    between atoms: N_4  and  C_5
REMARK    6  A    between atoms: C_8  and  C_9
REMARK    7  A    between atoms: C_18  and  C_19
REMARK                            x       y       z     vdW  Elec       q    Type
REMARK                         _______ _______ _______ _____ _____    ______ ____
ROOT
ATOM      1  N   UNL     1      47.771   4.971  16.635  0.00  0.00    +0.000 N 
ATOM      2  H   UNL     1      47.977   5.966  16.689  0.00  0.00    +0.000 HD
ENDROOT
BRANCH   1   3
ATOM      3  C   UNL     1      48.858   4.175  17.011  0.00  0.00    +0.000 A 
ATOM      4  C   UNL     1      50.083   4.692  17.451  0.00  0.00    +0.000 A 
ATOM      5  C   UNL     1      51.171   3.858  17.733  0.00  0.00    +0.000 A 
ATOM      6  C   UNL     1      51.069   2.479  17.553  0.00  0.00    +0.000 A 
ATOM      7  C   UNL     1      49.867   1.942  17.085  0.00  0.00    +0.000 A 
ATOM      8  C   UNL     1      48.779   2.786  16.815  0.00  0.00    +0.000 A 
BRANCH   6   9
ATOM      9  C   UNL     1      52.273   1.648  17.825  0.00  0.00    +0.000 C 
ATOM     10  N   UNL     1      52.419   0.490  17.118  0.00  0.00    +0.000 N 
ATOM     11  O   UNL     1      53.094   1.970  18.674  0.00  0.00    +0.000 OA
ATOM     12  H   UNL     1      51.674   0.077  16.577  0.00  0.00    +0.000 HD
ATOM     13  H   UNL     1      53.193  -0.104  17.389  0.00  0.00    +0.000 HD
ENDBRANCH   6   9
ENDBRANCH   1   3
BRANCH   1  14
ATOM     14  C   UNL     1      46.962   4.590  15.487  0.00  0.00    +0.000 C 
BRANCH  14  16
ATOM     15  C   UNL     1      48.242   6.591  14.468  0.00  0.00    +0.000 C 
ATOM     16  C   UNL     1      47.376   5.381  14.277  0.00  0.00    +0.000 C 
BRANCH  16  17
ATOM     17  C   UNL     1      46.549   5.280  13.056  0.00  0.00    +0.000 A 
ATOM     18  C   UNL     1      46.710   6.194  12.006  0.00  0.00    +0.000 A 
ATOM     19  C   UNL     1      45.919   6.111  10.855  0.00  0.00    +0.000 A 
ATOM     20  C   UNL     1      44.958   5.107  10.736  0.00  0.00    +0.000 A 
ATOM     21  C   UNL     1      44.792   4.180  11.765  0.00  0.00    +0.000 A 
ATOM     22  C   UNL     1      45.582   4.271  12.920  0.00  0.00    +0.000 A 
BRANCH  21  23
ATOM     23  C   UNL     1      43.819   3.133  11.646  0.00  0.00    +0.000 C 
ATOM     24  N   UNL     1      43.030   2.288  11.544  0.00  0.00    +0.000 NA
ENDBRANCH  21  23
ENDBRANCH  16  17
ENDBRANCH  14  16
ENDBRANCH   1  14
TORSDOF 6
ENDMDL
MODEL 6
REMARK VINA RESULT:    -5.991      4.286      7.184
REMARK INTER + INTRA:          -8.968
REMARK INTER:                  -8.163
REMARK INTRA:                  -0.805
REMARK UNBOUND:                -0.876
REMARK  Name = 
REMARK  7 active torsions:
REMARK  status: ('A' for Active; 'I' for Inactive)
REMARK    1  A    between atoms: C_1  and  C_2
REMARK    2  A    between atoms: C_2  and  C_3
REMARK    3  A    between atoms: C_2  and  C_14
REMARK    4  A    between atoms: C_3  and  N_4
REMARK    5  A    between atoms: N_4  and  C_5
REMARK    6  A    between atoms: C_8  and  C_9
REMARK    7  A    between atoms: C_18  and  C_19
REMARK                            x       y       z     vdW  Elec       q    Type
REMARK                         _______ _______ _______ _____ _____    ______ ____
ROOT
ATOM      1  N   UNL     1      47.979   7.251  13.574  0.00  0.00    +0.000 N 
ATOM      2  H   UNL     1      48.749   7.902  13.701  0.00  0.00    +0.000 HD
ENDROOT
BRANCH   1   3
ATOM      3  C   UNL     1      47.966   6.235  14.536  0.00  0.00    +0.000 A 
ATOM      4  C   UNL     1      47.187   5.076  14.430  0.00  0.00    +0.000 A 
ATOM      5  C   UNL     1      47.141   4.129  15.460  0.00  0.00    +0.000 A 
ATOM      6  C   UNL     1      47.856   4.333  16.640  0.00  0.00    +0.000 A 
ATOM      7  C   UNL     1      48.615   5.497  16.782  0.00  0.00    +0.000 A 
ATOM      8  C   UNL     1      48.662   6.435  15.739  0.00  0.00    +0.000 A 
BRANCH   6   9
ATOM      9  C   UNL     1      47.731   3.313  17.716  0.00  0.00    +0.000 C 
ATOM     10  N   UNL     1      48.734   3.237  18.639  0.00  0.00    +0.000 N 
ATOM     11  O   UNL     1      46.779   2.544  17.764  0.00  0.00    +0.000 OA
ATOM     12  H   UNL     1      49.629   3.689  18.519  0.00  0.00    +0.000 HD
ATOM     13  H   UNL     1      48.674   2.474  19.302  0.00  0.00    +0.000 HD
ENDBRANCH   6   9
ENDBRANCH   1   3
BRANCH   1  14
ATOM     14  C   UNL     1      47.692   6.928  12.184  0.00  0.00    +0.000 C 
BRANCH  14  16
ATOM     15  C   UNL     1      45.610   8.419  12.538  0.00  0.00    +0.000 C 
ATOM     16  C   UNL     1      46.258   7.245  11.863  0.00  0.00    +0.000 C 
BRANCH  16  17
ATOM     17  C   UNL     1      45.400   6.163  11.336  0.00  0.00    +0.000 A 
ATOM     18  C   UNL     1      44.279   5.724  12.053  0.00  0.00    +0.000 A 
ATOM     19  C   UNL     1      43.474   4.691  11.564  0.00  0.00    +0.000 A 
ATOM     20  C   UNL     1      43.776   4.084  10.345  0.00  0.00    +0.000 A 
ATOM     21  C   UNL     1      44.880   4.516   9.610  0.00  0.00    +0.000 A 
ATOM     22  C   UNL     1      45.689   5.547  10.107  0.00  0.00    +0.000 A 
BRANCH  21  23
ATOM     23  C   UNL     1      45.190   3.910   8.347  0.00  0.00    +0.000 C 
ATOM     24  N   UNL     1      45.445   3.418   7.328  0.00  0.00    +0.000 NA
ENDBRANCH  21  23
ENDBRANCH  16  17
ENDBRANCH  14  16
ENDBRANCH   1  14
TORSDOF 6
ENDMDL
MODEL 7
REMARK VINA RESULT:    -5.959      3.775      5.564
REMARK INTER + INTRA:          -8.925
REMARK INTER:                  -8.068
REMARK INTRA:                  -0.856
REMARK UNBOUND:                -0.876
REMARK  Name = 
REMARK  7 active torsions:
REMARK  status: ('A' for Active; 'I' for Inactive)
REMARK    1  A    between atoms: C_1  and  C_2
REMARK    2  A    between atoms: C_2  and  C_3
REMARK    3  A    between atoms: C_2  and  C_14
REMARK    4  A    between atoms: C_3  and  N_4
REMARK    5  A    between atoms: N_4  and  C_5
REMARK    6  A    between atoms: C_8  and  C_9
REMARK    7  A    between atoms: C_18  and  C_19
REMARK                            x       y       z     vdW  Elec       q    Type
REMARK                         _______ _______ _______ _____ _____    ______ ____
ROOT
ATOM      1  N   UNL     1      46.726   7.717  12.192  0.00  0.00    +0.000 N 
ATOM      2  H   UNL     1      46.294   8.505  11.716  0.00  0.00    +0.000 HD
ENDROOT
BRANCH   1   3
ATOM      3  C   UNL     1      46.129   6.495  11.864  0.00  0.00    +0.000 A 
ATOM      4  C   UNL     1      45.932   6.057  10.549  0.00  0.00    +0.000 A 
ATOM      5  C   UNL     1      45.251   4.867  10.268  0.00  0.00    +0.000 A 
ATOM      6  C   UNL     1      44.722   4.095  11.303  0.00  0.00    +0.000 A 
ATOM      7  C   UNL     1      44.878   4.528  12.622  0.00  0.00    +0.000 A 
ATOM      8  C   UNL     1      45.572   5.718  12.892  0.00  0.00    +0.000 A 
BRANCH   6   9
ATOM      9  C   UNL     1      43.969   2.864  10.940  0.00  0.00    +0.000 C 
ATOM     10  N   UNL     1      44.428   2.124   9.889  0.00  0.00    +0.000 N 
ATOM     11  O   UNL     1      42.953   2.534  11.539  0.00  0.00    +0.000 OA
ATOM     12  H   UNL     1      45.118   2.464   9.235  0.00  0.00    +0.000 HD
ATOM     13  H   UNL     1      43.846   1.348   9.602  0.00  0.00    +0.000 HD
ENDBRANCH   6   9
ENDBRANCH   1   3
BRANCH   1  14
ATOM     14  C   UNL     1      47.103   7.987  13.571  0.00  0.00    +0.000 C 
BRANCH  14  16
ATOM     15  C   UNL     1      49.482   7.618  12.628  0.00  0.00    +0.000 C 
ATOM     16  C   UNL     1      48.542   7.611  13.798  0.00  0.00    +0.000 C 
BRANCH  16  17
ATOM     17  C   UNL     1      48.874   6.782  14.975  0.00  0.00    +0.000 A 
ATOM     18  C   UNL     1      50.078   6.973  15.668  0.00  0.00    +0.000 A 
ATOM     19  C   UNL     1      50.402   6.180  16.773  0.00  0.00    +0.000 A 
ATOM     20  C   UNL     1      49.523   5.188  17.207  0.00  0.00    +0.000 A 
ATOM     21  C   UNL     1      48.314   4.993  16.539  0.00  0.00    +0.000 A 
ATOM     22  C   UNL     1      47.995   5.784  15.427  0.00  0.00    +0.000 A 
BRANCH  21  23
ATOM     23  C   UNL     1      47.394   3.987  16.987  0.00  0.00    +0.000 C 
ATOM     24  N   UNL     1      46.651   3.170  17.344  0.00  0.00    +0.000 NA
ENDBRANCH  21  23
ENDBRANCH  16  17
ENDBRANCH  14  16
ENDBRANCH   1  14
TORSDOF 6
ENDMDL
MODEL 8
REMARK VINA RESULT:    -5.765      4.939      6.803
REMARK INTER + INTRA:          -8.663
REMARK INTER:                  -7.969
REMARK INTRA:                  -0.693
REMARK UNBOUND:                -0.876
REMARK  Name = 
REMARK  7 active torsions:
REMARK  status: ('A' for Active; 'I' for Inactive)
REMARK    1  A    between atoms: C_1  and  C_2
REMARK    2  A    between atoms: C_2  and  C_3
REMARK    3  A    between atoms: C_2  and  C_14
REMARK    4  A    between atoms: C_3  and  N_4
REMARK    5  A    between atoms: N_4  and  C_5
REMARK    6  A    between atoms: C_8  and  C_9
REMARK    7  A    between atoms: C_18  and  C_19
REMARK                            x       y       z     vdW  Elec       q    Type
REMARK                         _______ _______ _______ _____ _____    ______ ____
ROOT
ATOM      1  N   UNL     1      47.098   7.049  13.989  0.00  0.00    +0.000 N 
ATOM      2  H   UNL     1      46.491   7.255  14.779  0.00  0.00    +0.000 HD
ENDROOT
BRANCH   1   3
ATOM      3  C   UNL     1      46.474   6.250  13.025  0.00  0.00    +0.000 A 
ATOM      4  C   UNL     1      46.349   6.616  11.678  0.00  0.00    +0.000 A 
ATOM      5  C   UNL     1      45.640   5.824  10.768  0.00  0.00    +0.000 A 
ATOM      6  C   UNL     1      45.011   4.653  11.190  0.00  0.00    +0.000 A 
ATOM      7  C   UNL     1      45.094   4.285  12.535  0.00  0.00    +0.000 A 
ATOM      8  C   UNL     1      45.816   5.081  13.438  0.00  0.00    +0.000 A 
BRANCH   6   9
ATOM      9  C   UNL     1      44.233   3.877  10.187  0.00  0.00    +0.000 C 
ATOM     10  N   UNL     1      44.101   4.408   8.936  0.00  0.00    +0.000 N 
ATOM     11  O   UNL     1      43.701   2.812  10.472  0.00  0.00    +0.000 OA
ATOM     12  H   UNL     1      44.328   5.367   8.718  0.00  0.00    +0.000 HD
ATOM     13  H   UNL     1      43.490   3.910   8.302  0.00  0.00    +0.000 HD
ENDBRANCH   6   9
ENDBRANCH   1   3
BRANCH   1  14
ATOM     14  C   UNL     1      48.483   6.791  14.351  0.00  0.00    +0.000 C 
BRANCH  14  16
ATOM     15  C   UNL     1      49.053   7.966  16.581  0.00  0.00    +0.000 C 
ATOM     16  C   UNL     1      48.626   6.730  15.846  0.00  0.00    +0.000 C 
BRANCH  16  17
ATOM     17  C   UNL     1      48.848   5.412  16.477  0.00  0.00    +0.000 A 
ATOM     18  C   UNL     1      47.812   4.471  16.553  0.00  0.00    +0.000 A 
ATOM     19  C   UNL     1      48.015   3.229  17.162  0.00  0.00    +0.000 A 
ATOM     20  C   UNL     1      49.260   2.906  17.700  0.00  0.00    +0.000 A 
ATOM     21  C   UNL     1      50.308   3.825  17.622  0.00  0.00    +0.000 A 
ATOM     22  C   UNL     1      50.099   5.071  17.017  0.00  0.00    +0.000 A 
BRANCH  21  23
ATOM     23  C   UNL     1      51.598   3.496  18.157  0.00  0.00    +0.000 C 
ATOM     24  N   UNL     1      52.642   3.226  18.585  0.00  0.00    +0.000 NA
ENDBRANCH  21  23
ENDBRANCH  16  17
ENDBRANCH  14  16
ENDBRANCH   1  14
TORSDOF 6
ENDMDL
MODEL 9
REMARK VINA RESULT:    -5.759      4.708      7.665
REMARK INTER + INTRA:          -8.654
REMARK INTER:                  -7.987
REMARK INTRA:                  -0.668
REMARK UNBOUND:                -0.876
REMARK  Name = 
REMARK  7 active torsions:
REMARK  status: ('A' for Active; 'I' for Inactive)
REMARK    1  A    between atoms: C_1  and  C_2
REMARK    2  A    between atoms: C_2  and  C_3
REMARK    3  A    between atoms: C_2  and  C_14
REMARK    4  A    between atoms: C_3  and  N_4
REMARK    5  A    between atoms: N_4  and  C_5
REMARK    6  A    between atoms: C_8  and  C_9
REMARK    7  A    between atoms: C_18  and  C_19
REMARK                            x       y       z     vdW  Elec       q    Type
REMARK                         _______ _______ _______ _____ _____    ______ ____
ROOT
ATOM      1  N   UNL     1      47.397   5.724  13.077  0.00  0.00    +0.000 N 
ATOM      2  H   UNL     1      46.907   4.959  12.621  0.00  0.00    +0.000 HD
ENDROOT
BRANCH   1   3
ATOM      3  C   UNL     1      47.575   5.509  14.448  0.00  0.00    +0.000 A 
ATOM      4  C   UNL     1      48.443   6.267  15.246  0.00  0.00    +0.000 A 
ATOM      5  C   UNL     1      48.654   5.959  16.595  0.00  0.00    +0.000 A 
ATOM      6  C   UNL     1      48.020   4.861  17.176  0.00  0.00    +0.000 A 
ATOM      7  C   UNL     1      47.175   4.071  16.393  0.00  0.00    +0.000 A 
ATOM      8  C   UNL     1      46.962   4.395  15.043  0.00  0.00    +0.000 A 
BRANCH   6   9
ATOM      9  C   UNL     1      48.319   4.556  18.601  0.00  0.00    +0.000 C 
ATOM     10  N   UNL     1      48.411   3.243  18.965  0.00  0.00    +0.000 N 
ATOM     11  O   UNL     1      48.449   5.445  19.433  0.00  0.00    +0.000 OA
ATOM     12  H   UNL     1      48.100   2.485  18.376  0.00  0.00    +0.000 HD
ATOM     13  H   UNL     1      48.519   3.061  19.954  0.00  0.00    +0.000 HD
ENDBRANCH   6   9
ENDBRANCH   1   3
BRANCH   1  14
ATOM     14  C   UNL     1      47.019   7.045  12.600  0.00  0.00    +0.000 C 
BRANCH  14  16
ATOM     15  C   UNL     1      44.935   8.253  11.661  0.00  0.00    +0.000 C 
ATOM     16  C   UNL     1      45.695   6.980  11.889  0.00  0.00    +0.000 C 
BRANCH  16  17
ATOM     17  C   UNL     1      44.957   5.700  11.896  0.00  0.00    +0.000 A 
ATOM     18  C   UNL     1      44.084   5.383  12.946  0.00  0.00    +0.000 A 
ATOM     19  C   UNL     1      43.395   4.167  12.963  0.00  0.00    +0.000 A 
ATOM     20  C   UNL     1      43.564   3.249  11.926  0.00  0.00    +0.000 A 
ATOM     21  C   UNL     1      44.419   3.552  10.866  0.00  0.00    +0.000 A 
ATOM     22  C   UNL     1      45.113   4.770  10.855  0.00  0.00    +0.000 A 
BRANCH  21  23
ATOM     23  C   UNL     1      44.588   2.624   9.785  0.00  0.00    +0.000 C 
ATOM     24  N   UNL     1      44.728   1.877   8.909  0.00  0.00    +0.000 NA
ENDBRANCH  21  23
ENDBRANCH  16  17
ENDBRANCH  14  16
ENDBRANCH   1  14
TORSDOF 6
ENDMDL
