MODEL 1
REMARK VINA RESULT:    -7.016      0.000      0.000
REMARK INTER + INTRA:          -9.353
REMARK INTER:                  -8.657
REMARK INTRA:                  -0.696
REMARK UNBOUND:                -0.696
REMARK  Name = 
REMARK  6 active torsions:
REMARK  status: ('A' for Active; 'I' for Inactive)
REMARK    1  A    between atoms: C_1  and  O_2
REMARK    2  A    between atoms: O_2  and  C_3
REMARK    3  A    between atoms: N_8  and  C_9
REMARK    4  A    between atoms: C_9  and  C_10
REMARK    5  A    between atoms: C_19  and  O_20
REMARK    6  A    between atoms: O_20  and  C_21
REMARK                            x       y       z     vdW  Elec       q    Type
REMARK                         _______ _______ _______ _____ _____    ______ ____
ROOT
ATOM      1  C   UNL     1      46.607   7.785  13.079  0.00  0.00    +0.000 A 
ATOM      2  C   UNL     1      46.873   6.524  13.648  0.00  0.00    +0.000 A 
ATOM      3  C   UNL     1      46.274   5.361  13.118  0.00  0.00    +0.000 A 
ATOM      4  C   UNL     1      46.403   3.980  13.401  0.00  0.00    +0.000 A 
ATOM      5  C   UNL     1      45.610   3.299  12.508  0.00  0.00    +0.000 A 
ATOM      6  N   UNL     1      44.973   4.218  11.711  0.00  0.00    +0.000 N 
ATOM      7  C   UNL     1      45.352   5.496  12.078  0.00  0.00    +0.000 A 
ATOM      8  C   UNL     1      44.986   6.756  11.588  0.00  0.00    +0.000 A 
ATOM      9  C   UNL     1      45.633   7.907  12.078  0.00  0.00    +0.000 A 
ENDROOT
BRANCH   1  11
ATOM     10  C   UNL     1      48.205   8.685  14.583  0.00  0.00    +0.000 C 
ATOM     11  O   UNL     1      47.272   8.901  13.520  0.00  0.00    +0.000 OA
ENDBRANCH   1  11
BRANCH   9  12
ATOM     12  O   UNL     1      45.190   9.030  11.431  0.00  0.00    +0.000 OA
ATOM     13  C   UNL     1      43.839   9.113  11.009  0.00  0.00    +0.000 C 
ENDBRANCH   9  12
BRANCH   6  14
ATOM     14  C   UNL     1      44.122   3.869  10.579  0.00  0.00    +0.000 C 
BRANCH  14  15
ATOM     15  C   UNL     1      44.942   3.448   9.387  0.00  0.00    +0.000 A 
ATOM     16  C   UNL     1      45.198   2.090   9.139  0.00  0.00    +0.000 A 
ATOM     17  C   UNL     1      46.039   1.708   8.093  0.00  0.00    +0.000 A 
ATOM     18  C   UNL     1      46.628   2.680   7.285  0.00  0.00    +0.000 A 
ATOM     19 BR   UNL     1      47.825   2.167   5.919  0.00  0.00    +0.000 Br
ATOM     20  C   UNL     1      46.356   4.031   7.497  0.00  0.00    +0.000 A 
ATOM     21  C   UNL     1      45.513   4.412   8.543  0.00  0.00    +0.000 A 
ENDBRANCH  14  15
ENDBRANCH   6  14
TORSDOF 4
ENDMDL
MODEL 2
REMARK VINA RESULT:    -7.005      1.863      3.237
REMARK INTER + INTRA:          -9.339
REMARK INTER:                  -9.063
REMARK INTRA:                  -0.276
REMARK UNBOUND:                -0.696
REMARK  Name = 
REMARK  6 active torsions:
REMARK  status: ('A' for Active; 'I' for Inactive)
REMARK    1  A    between atoms: C_1  and  O_2
REMARK    2  A    between atoms: O_2  and  C_3
REMARK    3  A    between atoms: N_8  and  C_9
REMARK    4  A    between atoms: C_9  and  C_10
REMARK    5  A    between atoms: C_19  and  O_20
REMARK    6  A    between atoms: O_20  and  C_21
REMARK                            x       y       z     vdW  Elec       q    Type
REMARK                         _______ _______ _______ _____ _____    ______ ____
ROOT
ATOM      1  C   UNL     1      47.577   5.775  14.357  0.00  0.00    +0.000 A 
ATOM      2  C   UNL     1      47.136   6.935  13.691  0.00  0.00    +0.000 A 
ATOM      3  C   UNL     1      46.152   6.848  12.682  0.00  0.00    +0.000 A 
ATOM      4  C   UNL     1      45.456   7.810  11.910  0.00  0.00    +0.000 A 
ATOM      5  C   UNL     1      44.556   7.135  11.122  0.00  0.00    +0.000 A 
ATOM      6  N   UNL     1      44.700   5.790  11.359  0.00  0.00    +0.000 N 
ATOM      7  C   UNL     1      45.689   5.587  12.304  0.00  0.00    +0.000 A 
ATOM      8  C   UNL     1      46.211   4.418  12.874  0.00  0.00    +0.000 A 
ATOM      9  C   UNL     1      47.146   4.514  13.921  0.00  0.00    +0.000 A 
ENDROOT
BRANCH   1  11
ATOM     10  C   UNL     1      49.341   6.987  15.378  0.00  0.00    +0.000 C 
ATOM     11  O   UNL     1      48.450   5.868  15.412  0.00  0.00    +0.000 OA
ENDBRANCH   1  11
BRANCH   9  12
ATOM     12  O   UNL     1      47.485   3.272  14.390  0.00  0.00    +0.000 OA
ATOM     13  C   UNL     1      47.724   3.083  15.775  0.00  0.00    +0.000 C 
ENDBRANCH   9  12
BRANCH   6  14
ATOM     14  C   UNL     1      43.846   4.760  10.778  0.00  0.00    +0.000 C 
BRANCH  14  15
ATOM     15  C   UNL     1      44.586   3.955   9.741  0.00  0.00    +0.000 A 
ATOM     16  C   UNL     1      44.557   2.552   9.772  0.00  0.00    +0.000 A 
ATOM     17  C   UNL     1      45.323   1.809   8.872  0.00  0.00    +0.000 A 
ATOM     18  C   UNL     1      46.121   2.463   7.933  0.00  0.00    +0.000 A 
ATOM     19 BR   UNL     1      47.214   1.459   6.768  0.00  0.00    +0.000 Br
ATOM     20  C   UNL     1      46.133   3.855   7.868  0.00  0.00    +0.000 A 
ATOM     21  C   UNL     1      45.365   4.597   8.768  0.00  0.00    +0.000 A 
ENDBRANCH  14  15
ENDBRANCH   6  14
TORSDOF 4
ENDMDL
MODEL 3
REMARK VINA RESULT:    -6.761      1.728      2.172
REMARK INTER + INTRA:          -9.038
REMARK INTER:                  -8.310
REMARK INTRA:                  -0.728
REMARK UNBOUND:                -0.696
REMARK  Name = 
REMARK  6 active torsions:
REMARK  status: ('A' for Active; 'I' for Inactive)
REMARK    1  A    between atoms: C_1  and  O_2
REMARK    2  A    between atoms: O_2  and  C_3
REMARK    3  A    between atoms: N_8  and  C_9
REMARK    4  A    between atoms: C_9  and  C_10
REMARK    5  A    between atoms: C_19  and  O_20
REMARK    6  A    between atoms: O_20  and  C_21
REMARK                            x       y       z     vdW  Elec       q    Type
REMARK                         _______ _______ _______ _____ _____    ______ ____
ROOT
ATOM      1  C   UNL     1      47.138   5.512  13.830  0.00  0.00    +0.000 A 
ATOM      2  C   UNL     1      46.021   4.738  14.199  0.00  0.00    +0.000 A 
ATOM      3  C   UNL     1      45.006   4.455  13.259  0.00  0.00    +0.000 A 
ATOM      4  C   UNL     1      43.836   3.658  13.294  0.00  0.00    +0.000 A 
ATOM      5  C   UNL     1      43.263   3.710  12.047  0.00  0.00    +0.000 A 
ATOM      6  N   UNL     1      44.022   4.540  11.258  0.00  0.00    +0.000 N 
ATOM      7  C   UNL     1      45.092   5.025  11.988  0.00  0.00    +0.000 A 
ATOM      8  C   UNL     1      46.135   5.897  11.649  0.00  0.00    +0.000 A 
ATOM      9  C   UNL     1      47.175   6.126  12.570  0.00  0.00    +0.000 A 
ENDROOT
BRANCH   1  11
ATOM     10  C   UNL     1      47.975   5.171  16.022  0.00  0.00    +0.000 C 
ATOM     11  O   UNL     1      48.177   5.696  14.706  0.00  0.00    +0.000 OA
ENDBRANCH   1  11
BRANCH   9  12
ATOM     12  O   UNL     1      48.131   6.948  12.033  0.00  0.00    +0.000 OA
ATOM     13  C   UNL     1      48.076   8.344  12.275  0.00  0.00    +0.000 C 
ENDBRANCH   9  12
BRANCH   6  14
ATOM     14  C   UNL     1      43.781   4.766   9.838  0.00  0.00    +0.000 C 
BRANCH  14  15
ATOM     15  C   UNL     1      44.726   3.958   8.987  0.00  0.00    +0.000 A 
ATOM     16  C   UNL     1      44.795   2.563   9.123  0.00  0.00    +0.000 A 
ATOM     17  C   UNL     1      45.740   1.827   8.407  0.00  0.00    +0.000 A 
ATOM     18  C   UNL     1      46.622   2.481   7.546  0.00  0.00    +0.000 A 
ATOM     19 BR   UNL     1      47.950   1.496   6.636  0.00  0.00    +0.000 Br
ATOM     20  C   UNL     1      46.543   3.862   7.375  0.00  0.00    +0.000 A 
ATOM     21  C   UNL     1      45.597   4.597   8.091  0.00  0.00    +0.000 A 
ENDBRANCH  14  15
ENDBRANCH   6  14
TORSDOF 4
ENDMDL
MODEL 4
REMARK VINA RESULT:    -5.949      3.457      6.413
REMARK INTER + INTRA:          -8.036
REMARK INTER:                  -7.477
REMARK INTRA:                  -0.559
REMARK UNBOUND:                -0.696
REMARK  Name = 
REMARK  6 active torsions:
REMARK  status: ('A' for Active; 'I' for Inactive)
REMARK    1  A    between atoms: C_1  and  O_2
REMARK    2  A    between atoms: O_2  and  C_3
REMARK    3  A    between atoms: N_8  and  C_9
REMARK    4  A    between atoms: C_9  and  C_10
REMARK    5  A    between atoms: C_19  and  O_20
REMARK    6  A    between atoms: O_20  and  C_21
REMARK                            x       y       z     vdW  Elec       q    Type
REMARK                         _______ _______ _______ _____ _____    ______ ____
ROOT
ATOM      1  C   UNL     1      44.807   2.975   9.505  0.00  0.00    +0.000 A 
ATOM      2  C   UNL     1      44.563   2.934  10.891  0.00  0.00    +0.000 A 
ATOM      3  C   UNL     1      44.727   4.093  11.680  0.00  0.00    +0.000 A 
ATOM      4  C   UNL     1      44.486   4.391  13.042  0.00  0.00    +0.000 A 
ATOM      5  C   UNL     1      44.773   5.721  13.233  0.00  0.00    +0.000 A 
ATOM      6  N   UNL     1      45.217   6.240  12.042  0.00  0.00    +0.000 N 
ATOM      7  C   UNL     1      45.214   5.253  11.073  0.00  0.00    +0.000 A 
ATOM      8  C   UNL     1      45.577   5.270   9.720  0.00  0.00    +0.000 A 
ATOM      9  C   UNL     1      45.353   4.129   8.926  0.00  0.00    +0.000 A 
ENDROOT
BRANCH   1  11
ATOM     10  C   UNL     1      45.670   1.056   8.411  0.00  0.00    +0.000 C 
ATOM     11  O   UNL     1      44.543   1.881   8.719  0.00  0.00    +0.000 OA
ENDBRANCH   1  11
BRANCH   9  12
ATOM     12  O   UNL     1      45.707   4.363   7.624  0.00  0.00    +0.000 OA
ATOM     13  C   UNL     1      46.978   3.946   7.154  0.00  0.00    +0.000 C 
ENDBRANCH   9  12
BRANCH   6  14
ATOM     14  C   UNL     1      45.525   7.650  11.827  0.00  0.00    +0.000 C 
BRANCH  14  15
ATOM     15  C   UNL     1      46.904   7.992  12.326  0.00  0.00    +0.000 A 
ATOM     16  C   UNL     1      48.044   7.480  11.686  0.00  0.00    +0.000 A 
ATOM     17  C   UNL     1      49.316   7.716  12.209  0.00  0.00    +0.000 A 
ATOM     18  C   UNL     1      49.459   8.469  13.375  0.00  0.00    +0.000 A 
ATOM     19 BR   UNL     1      51.172   8.723  14.124  0.00  0.00    +0.000 Br
ATOM     20  C   UNL     1      48.339   9.012  14.003  0.00  0.00    +0.000 A 
ATOM     21  C   UNL     1      47.067   8.777  13.478  0.00  0.00    +0.000 A 
ENDBRANCH  14  15
ENDBRANCH   6  14
TORSDOF 4
ENDMDL
MODEL 5
REMARK VINA RESULT:    -5.611      3.442      6.289
REMARK INTER + INTRA:          -7.619
REMARK INTER:                  -6.884
REMARK INTRA:                  -0.735
REMARK UNBOUND:                -0.696
REMARK  Name = 
REMARK  6 active torsions:
REMARK  status: ('A' for Active; 'I' for Inactive)
REMARK    1  A    between atoms: C_1  and  O_2
REMARK    2  A    between atoms: O_2  and  C_3
REMARK    3  A    between atoms: N_8  and  C_9
REMARK    4  A    between atoms: C_9  and  C_10
REMARK    5  A    between atoms: C_19  and  O_20
REMARK    6  A    between atoms: O_20  and  C_21
REMARK                            x       y       z     vdW  Elec       q    Type
REMARK                         _______ _______ _______ _____ _____    ______ ____
ROOT
ATOM      1  C   UNL     1      44.440   4.194  11.551  0.00  0.00    +0.000 A 
ATOM      2  C   UNL     1      43.882   5.390  11.060  0.00  0.00    +0.000 A 
ATOM      3  C   UNL     1      44.392   6.640  11.474  0.00  0.00    +0.000 A 
ATOM      4  C   UNL     1      44.115   7.978  11.109  0.00  0.00    +0.000 A 
ATOM      5  C   UNL     1      44.982   8.786  11.804  0.00  0.00    +0.000 A 
ATOM      6  N   UNL     1      45.758   7.990  12.610  0.00  0.00    +0.000 N 
ATOM      7  C   UNL     1      45.403   6.665  12.437  0.00  0.00    +0.000 A 
ATOM      8  C   UNL     1      45.881   5.485  13.023  0.00  0.00    +0.000 A 
ATOM      9  C   UNL     1      45.410   4.241  12.562  0.00  0.00    +0.000 A 
ENDROOT
BRANCH   1  11
ATOM     10  C   UNL     1      44.433   2.671   9.733  0.00  0.00    +0.000 C 
ATOM     11  O   UNL     1      44.020   2.980  11.067  0.00  0.00    +0.000 OA
ENDBRANCH   1  11
BRANCH   9  12
ATOM     12  O   UNL     1      46.042   3.210  13.206  0.00  0.00    +0.000 OA
ATOM     13  C   UNL     1      47.120   3.484  14.086  0.00  0.00    +0.000 C 
ENDBRANCH   9  12
BRANCH   6  14
ATOM     14  C   UNL     1      46.864   8.480  13.426  0.00  0.00    +0.000 C 
BRANCH  14  15
ATOM     15  C   UNL     1      48.125   8.618  12.614  0.00  0.00    +0.000 A 
ATOM     16  C   UNL     1      48.978   7.519  12.427  0.00  0.00    +0.000 A 
ATOM     17  C   UNL     1      50.194   7.672  11.760  0.00  0.00    +0.000 A 
ATOM     18  C   UNL     1      50.566   8.925  11.272  0.00  0.00    +0.000 A 
ATOM     19 BR   UNL     1      52.244   9.148  10.439  0.00  0.00    +0.000 Br
ATOM     20  C   UNL     1      49.714  10.019  11.421  0.00  0.00    +0.000 A 
ATOM     21  C   UNL     1      48.497   9.864  12.087  0.00  0.00    +0.000 A 
ENDBRANCH  14  15
ENDBRANCH   6  14
TORSDOF 4
ENDMDL
MODEL 6
REMARK VINA RESULT:    -5.309      4.701      7.814
REMARK INTER + INTRA:          -7.247
REMARK INTER:                  -6.586
REMARK INTRA:                  -0.661
REMARK UNBOUND:                -0.696
REMARK  Name = 
REMARK  6 active torsions:
REMARK  status: ('A' for Active; 'I' for Inactive)
REMARK    1  A    between atoms: C_1  and  O_2
REMARK    2  A    between atoms: O_2  and  C_3
REMARK    3  A    between atoms: N_8  and  C_9
REMARK    4  A    between atoms: C_9  and  C_10
REMARK    5  A    between atoms: C_19  and  O_20
REMARK    6  A    between atoms: O_20  and  C_21
REMARK                            x       y       z     vdW  Elec       q    Type
REMARK                         _______ _______ _______ _____ _____    ______ ____
ROOT
ATOM      1  C   UNL     1      45.315   4.305  12.975  0.00  0.00    +0.000 A 
ATOM      2  C   UNL     1      44.765   5.533  12.559  0.00  0.00    +0.000 A 
ATOM      3  C   UNL     1      45.501   6.729  12.700  0.00  0.00    +0.000 A 
ATOM      4  C   UNL     1      45.270   8.070  12.311  0.00  0.00    +0.000 A 
ATOM      5  C   UNL     1      46.381   8.800  12.658  0.00  0.00    +0.000 A 
ATOM      6  N   UNL     1      47.271   7.958  13.279  0.00  0.00    +0.000 N 
ATOM      7  C   UNL     1      46.745   6.680  13.332  0.00  0.00    +0.000 A 
ATOM      8  C   UNL     1      47.247   5.484  13.860  0.00  0.00    +0.000 A 
ATOM      9  C   UNL     1      46.537   4.285  13.662  0.00  0.00    +0.000 A 
ENDROOT
BRANCH   1  11
ATOM     10  C   UNL     1      43.440   3.245  11.983  0.00  0.00    +0.000 C 
ATOM     11  O   UNL     1      44.648   3.129  12.740  0.00  0.00    +0.000 OA
ENDBRANCH   1  11
BRANCH   9  12
ATOM     12  O   UNL     1      47.218   3.220  14.190  0.00  0.00    +0.000 OA
ATOM     13  C   UNL     1      47.696   3.280  15.523  0.00  0.00    +0.000 C 
ENDBRANCH   9  12
BRANCH   6  14
ATOM     14  C   UNL     1      48.611   8.351  13.702  0.00  0.00    +0.000 C 
BRANCH  14  15
ATOM     15  C   UNL     1      48.726   8.375  15.204  0.00  0.00    +0.000 A 
ATOM     16  C   UNL     1      49.459   7.387  15.880  0.00  0.00    +0.000 A 
ATOM     17  C   UNL     1      49.482   7.352  17.275  0.00  0.00    +0.000 A 
ATOM     18  C   UNL     1      48.776   8.308  18.005  0.00  0.00    +0.000 A 
ATOM     19 BR   UNL     1      48.745   8.216  19.890  0.00  0.00    +0.000 Br
ATOM     20  C   UNL     1      48.072   9.316  17.348  0.00  0.00    +0.000 A 
ATOM     21  C   UNL     1      48.050   9.350  15.952  0.00  0.00    +0.000 A 
ENDBRANCH  14  15
ENDBRANCH   6  14
TORSDOF 4
ENDMDL
MODEL 7
REMARK VINA RESULT:    -5.060      4.359      7.531
REMARK INTER + INTRA:          -6.939
REMARK INTER:                  -6.361
REMARK INTRA:                  -0.578
REMARK UNBOUND:                -0.696
REMARK  Name = 
REMARK  6 active torsions:
REMARK  status: ('A' for Active; 'I' for Inactive)
REMARK    1  A    between atoms: C_1  and  O_2
REMARK    2  A    between atoms: O_2  and  C_3
REMARK    3  A    between atoms: N_8  and  C_9
REMARK    4  A    between atoms: C_9  and  C_10
REMARK    5  A    between atoms: C_19  and  O_20
REMARK    6  A    between atoms: O_20  and  C_21
REMARK                            x       y       z     vdW  Elec       q    Type
REMARK                         _______ _______ _______ _____ _____    ______ ____
ROOT
ATOM      1  C   UNL     1      44.605   6.087  11.958  0.00  0.00    +0.000 A 
ATOM      2  C   UNL     1      44.977   7.446  11.967  0.00  0.00    +0.000 A 
ATOM      3  C   UNL     1      46.150   7.861  12.634  0.00  0.00    +0.000 A 
ATOM      4  C   UNL     1      46.822   9.101  12.750  0.00  0.00    +0.000 A 
ATOM      5  C   UNL     1      47.966   8.886  13.479  0.00  0.00    +0.000 A 
ATOM      6  N   UNL     1      48.001   7.563  13.844  0.00  0.00    +0.000 N 
ATOM      7  C   UNL     1      46.885   6.914  13.350  0.00  0.00    +0.000 A 
ATOM      8  C   UNL     1      46.457   5.583  13.450  0.00  0.00    +0.000 A 
ATOM      9  C   UNL     1      45.321   5.163  12.732  0.00  0.00    +0.000 A 
ENDROOT
BRANCH   1  11
ATOM     10  C   UNL     1      42.282   5.615  11.920  0.00  0.00    +0.000 C 
ATOM     11  O   UNL     1      43.528   5.666  11.220  0.00  0.00    +0.000 OA
ENDBRANCH   1  11
BRANCH   9  12
ATOM     12  O   UNL     1      45.103   3.821  12.903  0.00  0.00    +0.000 OA
ATOM     13  C   UNL     1      45.087   2.962  11.776  0.00  0.00    +0.000 C 
ENDBRANCH   9  12
BRANCH   6  14
ATOM     14  C   UNL     1      49.117   6.936  14.544  0.00  0.00    +0.000 C 
BRANCH  14  15
ATOM     15  C   UNL     1      48.811   6.751  16.008  0.00  0.00    +0.000 A 
ATOM     16  C   UNL     1      48.521   5.477  16.522  0.00  0.00    +0.000 A 
ATOM     17  C   UNL     1      48.140   5.322  17.856  0.00  0.00    +0.000 A 
ATOM     18  C   UNL     1      48.050   6.439  18.686  0.00  0.00    +0.000 A 
ATOM     19 BR   UNL     1      47.461   6.239  20.469  0.00  0.00    +0.000 Br
ATOM     20  C   UNL     1      48.367   7.706  18.199  0.00  0.00    +0.000 A 
ATOM     21  C   UNL     1      48.749   7.860  16.865  0.00  0.00    +0.000 A 
ENDBRANCH  14  15
ENDBRANCH   6  14
TORSDOF 4
ENDMDL
MODEL 8
REMARK VINA RESULT:    -5.043      3.959      6.134
REMARK INTER + INTRA:          -6.918
REMARK INTER:                  -6.473
REMARK INTRA:                  -0.445
REMARK UNBOUND:                -0.696
REMARK  Name = 
REMARK  6 active torsions:
REMARK  status: ('A' for Active; 'I' for Inactive)
REMARK    1  A    between atoms: C_1  and  O_2
REMARK    2  A    between atoms: O_2  and  C_3
REMARK    3  A    between atoms: N_8  and  C_9
REMARK    4  A    between atoms: C_9  and  C_10
REMARK    5  A    between atoms: C_19  and  O_20
REMARK    6  A    between atoms: O_20  and  C_21
REMARK                            x       y       z     vdW  Elec       q    Type
REMARK                         _______ _______ _______ _____ _____    ______ ____
ROOT
ATOM      1  C   UNL     1      45.612   4.397  12.680  0.00  0.00    +0.000 A 
ATOM      2  C   UNL     1      46.519   4.582  13.741  0.00  0.00    +0.000 A 
ATOM      3  C   UNL     1      47.342   5.728  13.786  0.00  0.00    +0.000 A 
ATOM      4  C   UNL     1      48.265   6.232  14.733  0.00  0.00    +0.000 A 
ATOM      5  C   UNL     1      48.723   7.439  14.263  0.00  0.00    +0.000 A 
ATOM      6  N   UNL     1      48.139   7.675  13.043  0.00  0.00    +0.000 N 
ATOM      7  C   UNL     1      47.297   6.627  12.719  0.00  0.00    +0.000 A 
ATOM      8  C   UNL     1      46.488   6.390  11.599  0.00  0.00    +0.000 A 
ATOM      9  C   UNL     1      45.625   5.278  11.589  0.00  0.00    +0.000 A 
ENDROOT
BRANCH   1  11
ATOM     10  C   UNL     1      43.358   3.686  12.874  0.00  0.00    +0.000 C 
ATOM     11  O   UNL     1      44.734   3.342  12.690  0.00  0.00    +0.000 OA
ENDBRANCH   1  11
BRANCH   9  12
ATOM     12  O   UNL     1      44.871   5.254  10.446  0.00  0.00    +0.000 OA
ATOM     13  C   UNL     1      45.295   4.477   9.338  0.00  0.00    +0.000 C 
ENDBRANCH   9  12
BRANCH   6  14
ATOM     14  C   UNL     1      48.306   8.907  12.279  0.00  0.00    +0.000 C 
BRANCH  14  15
ATOM     15  C   UNL     1      49.643   8.944  11.586  0.00  0.00    +0.000 A 
ATOM     16  C   UNL     1      50.316   7.755  11.266  0.00  0.00    +0.000 A 
ATOM     17  C   UNL     1      51.598   7.793  10.715  0.00  0.00    +0.000 A 
ATOM     18  C   UNL     1      52.215   9.021  10.475  0.00  0.00    +0.000 A 
ATOM     19 BR   UNL     1      53.977   9.071   9.801  0.00  0.00    +0.000 Br
ATOM     20  C   UNL     1      51.545  10.211  10.755  0.00  0.00    +0.000 A 
ATOM     21  C   UNL     1      50.263  10.172  11.305  0.00  0.00    +0.000 A 
ENDBRANCH  14  15
ENDBRANCH   6  14
TORSDOF 4
ENDMDL
MODEL 9
REMARK VINA RESULT:    -4.996      2.628      4.207
REMARK INTER + INTRA:          -6.861
REMARK INTER:                  -6.206
REMARK INTRA:                  -0.654
REMARK UNBOUND:                -0.696
REMARK  Name = 
REMARK  6 active torsions:
REMARK  status: ('A' for Active; 'I' for Inactive)
REMARK    1  A    between atoms: C_1  and  O_2
REMARK    2  A    between atoms: O_2  and  C_3
REMARK    3  A    between atoms: N_8  and  C_9
REMARK    4  A    between atoms: C_9  and  C_10
REMARK    5  A    between atoms: C_19  and  O_20
REMARK    6  A    between atoms: O_20  and  C_21
REMARK                            x       y       z     vdW  Elec       q    Type
REMARK                         _______ _______ _______ _____ _____    ______ ____
ROOT
ATOM      1  C   UNL     1      49.352   6.963  14.965  0.00  0.00    +0.000 A 
ATOM      2  C   UNL     1      49.107   7.975  14.017  0.00  0.00    +0.000 A 
ATOM      3  C   UNL     1      47.891   8.003  13.300  0.00  0.00    +0.000 A 
ATOM      4  C   UNL     1      47.324   8.909  12.372  0.00  0.00    +0.000 A 
ATOM      5  C   UNL     1      46.070   8.446  12.054  0.00  0.00    +0.000 A 
ATOM      6  N   UNL     1      45.863   7.268  12.729  0.00  0.00    +0.000 N 
ATOM      7  C   UNL     1      46.977   6.965  13.490  0.00  0.00    +0.000 A 
ATOM      8  C   UNL     1      47.264   5.888  14.339  0.00  0.00    +0.000 A 
ATOM      9  C   UNL     1      48.451   5.898  15.096  0.00  0.00    +0.000 A 
ENDROOT
BRANCH   1  11
ATOM     10  C   UNL     1      50.342   7.637  17.012  0.00  0.00    +0.000 C 
ATOM     11  O   UNL     1      50.483   6.996  15.740  0.00  0.00    +0.000 OA
ENDBRANCH   1  11
BRANCH   9  12
ATOM     12  O   UNL     1      48.519   4.799  15.912  0.00  0.00    +0.000 OA
ATOM     13  C   UNL     1      47.813   4.789  17.141  0.00  0.00    +0.000 C 
ENDBRANCH   9  12
BRANCH   6  14
ATOM     14  C   UNL     1      44.605   6.529  12.720  0.00  0.00    +0.000 C 
BRANCH  14  15
ATOM     15  C   UNL     1      44.634   5.409  11.713  0.00  0.00    +0.000 A 
ATOM     16  C   UNL     1      44.125   4.142  12.039  0.00  0.00    +0.000 A 
ATOM     17  C   UNL     1      44.243   3.080  11.142  0.00  0.00    +0.000 A 
ATOM     18  C   UNL     1      44.868   3.277   9.910  0.00  0.00    +0.000 A 
ATOM     19 BR   UNL     1      45.095   1.823   8.729  0.00  0.00    +0.000 Br
ATOM     20  C   UNL     1      45.347   4.538   9.558  0.00  0.00    +0.000 A 
ATOM     21  C   UNL     1      45.228   5.600  10.456  0.00  0.00    +0.000 A 
ENDBRANCH  14  15
ENDBRANCH   6  14
TORSDOF 4
ENDMDL
