MODEL 1
REMARK VINA RESULT:    -7.087      0.000      0.000
REMARK INTER + INTRA:         -11.758
REMARK INTER:                 -10.816
REMARK INTRA:                  -0.942
REMARK UNBOUND:                -0.942
REMARK  Name = 
REMARK  10 active torsions:
REMARK  status: ('A' for Active; 'I' for Inactive)
REMARK    1  A    between atoms: C_1  and  C_2
REMARK    2  A    between atoms: C_2  and  C_3
REMARK    3  A    between atoms: C_3  and  N_4
REMARK    4  A    between atoms: C_3  and  C_20
REMARK    5  A    between atoms: N_4  and  C_5
REMARK    6  A    between atoms: C_5  and  C_6
REMARK    7  A    between atoms: C_9  and  C_10
REMARK    8  A    between atoms: C_10  and  N_11
REMARK    9  A    between atoms: N_11  and  C_12
REMARK   10  A    between atoms: C_12  and  C_13
REMARK                            x       y       z     vdW  Elec       q    Type
REMARK                         _______ _______ _______ _____ _____    ______ ____
ROOT
ATOM      1  C   UNL     1      47.629   3.595  15.496  0.00  0.00    +0.000 C 
ENDROOT
BRANCH   1   2
ATOM      2  C   UNL     1      46.942   4.501  14.476  0.00  0.00    +0.000 A 
ATOM      3  N   UNL     1      47.628   5.564  14.001  0.00  0.00    +0.000 NA
ATOM      4  C   UNL     1      47.100   6.196  12.929  0.00  0.00    +0.000 A 
ATOM      5  C   UNL     1      45.933   5.820  12.296  0.00  0.00    +0.000 A 
ATOM      6  C   UNL     1      45.274   4.766  12.914  0.00  0.00    +0.000 A 
ATOM      7  N   UNL     1      45.745   4.098  13.992  0.00  0.00    +0.000 NA
BRANCH   5   8
ATOM      8  C   UNL     1      45.445   6.466  11.041  0.00  0.00    +0.000 C 
BRANCH   8   9
ATOM      9  N   UNL     1      44.797   5.486  10.164  0.00  0.00    +0.000 NA
ATOM     10  H   UNL     1      44.050   5.946   9.641  0.00  0.00    +0.000 HD
BRANCH   9  11
ATOM     11  C   UNL     1      45.739   4.886   9.206  0.00  0.00    +0.000 C 
BRANCH  11  12
ATOM     12  C   UNL     1      44.978   3.998   8.183  0.00  0.00    +0.000 C 
ATOM     13  C   UNL     1      45.892   3.296   7.191  0.00  0.00    +0.000 C 
ATOM     14  C   UNL     1      46.337   2.051   7.933  0.00  0.00    +0.000 C 
ATOM     15  C   UNL     1      45.193   1.745   8.890  0.00  0.00    +0.000 C 
ATOM     16  N   UNL     1      44.268   2.881   8.828  0.00  0.00    +0.000 NA
ATOM     17  H   UNL     1      43.992   3.171   9.769  0.00  0.00    +0.000 HD
ENDBRANCH  11  12
ENDBRANCH   9  11
ENDBRANCH   8   9
ENDBRANCH   5   8
ENDBRANCH   1   2
BRANCH   1  18
ATOM     18  N   UNL     1      48.656   4.243  16.322  0.00  0.00    +0.000 NA
ATOM     19  H   UNL     1      48.398   5.212  16.487  0.00  0.00    +0.000 HD
BRANCH  18  20
ATOM     20  C   UNL     1      48.926   3.544  17.594  0.00  0.00    +0.000 C 
BRANCH  20  21
ATOM     21  C   UNL     1      50.335   3.005  17.424  0.00  0.00    +0.000 A 
ATOM     22  C   UNL     1      50.683   1.670  17.279  0.00  0.00    +0.000 A 
ATOM     23  S   UNL     1      52.319   1.366  17.683  0.00  0.00    +0.000 S 
ATOM     24  C   UNL     1      52.619   3.022  17.938  0.00  0.00    +0.000 A 
ATOM     25  N   UNL     1      53.804   3.465  18.437  0.00  0.00    +0.000 NA
ATOM     26  C   UNL     1      53.898   4.753  18.498  0.00  0.00    +0.000 A 
ATOM     27  N   UNL     1      52.943   5.634  18.056  0.00  0.00    +0.000 N 
ATOM     28  C   UNL     1      51.739   5.232  17.531  0.00  0.00    +0.000 A 
ATOM     29  O   UNL     1      50.954   6.026  17.019  0.00  0.00    +0.000 OA
ATOM     30  C   UNL     1      51.534   3.794  17.569  0.00  0.00    +0.000 A 
ATOM     31  H   UNL     1      53.132   6.624  18.026  0.00  0.00    +0.000 HD
ENDBRANCH  20  21
BRANCH  20  33
ATOM     32  C   UNL     1      47.571   5.421  18.823  0.00  0.00    +0.000 C 
ATOM     33  C   UNL     1      48.656   4.355  18.879  0.00  0.00    +0.000 C 
ENDBRANCH  20  33
ENDBRANCH  18  20
ENDBRANCH   1  18
TORSDOF 9
ENDMDL
MODEL 2
REMARK VINA RESULT:    -7.075      2.209      3.173
REMARK INTER + INTRA:         -11.740
REMARK INTER:                 -10.839
REMARK INTRA:                  -0.901
REMARK UNBOUND:                -0.942
REMARK  Name = 
REMARK  10 active torsions:
REMARK  status: ('A' for Active; 'I' for Inactive)
REMARK    1  A    between atoms: C_1  and  C_2
REMARK    2  A    between atoms: C_2  and  C_3
REMARK    3  A    between atoms: C_3  and  N_4
REMARK    4  A    between atoms: C_3  and  C_20
REMARK    5  A    between atoms: N_4  and  C_5
REMARK    6  A    between atoms: C_5  and  C_6
REMARK    7  A    between atoms: C_9  and  C_10
REMARK    8  A    between atoms: C_10  and  N_11
REMARK    9  A    between atoms: N_11  and  C_12
REMARK   10  A    between atoms: C_12  and  C_13
REMARK                            x       y       z     vdW  Elec       q    Type
REMARK                         _______ _______ _______ _____ _____    ______ ____
ROOT
ATOM      1  C   UNL     1      48.736   7.046  13.371  0.00  0.00    +0.000 C 
ENDROOT
BRANCH   1   2
ATOM      2  C   UNL     1      47.438   6.242  13.416  0.00  0.00    +0.000 A 
ATOM      3  N   UNL     1      46.289   6.863  13.068  0.00  0.00    +0.000 NA
ATOM      4  C   UNL     1      45.208   6.074  12.877  0.00  0.00    +0.000 A 
ATOM      5  C   UNL     1      45.211   4.700  13.003  0.00  0.00    +0.000 A 
ATOM      6  C   UNL     1      46.420   4.178  13.439  0.00  0.00    +0.000 A 
ATOM      7  N   UNL     1      47.535   4.915  13.655  0.00  0.00    +0.000 NA
BRANCH   5   8
ATOM      8  C   UNL     1      44.028   3.851  12.666  0.00  0.00    +0.000 C 
BRANCH   8   9
ATOM      9  N   UNL     1      44.409   2.754  11.771  0.00  0.00    +0.000 NA
ATOM     10  H   UNL     1      43.569   2.253  11.478  0.00  0.00    +0.000 HD
BRANCH   9  11
ATOM     11  C   UNL     1      45.111   3.232  10.570  0.00  0.00    +0.000 C 
BRANCH  11  12
ATOM     12  C   UNL     1      44.550   2.533   9.300  0.00  0.00    +0.000 C 
ATOM     13  C   UNL     1      44.656   3.380   8.043  0.00  0.00    +0.000 C 
ATOM     14  C   UNL     1      46.067   3.123   7.555  0.00  0.00    +0.000 C 
ATOM     15  C   UNL     1      46.397   1.722   8.053  0.00  0.00    +0.000 C 
ATOM     16  N   UNL     1      45.306   1.320   8.947  0.00  0.00    +0.000 NA
ATOM     17  H   UNL     1      45.680   0.908   9.806  0.00  0.00    +0.000 HD
ENDBRANCH  11  12
ENDBRANCH   9  11
ENDBRANCH   8   9
ENDBRANCH   5   8
ENDBRANCH   1   2
BRANCH   1  18
ATOM     18  N   UNL     1      49.702   6.744  14.435  0.00  0.00    +0.000 NA
ATOM     19  H   UNL     1      50.598   7.169  14.210  0.00  0.00    +0.000 HD
BRANCH  18  20
ATOM     20  C   UNL     1      49.250   7.145  15.782  0.00  0.00    +0.000 C 
BRANCH  20  21
ATOM     21  C   UNL     1      50.120   6.325  16.718  0.00  0.00    +0.000 A 
ATOM     22  C   UNL     1      51.368   6.691  17.199  0.00  0.00    +0.000 A 
ATOM     23  S   UNL     1      52.292   5.351  17.730  0.00  0.00    +0.000 S 
ATOM     24  C   UNL     1      51.000   4.281  17.444  0.00  0.00    +0.000 A 
ATOM     25  N   UNL     1      51.147   2.934  17.564  0.00  0.00    +0.000 NA
ATOM     26  C   UNL     1      50.053   2.269  17.387  0.00  0.00    +0.000 A 
ATOM     27  N   UNL     1      48.821   2.827  17.157  0.00  0.00    +0.000 N 
ATOM     28  C   UNL     1      48.622   4.181  17.043  0.00  0.00    +0.000 A 
ATOM     29  O   UNL     1      47.498   4.671  16.970  0.00  0.00    +0.000 OA
ATOM     30  C   UNL     1      49.847   4.961  17.100  0.00  0.00    +0.000 A 
ATOM     31  H   UNL     1      47.991   2.254  17.144  0.00  0.00    +0.000 HD
ENDBRANCH  20  21
BRANCH  20  33
ATOM     32  C   UNL     1      48.225   9.158  17.111  0.00  0.00    +0.000 C 
ATOM     33  C   UNL     1      49.200   8.664  16.052  0.00  0.00    +0.000 C 
ENDBRANCH  20  33
ENDBRANCH  18  20
ENDBRANCH   1  18
TORSDOF 9
ENDMDL
MODEL 3
REMARK VINA RESULT:    -7.026      2.817      3.753
REMARK INTER + INTRA:         -11.665
REMARK INTER:                 -10.733
REMARK INTRA:                  -0.932
REMARK UNBOUND:                -0.942
REMARK  Name = 
REMARK  10 active torsions:
REMARK  status: ('A' for Active; 'I' for Inactive)
REMARK    1  A    between atoms: C_1  and  C_2
REMARK    2  A    between atoms: C_2  and  C_3
REMARK    3  A    between atoms: C_3  and  N_4
REMARK    4  A    between atoms: C_3  and  C_20
REMARK    5  A    between atoms: N_4  and  C_5
REMARK    6  A    between atoms: C_5  and  C_6
REMARK    7  A    between atoms: C_9  and  C_10
REMARK    8  A    between atoms: C_10  and  N_11
REMARK    9  A    between atoms: N_11  and  C_12
REMARK   10  A    between atoms: C_12  and  C_13
REMARK                            x       y       z     vdW  Elec       q    Type
REMARK                         _______ _______ _______ _____ _____    ______ ____
ROOT
ATOM      1  C   UNL     1      47.441   4.914  14.358  0.00  0.00    +0.000 C 
ENDROOT
BRANCH   1   2
ATOM      2  C   UNL     1      46.276   4.751  13.384  0.00  0.00    +0.000 A 
ATOM      3  N   UNL     1      45.753   5.864  12.822  0.00  0.00    +0.000 NA
ATOM      4  C   UNL     1      44.903   5.678  11.788  0.00  0.00    +0.000 A 
ATOM      5  C   UNL     1      44.552   4.445  11.276  0.00  0.00    +0.000 A 
ATOM      6  C   UNL     1      45.085   3.373  11.978  0.00  0.00    +0.000 A 
ATOM      7  N   UNL     1      45.936   3.493  13.024  0.00  0.00    +0.000 NA
BRANCH   5   8
ATOM      8  C   UNL     1      43.705   4.283  10.056  0.00  0.00    +0.000 C 
BRANCH   8   9
ATOM      9  N   UNL     1      44.485   4.529   8.840  0.00  0.00    +0.000 NA
ATOM     10  H   UNL     1      45.337   5.036   9.084  0.00  0.00    +0.000 HD
BRANCH   9  11
ATOM     11  C   UNL     1      44.864   3.280   8.159  0.00  0.00    +0.000 C 
BRANCH  11  12
ATOM     12  C   UNL     1      46.406   3.205   7.982  0.00  0.00    +0.000 C 
ATOM     13  C   UNL     1      46.906   1.825   7.591  0.00  0.00    +0.000 C 
ATOM     14  C   UNL     1      46.738   1.797   6.084  0.00  0.00    +0.000 C 
ATOM     15  C   UNL     1      46.865   3.252   5.657  0.00  0.00    +0.000 C 
ATOM     16  N   UNL     1      46.887   4.057   6.882  0.00  0.00    +0.000 NA
ATOM     17  H   UNL     1      46.260   4.861   6.795  0.00  0.00    +0.000 HD
ENDBRANCH  11  12
ENDBRANCH   9  11
ENDBRANCH   8   9
ENDBRANCH   5   8
ENDBRANCH   1   2
BRANCH   1  18
ATOM     18  N   UNL     1      47.122   4.668  15.770  0.00  0.00    +0.000 NA
ATOM     19  H   UNL     1      46.401   3.955  15.836  0.00  0.00    +0.000 HD
BRANCH  18  20
ATOM     20  C   UNL     1      48.294   4.312  16.593  0.00  0.00    +0.000 C 
BRANCH  20  21
ATOM     21  C   UNL     1      48.347   5.405  17.646  0.00  0.00    +0.000 A 
ATOM     22  C   UNL     1      47.854   5.313  18.939  0.00  0.00    +0.000 A 
ATOM     23  S   UNL     1      47.555   6.845  19.644  0.00  0.00    +0.000 S 
ATOM     24  C   UNL     1      48.193   7.651  18.288  0.00  0.00    +0.000 A 
ATOM     25  N   UNL     1      48.128   9.004  18.164  0.00  0.00    +0.000 NA
ATOM     26  C   UNL     1      48.725   9.465  17.114  0.00  0.00    +0.000 A 
ATOM     27  N   UNL     1      49.424   8.705  16.210  0.00  0.00    +0.000 N 
ATOM     28  C   UNL     1      49.529   7.339  16.302  0.00  0.00    +0.000 A 
ATOM     29  O   UNL     1      50.266   6.690  15.563  0.00  0.00    +0.000 OA
ATOM     30  C   UNL     1      48.760   6.764  17.392  0.00  0.00    +0.000 A 
ATOM     31  H   UNL     1      49.963   9.143  15.478  0.00  0.00    +0.000 HD
ENDBRANCH  20  21
BRANCH  20  33
ATOM     32  C   UNL     1      49.654   2.107  16.989  0.00  0.00    +0.000 C 
ATOM     33  C   UNL     1      48.337   2.861  17.114  0.00  0.00    +0.000 C 
ENDBRANCH  20  33
ENDBRANCH  18  20
ENDBRANCH   1  18
TORSDOF 9
ENDMDL
MODEL 4
REMARK VINA RESULT:    -6.901      2.073      3.092
REMARK INTER + INTRA:         -11.474
REMARK INTER:                 -10.300
REMARK INTRA:                  -1.175
REMARK UNBOUND:                -0.942
REMARK  Name = 
REMARK  10 active torsions:
REMARK  status: ('A' for Active; 'I' for Inactive)
REMARK    1  A    between atoms: C_1  and  C_2
REMARK    2  A    between atoms: C_2  and  C_3
REMARK    3  A    between atoms: C_3  and  N_4
REMARK    4  A    between atoms: C_3  and  C_20
REMARK    5  A    between atoms: N_4  and  C_5
REMARK    6  A    between atoms: C_5  and  C_6
REMARK    7  A    between atoms: C_9  and  C_10
REMARK    8  A    between atoms: C_10  and  N_11
REMARK    9  A    between atoms: N_11  and  C_12
REMARK   10  A    between atoms: C_12  and  C_13
REMARK                            x       y       z     vdW  Elec       q    Type
REMARK                         _______ _______ _______ _____ _____    ______ ____
ROOT
ATOM      1  C   UNL     1      49.381   7.098  14.818  0.00  0.00    +0.000 C 
ENDROOT
BRANCH   1   2
ATOM      2  C   UNL     1      48.019   6.741  14.226  0.00  0.00    +0.000 A 
ATOM      3  N   UNL     1      47.304   7.722  13.631  0.00  0.00    +0.000 NA
ATOM      4  C   UNL     1      46.232   7.334  12.904  0.00  0.00    +0.000 A 
ATOM      5  C   UNL     1      45.840   6.023  12.727  0.00  0.00    +0.000 A 
ATOM      6  C   UNL     1      46.598   5.109  13.444  0.00  0.00    +0.000 A 
ATOM      7  N   UNL     1      47.677   5.433  14.194  0.00  0.00    +0.000 NA
BRANCH   5   8
ATOM      8  C   UNL     1      44.723   5.625  11.818  0.00  0.00    +0.000 C 
BRANCH   8   9
ATOM      9  N   UNL     1      45.230   4.895  10.653  0.00  0.00    +0.000 NA
ATOM     10  H   UNL     1      46.238   5.040  10.579  0.00  0.00    +0.000 HD
BRANCH   9  11
ATOM     11  C   UNL     1      44.971   3.449  10.746  0.00  0.00    +0.000 C 
BRANCH  11  12
ATOM     12  C   UNL     1      44.344   2.926   9.424  0.00  0.00    +0.000 C 
ATOM     13  C   UNL     1      44.823   3.670   8.188  0.00  0.00    +0.000 C 
ATOM     14  C   UNL     1      46.126   2.979   7.837  0.00  0.00    +0.000 C 
ATOM     15  C   UNL     1      45.959   1.557   8.356  0.00  0.00    +0.000 C 
ATOM     16  N   UNL     1      44.719   1.531   9.138  0.00  0.00    +0.000 NA
ATOM     17  H   UNL     1      44.864   1.045  10.026  0.00  0.00    +0.000 HD
ENDBRANCH  11  12
ENDBRANCH   9  11
ENDBRANCH   8   9
ENDBRANCH   5   8
ENDBRANCH   1   2
BRANCH   1  18
ATOM     18  N   UNL     1      49.344   7.923  16.032  0.00  0.00    +0.000 NA
ATOM     19  H   UNL     1      48.947   8.833  15.813  0.00  0.00    +0.000 HD
BRANCH  18  20
ATOM     20  C   UNL     1      48.627   7.293  17.159  0.00  0.00    +0.000 C 
BRANCH  20  21
ATOM     21  C   UNL     1      49.541   6.157  17.583  0.00  0.00    +0.000 A 
ATOM     22  C   UNL     1      50.881   6.274  17.922  0.00  0.00    +0.000 A 
ATOM     23  S   UNL     1      51.730   4.793  17.786  0.00  0.00    +0.000 S 
ATOM     24  C   UNL     1      50.303   3.951  17.395  0.00  0.00    +0.000 A 
ATOM     25  N   UNL     1      50.325   2.644  17.020  0.00  0.00    +0.000 NA
ATOM     26  C   UNL     1      49.152   2.133  16.831  0.00  0.00    +0.000 A 
ATOM     27  N   UNL     1      47.965   2.791  17.035  0.00  0.00    +0.000 N 
ATOM     28  C   UNL     1      47.895   4.105  17.428  0.00  0.00    +0.000 A 
ATOM     29  O   UNL     1      46.831   4.638  17.734  0.00  0.00    +0.000 OA
ATOM     30  C   UNL     1      49.189   4.759  17.521  0.00  0.00    +0.000 A 
ATOM     31  H   UNL     1      47.087   2.297  16.981  0.00  0.00    +0.000 HD
ENDBRANCH  20  21
BRANCH  20  33
ATOM     32  C   UNL     1      47.804   7.630  19.624  0.00  0.00    +0.000 C 
ATOM     33  C   UNL     1      48.159   8.246  18.278  0.00  0.00    +0.000 C 
ENDBRANCH  20  33
ENDBRANCH  18  20
ENDBRANCH   1  18
TORSDOF 9
ENDMDL
MODEL 5
REMARK VINA RESULT:    -6.894      1.713      2.392
REMARK INTER + INTRA:         -11.463
REMARK INTER:                 -10.582
REMARK INTRA:                  -0.881
REMARK UNBOUND:                -0.942
REMARK  Name = 
REMARK  10 active torsions:
REMARK  status: ('A' for Active; 'I' for Inactive)
REMARK    1  A    between atoms: C_1  and  C_2
REMARK    2  A    between atoms: C_2  and  C_3
REMARK    3  A    between atoms: C_3  and  N_4
REMARK    4  A    between atoms: C_3  and  C_20
REMARK    5  A    between atoms: N_4  and  C_5
REMARK    6  A    between atoms: C_5  and  C_6
REMARK    7  A    between atoms: C_9  and  C_10
REMARK    8  A    between atoms: C_10  and  N_11
REMARK    9  A    between atoms: N_11  and  C_12
REMARK   10  A    between atoms: C_12  and  C_13
REMARK                            x       y       z     vdW  Elec       q    Type
REMARK                         _______ _______ _______ _____ _____    ______ ____
ROOT
ATOM      1  C   UNL     1      47.566   4.533  15.793  0.00  0.00    +0.000 C 
ENDROOT
BRANCH   1   2
ATOM      2  C   UNL     1      47.055   4.837  14.387  0.00  0.00    +0.000 A 
ATOM      3  N   UNL     1      45.890   4.273  13.994  0.00  0.00    +0.000 NA
ATOM      4  C   UNL     1      45.340   4.750  12.856  0.00  0.00    +0.000 A 
ATOM      5  C   UNL     1      45.879   5.765  12.092  0.00  0.00    +0.000 A 
ATOM      6  C   UNL     1      47.111   6.215  12.545  0.00  0.00    +0.000 A 
ATOM      7  N   UNL     1      47.717   5.774  13.672  0.00  0.00    +0.000 NA
BRANCH   5   8
ATOM      8  C   UNL     1      45.181   6.348  10.907  0.00  0.00    +0.000 C 
BRANCH   8   9
ATOM      9  N   UNL     1      44.637   5.292  10.047  0.00  0.00    +0.000 NA
ATOM     10  H   UNL     1      43.819   5.650   9.553  0.00  0.00    +0.000 HD
BRANCH   9  11
ATOM     11  C   UNL     1      45.616   4.824   9.053  0.00  0.00    +0.000 C 
BRANCH  11  12
ATOM     12  C   UNL     1      44.940   3.859   8.040  0.00  0.00    +0.000 C 
ATOM     13  C   UNL     1      45.911   3.244   7.046  0.00  0.00    +0.000 C 
ATOM     14  C   UNL     1      46.480   2.053   7.792  0.00  0.00    +0.000 C 
ATOM     15  C   UNL     1      45.378   1.643   8.758  0.00  0.00    +0.000 C 
ATOM     16  N   UNL     1      44.346   2.683   8.695  0.00  0.00    +0.000 NA
ATOM     17  H   UNL     1      44.049   2.950   9.637  0.00  0.00    +0.000 HD
ENDBRANCH  11  12
ENDBRANCH   9  11
ENDBRANCH   8   9
ENDBRANCH   5   8
ENDBRANCH   1   2
BRANCH   1  18
ATOM     18  N   UNL     1      48.889   5.081  16.115  0.00  0.00    +0.000 NA
ATOM     19  H   UNL     1      49.162   5.752  15.402  0.00  0.00    +0.000 HD
BRANCH  18  20
ATOM     20  C   UNL     1      48.976   5.679  17.462  0.00  0.00    +0.000 C 
BRANCH  20  21
ATOM     21  C   UNL     1      50.294   5.161  18.008  0.00  0.00    +0.000 A 
ATOM     22  C   UNL     1      51.361   5.940  18.431  0.00  0.00    +0.000 A 
ATOM     23  S   UNL     1      52.845   5.085  18.433  0.00  0.00    +0.000 S 
ATOM     24  C   UNL     1      52.070   3.635  17.991  0.00  0.00    +0.000 A 
ATOM     25  N   UNL     1      52.774   2.512  17.689  0.00  0.00    +0.000 NA
ATOM     26  C   UNL     1      52.035   1.479  17.449  0.00  0.00    +0.000 A 
ATOM     27  N   UNL     1      50.665   1.453  17.536  0.00  0.00    +0.000 N 
ATOM     28  C   UNL     1      49.914   2.559  17.852  0.00  0.00    +0.000 A 
ATOM     29  O   UNL     1      48.705   2.489  18.056  0.00  0.00    +0.000 OA
ATOM     30  C   UNL     1      50.695   3.775  17.997  0.00  0.00    +0.000 A 
ATOM     31  H   UNL     1      50.161   0.584  17.449  0.00  0.00    +0.000 HD
ENDBRANCH  20  21
BRANCH  20  33
ATOM     32  C   UNL     1      49.084   8.024  16.296  0.00  0.00    +0.000 C 
ATOM     33  C   UNL     1      48.758   7.204  17.538  0.00  0.00    +0.000 C 
ENDBRANCH  20  33
ENDBRANCH  18  20
ENDBRANCH   1  18
TORSDOF 9
ENDMDL
MODEL 6
REMARK VINA RESULT:    -6.865      2.556      3.597
REMARK INTER + INTRA:         -11.419
REMARK INTER:                 -10.486
REMARK INTRA:                  -0.933
REMARK UNBOUND:                -0.942
REMARK  Name = 
REMARK  10 active torsions:
REMARK  status: ('A' for Active; 'I' for Inactive)
REMARK    1  A    between atoms: C_1  and  C_2
REMARK    2  A    between atoms: C_2  and  C_3
REMARK    3  A    between atoms: C_3  and  N_4
REMARK    4  A    between atoms: C_3  and  C_20
REMARK    5  A    between atoms: N_4  and  C_5
REMARK    6  A    between atoms: C_5  and  C_6
REMARK    7  A    between atoms: C_9  and  C_10
REMARK    8  A    between atoms: C_10  and  N_11
REMARK    9  A    between atoms: N_11  and  C_12
REMARK   10  A    between atoms: C_12  and  C_13
REMARK                            x       y       z     vdW  Elec       q    Type
REMARK                         _______ _______ _______ _____ _____    ______ ____
ROOT
ATOM      1  C   UNL     1      47.449   5.487  14.316  0.00  0.00    +0.000 C 
ENDROOT
BRANCH   1   2
ATOM      2  C   UNL     1      46.343   5.161  13.315  0.00  0.00    +0.000 A 
ATOM      3  N   UNL     1      46.140   6.015  12.287  0.00  0.00    +0.000 NA
ATOM      4  C   UNL     1      45.336   5.583  11.290  0.00  0.00    +0.000 A 
ATOM      5  C   UNL     1      44.733   4.342  11.255  0.00  0.00    +0.000 A 
ATOM      6  C   UNL     1      44.947   3.580  12.394  0.00  0.00    +0.000 A 
ATOM      7  N   UNL     1      45.734   3.959  13.429  0.00  0.00    +0.000 NA
BRANCH   5   8
ATOM      8  C   UNL     1      43.950   3.853  10.080  0.00  0.00    +0.000 C 
BRANCH   8   9
ATOM      9  N   UNL     1      44.746   2.926   9.269  0.00  0.00    +0.000 NA
ATOM     10  H   UNL     1      44.244   2.041   9.181  0.00  0.00    +0.000 HD
BRANCH   9  11
ATOM     11  C   UNL     1      45.010   3.451   7.920  0.00  0.00    +0.000 C 
BRANCH  11  12
ATOM     12  C   UNL     1      46.539   3.505   7.649  0.00  0.00    +0.000 C 
ATOM     13  C   UNL     1      47.189   2.134   7.562  0.00  0.00    +0.000 C 
ATOM     14  C   UNL     1      46.955   1.717   6.124  0.00  0.00    +0.000 C 
ATOM     15  C   UNL     1      46.878   3.027   5.352  0.00  0.00    +0.000 C 
ATOM     16  N   UNL     1      46.857   4.107   6.344  0.00  0.00    +0.000 NA
ATOM     17  H   UNL     1      46.131   4.790   6.115  0.00  0.00    +0.000 HD
ENDBRANCH  11  12
ENDBRANCH   9  11
ENDBRANCH   8   9
ENDBRANCH   5   8
ENDBRANCH   1   2
BRANCH   1  18
ATOM     18  N   UNL     1      47.283   4.900  15.652  0.00  0.00    +0.000 NA
ATOM     19  H   UNL     1      46.575   4.172  15.618  0.00  0.00    +0.000 HD
BRANCH  18  20
ATOM     20  C   UNL     1      48.538   4.390  16.240  0.00  0.00    +0.000 C 
BRANCH  20  21
ATOM     21  C   UNL     1      49.062   5.558  17.056  0.00  0.00    +0.000 A 
ATOM     22  C   UNL     1      50.176   6.326  16.754  0.00  0.00    +0.000 A 
ATOM     23  S   UNL     1      50.806   7.144  18.120  0.00  0.00    +0.000 S 
ATOM     24  C   UNL     1      49.535   6.587  19.105  0.00  0.00    +0.000 A 
ATOM     25  N   UNL     1      49.521   6.807  20.447  0.00  0.00    +0.000 NA
ATOM     26  C   UNL     1      48.450   6.386  21.036  0.00  0.00    +0.000 A 
ATOM     27  N   UNL     1      47.374   5.818  20.402  0.00  0.00    +0.000 N 
ATOM     28  C   UNL     1      47.337   5.590  19.048  0.00  0.00    +0.000 A 
ATOM     29  O   UNL     1      46.319   5.205  18.479  0.00  0.00    +0.000 OA
ATOM     30  C   UNL     1      48.575   5.923  18.364  0.00  0.00    +0.000 A 
ATOM     31  H   UNL     1      46.524   5.620  20.908  0.00  0.00    +0.000 HD
ENDBRANCH  20  21
BRANCH  20  33
ATOM     32  C   UNL     1      49.731   2.274  17.223  0.00  0.00    +0.000 C 
ATOM     33  C   UNL     1      48.437   3.036  16.973  0.00  0.00    +0.000 C 
ENDBRANCH  20  33
ENDBRANCH  18  20
ENDBRANCH   1  18
TORSDOF 9
ENDMDL
MODEL 7
REMARK VINA RESULT:    -6.801      1.975      3.456
REMARK INTER + INTRA:         -11.321
REMARK INTER:                 -10.018
REMARK INTRA:                  -1.304
REMARK UNBOUND:                -0.942
REMARK  Name = 
REMARK  10 active torsions:
REMARK  status: ('A' for Active; 'I' for Inactive)
REMARK    1  A    between atoms: C_1  and  C_2
REMARK    2  A    between atoms: C_2  and  C_3
REMARK    3  A    between atoms: C_3  and  N_4
REMARK    4  A    between atoms: C_3  and  C_20
REMARK    5  A    between atoms: N_4  and  C_5
REMARK    6  A    between atoms: C_5  and  C_6
REMARK    7  A    between atoms: C_9  and  C_10
REMARK    8  A    between atoms: C_10  and  N_11
REMARK    9  A    between atoms: N_11  and  C_12
REMARK   10  A    between atoms: C_12  and  C_13
REMARK                            x       y       z     vdW  Elec       q    Type
REMARK                         _______ _______ _______ _____ _____    ______ ____
ROOT
ATOM      1  C   UNL     1      49.527   7.555  14.923  0.00  0.00    +0.000 C 
ENDROOT
BRANCH   1   2
ATOM      2  C   UNL     1      48.353   6.922  14.180  0.00  0.00    +0.000 A 
ATOM      3  N   UNL     1      48.061   5.626  14.431  0.00  0.00    +0.000 NA
ATOM      4  C   UNL     1      46.882   5.167  13.957  0.00  0.00    +0.000 A 
ATOM      5  C   UNL     1      45.970   5.931  13.257  0.00  0.00    +0.000 A 
ATOM      6  C   UNL     1      46.406   7.221  12.990  0.00  0.00    +0.000 A 
ATOM      7  N   UNL     1      47.578   7.737  13.430  0.00  0.00    +0.000 NA
BRANCH   5   8
ATOM      8  C   UNL     1      44.624   5.423  12.855  0.00  0.00    +0.000 C 
BRANCH   8   9
ATOM      9  N   UNL     1      44.731   4.118  12.197  0.00  0.00    +0.000 NA
ATOM     10  H   UNL     1      43.804   3.693  12.139  0.00  0.00    +0.000 HD
BRANCH   9  11
ATOM     11  C   UNL     1      45.283   4.224  10.836  0.00  0.00    +0.000 C 
BRANCH  11  12
ATOM     12  C   UNL     1      44.338   3.533   9.814  0.00  0.00    +0.000 C 
ATOM     13  C   UNL     1      44.555   3.992   8.381  0.00  0.00    +0.000 C 
ATOM     14  C   UNL     1      45.702   3.127   7.897  0.00  0.00    +0.000 C 
ATOM     15  C   UNL     1      45.586   1.846   8.711  0.00  0.00    +0.000 C 
ATOM     16  N   UNL     1      44.563   2.080   9.734  0.00  0.00    +0.000 NA
ATOM     17  H   UNL     1      44.886   1.751  10.648  0.00  0.00    +0.000 HD
ENDBRANCH  11  12
ENDBRANCH   9  11
ENDBRANCH   8   9
ENDBRANCH   5   8
ENDBRANCH   1   2
BRANCH   1  18
ATOM     18  N   UNL     1      50.612   6.636  15.288  0.00  0.00    +0.000 NA
ATOM     19  H   UNL     1      51.402   6.778  14.664  0.00  0.00    +0.000 HD
BRANCH  18  20
ATOM     20  C   UNL     1      51.029   6.736  16.700  0.00  0.00    +0.000 C 
BRANCH  20  21
ATOM     21  C   UNL     1      50.735   5.358  17.267  0.00  0.00    +0.000 A 
ATOM     22  C   UNL     1      51.658   4.337  17.442  0.00  0.00    +0.000 A 
ATOM     23  S   UNL     1      50.925   2.793  17.543  0.00  0.00    +0.000 S 
ATOM     24  C   UNL     1      49.365   3.472  17.479  0.00  0.00    +0.000 A 
ATOM     25  N   UNL     1      48.252   2.696  17.390  0.00  0.00    +0.000 NA
ATOM     26  C   UNL     1      47.144   3.362  17.427  0.00  0.00    +0.000 A 
ATOM     27  N   UNL     1      47.048   4.720  17.600  0.00  0.00    +0.000 N 
ATOM     28  C   UNL     1      48.144   5.541  17.710  0.00  0.00    +0.000 A 
ATOM     29  O   UNL     1      48.042   6.731  17.996  0.00  0.00    +0.000 OA
ATOM     30  C   UNL     1      49.412   4.852  17.537  0.00  0.00    +0.000 A 
ATOM     31  H   UNL     1      46.150   5.159  17.737  0.00  0.00    +0.000 HD
ENDBRANCH  20  21
BRANCH  20  33
ATOM     32  C   UNL     1      52.596   8.788  17.150  0.00  0.00    +0.000 C 
ATOM     33  C   UNL     1      52.449   7.286  16.946  0.00  0.00    +0.000 C 
ENDBRANCH  20  33
ENDBRANCH  18  20
ENDBRANCH   1  18
TORSDOF 9
ENDMDL
MODEL 8
REMARK VINA RESULT:    -6.608      2.822      3.904
REMARK INTER + INTRA:         -11.028
REMARK INTER:                 -10.066
REMARK INTRA:                  -0.962
REMARK UNBOUND:                -0.942
REMARK  Name = 
REMARK  10 active torsions:
REMARK  status: ('A' for Active; 'I' for Inactive)
REMARK    1  A    between atoms: C_1  and  C_2
REMARK    2  A    between atoms: C_2  and  C_3
REMARK    3  A    between atoms: C_3  and  N_4
REMARK    4  A    between atoms: C_3  and  C_20
REMARK    5  A    between atoms: N_4  and  C_5
REMARK    6  A    between atoms: C_5  and  C_6
REMARK    7  A    between atoms: C_9  and  C_10
REMARK    8  A    between atoms: C_10  and  N_11
REMARK    9  A    between atoms: N_11  and  C_12
REMARK   10  A    between atoms: C_12  and  C_13
REMARK                            x       y       z     vdW  Elec       q    Type
REMARK                         _______ _______ _______ _____ _____    ______ ____
ROOT
ATOM      1  C   UNL     1      47.945   6.850  13.794  0.00  0.00    +0.000 C 
ENDROOT
BRANCH   1   2
ATOM      2  C   UNL     1      46.825   6.167  13.012  0.00  0.00    +0.000 A 
ATOM      3  N   UNL     1      46.491   6.670  11.803  0.00  0.00    +0.000 NA
ATOM      4  C   UNL     1      45.681   5.909  11.033  0.00  0.00    +0.000 A 
ATOM      5  C   UNL     1      45.196   4.669  11.395  0.00  0.00    +0.000 A 
ATOM      6  C   UNL     1      45.538   4.287  12.685  0.00  0.00    +0.000 A 
ATOM      7  N   UNL     1      46.338   5.007  13.507  0.00  0.00    +0.000 NA
BRANCH   5   8
ATOM      8  C   UNL     1      44.404   3.804  10.470  0.00  0.00    +0.000 C 
BRANCH   8   9
ATOM      9  N   UNL     1      44.270   4.433   9.152  0.00  0.00    +0.000 NA
ATOM     10  H   UNL     1      44.846   5.275   9.122  0.00  0.00    +0.000 HD
BRANCH   9  11
ATOM     11  C   UNL     1      44.691   3.538   8.062  0.00  0.00    +0.000 C 
BRANCH  11  12
ATOM     12  C   UNL     1      46.242   3.451   8.003  0.00  0.00    +0.000 C 
ATOM     13  C   UNL     1      46.763   2.038   7.797  0.00  0.00    +0.000 C 
ATOM     14  C   UNL     1      46.700   1.848   6.295  0.00  0.00    +0.000 C 
ATOM     15  C   UNL     1      46.862   3.250   5.723  0.00  0.00    +0.000 C 
ATOM     16  N   UNL     1      46.802   4.182   6.854  0.00  0.00    +0.000 NA
ATOM     17  H   UNL     1      46.185   4.969   6.638  0.00  0.00    +0.000 HD
ENDBRANCH  11  12
ENDBRANCH   9  11
ENDBRANCH   8   9
ENDBRANCH   5   8
ENDBRANCH   1   2
BRANCH   1  18
ATOM     18  N   UNL     1      48.281   6.233  15.084  0.00  0.00    +0.000 NA
ATOM     19  H   UNL     1      48.688   5.315  14.926  0.00  0.00    +0.000 HD
BRANCH  18  20
ATOM     20  C   UNL     1      49.161   7.063  15.930  0.00  0.00    +0.000 C 
BRANCH  20  21
ATOM     21  C   UNL     1      48.502   7.018  17.297  0.00  0.00    +0.000 A 
ATOM     22  C   UNL     1      47.985   8.105  17.986  0.00  0.00    +0.000 A 
ATOM     23  S   UNL     1      47.854   7.819  19.669  0.00  0.00    +0.000 S 
ATOM     24  C   UNL     1      48.367   6.206  19.488  0.00  0.00    +0.000 A 
ATOM     25  N   UNL     1      48.609   5.408  20.563  0.00  0.00    +0.000 NA
ATOM     26  C   UNL     1      48.917   4.191  20.253  0.00  0.00    +0.000 A 
ATOM     27  N   UNL     1      48.950   3.688  18.977  0.00  0.00    +0.000 N 
ATOM     28  C   UNL     1      48.699   4.453  17.864  0.00  0.00    +0.000 A 
ATOM     29  O   UNL     1      48.604   3.960  16.742  0.00  0.00    +0.000 OA
ATOM     30  C   UNL     1      48.482   5.859  18.156  0.00  0.00    +0.000 A 
ATOM     31  H   UNL     1      49.084   2.702  18.817  0.00  0.00    +0.000 HD
ENDBRANCH  20  21
BRANCH  20  33
ATOM     32  C   UNL     1      51.608   7.750  15.290  0.00  0.00    +0.000 C 
ATOM     33  C   UNL     1      50.663   6.715  15.885  0.00  0.00    +0.000 C 
ENDBRANCH  20  33
ENDBRANCH  18  20
ENDBRANCH   1  18
TORSDOF 9
ENDMDL
MODEL 9
REMARK VINA RESULT:    -6.599      2.446      4.131
REMARK INTER + INTRA:         -11.013
REMARK INTER:                  -9.475
REMARK INTRA:                  -1.539
REMARK UNBOUND:                -0.942
REMARK  Name = 
REMARK  10 active torsions:
REMARK  status: ('A' for Active; 'I' for Inactive)
REMARK    1  A    between atoms: C_1  and  C_2
REMARK    2  A    between atoms: C_2  and  C_3
REMARK    3  A    between atoms: C_3  and  N_4
REMARK    4  A    between atoms: C_3  and  C_20
REMARK    5  A    between atoms: N_4  and  C_5
REMARK    6  A    between atoms: C_5  and  C_6
REMARK    7  A    between atoms: C_9  and  C_10
REMARK    8  A    between atoms: C_10  and  N_11
REMARK    9  A    between atoms: N_11  and  C_12
REMARK   10  A    between atoms: C_12  and  C_13
REMARK                            x       y       z     vdW  Elec       q    Type
REMARK                         _______ _______ _______ _____ _____    ______ ____
ROOT
ATOM      1  C   UNL     1      50.330   7.720  15.238  0.00  0.00    +0.000 C 
ENDROOT
BRANCH   1   2
ATOM      2  C   UNL     1      49.145   7.505  14.299  0.00  0.00    +0.000 A 
ATOM      3  N   UNL     1      48.575   6.280  14.260  0.00  0.00    +0.000 NA
ATOM      4  C   UNL     1      47.389   6.184  13.619  0.00  0.00    +0.000 A 
ATOM      5  C   UNL     1      46.734   7.243  13.025  0.00  0.00    +0.000 A 
ATOM      6  C   UNL     1      47.445   8.434  13.057  0.00  0.00    +0.000 A 
ATOM      7  N   UNL     1      48.639   8.593  13.676  0.00  0.00    +0.000 NA
BRANCH   5   8
ATOM      8  C   UNL     1      45.367   7.123  12.432  0.00  0.00    +0.000 C 
BRANCH   8   9
ATOM      9  N   UNL     1      44.467   6.396  13.332  0.00  0.00    +0.000 NA
ATOM     10  H   UNL     1      44.057   7.052  13.998  0.00  0.00    +0.000 HD
BRANCH   9  11
ATOM     11  C   UNL     1      43.378   5.722  12.607  0.00  0.00    +0.000 C 
BRANCH  11  12
ATOM     12  C   UNL     1      43.410   4.193  12.882  0.00  0.00    +0.000 C 
ATOM     13  C   UNL     1      43.183   3.347  11.639  0.00  0.00    +0.000 C 
ATOM     14  C   UNL     1      44.560   3.258  11.012  0.00  0.00    +0.000 C 
ATOM     15  C   UNL     1      45.525   3.382  12.183  0.00  0.00    +0.000 C 
ATOM     16  N   UNL     1      44.725   3.735  13.359  0.00  0.00    +0.000 NA
ATOM     17  H   UNL     1      45.167   4.499  13.878  0.00  0.00    +0.000 HD
ENDBRANCH  11  12
ENDBRANCH   9  11
ENDBRANCH   8   9
ENDBRANCH   5   8
ENDBRANCH   1   2
BRANCH   1  18
ATOM     18  N   UNL     1      51.107   6.516  15.559  0.00  0.00    +0.000 NA
ATOM     19  H   UNL     1      51.937   6.481  14.972  0.00  0.00    +0.000 HD
BRANCH  18  20
ATOM     20  C   UNL     1      51.465   6.400  16.986  0.00  0.00    +0.000 C 
BRANCH  20  21
ATOM     21  C   UNL     1      50.914   5.045  17.392  0.00  0.00    +0.000 A 
ATOM     22  C   UNL     1      51.646   3.875  17.523  0.00  0.00    +0.000 A 
ATOM     23  S   UNL     1      50.673   2.470  17.422  0.00  0.00    +0.000 S 
ATOM     24  C   UNL     1      49.250   3.399  17.328  0.00  0.00    +0.000 A 
ATOM     25  N   UNL     1      48.038   2.829  17.091  0.00  0.00    +0.000 NA
ATOM     26  C   UNL     1      47.051   3.663  17.125  0.00  0.00    +0.000 A 
ATOM     27  N   UNL     1      47.157   4.998  17.427  0.00  0.00    +0.000 N 
ATOM     28  C   UNL     1      48.358   5.613  17.686  0.00  0.00    +0.000 A 
ATOM     29  O   UNL     1      48.423   6.774  18.084  0.00  0.00    +0.000 OA
ATOM     30  C   UNL     1      49.509   4.742  17.526  0.00  0.00    +0.000 A 
ATOM     31  H   UNL     1      46.332   5.564  17.550  0.00  0.00    +0.000 HD
ENDBRANCH  20  21
BRANCH  20  33
ATOM     32  C   UNL     1      53.967   6.527  16.214  0.00  0.00    +0.000 C 
ATOM     33  C   UNL     1      52.945   6.667  17.334  0.00  0.00    +0.000 C 
ENDBRANCH  20  33
ENDBRANCH  18  20
ENDBRANCH   1  18
TORSDOF 9
ENDMDL
