MODEL 1
REMARK VINA RESULT:    -7.827      0.000      0.000
REMARK INTER + INTRA:         -11.420
REMARK INTER:                 -10.343
REMARK INTRA:                  -1.077
REMARK UNBOUND:                -1.077
REMARK  Name = 
REMARK  6 active torsions:
REMARK  status: ('A' for Active; 'I' for Inactive)
REMARK    1  A    between atoms: C_2  and  C_3
REMARK    2  A    between atoms: C_6  and  O_7
REMARK    3  A    between atoms: O_7  and  C_8
REMARK    4  A    between atoms: C_8  and  C_9
REMARK    5  A    between atoms: C_13  and  N_14
REMARK    6  A    between atoms: C_17  and  O_18
REMARK                            x       y       z     vdW  Elec       q    Type
REMARK                         _______ _______ _______ _____ _____    ______ ____
ROOT
ATOM      1  C   UNL     1      44.788   4.163  12.348  0.00  0.00    +0.000 A 
ATOM      2  C   UNL     1      45.713   3.257  12.868  0.00  0.00    +0.000 A 
ATOM      3  C   UNL     1      46.834   3.715  13.559  0.00  0.00    +0.000 A 
ATOM      4  C   UNL     1      47.053   5.086  13.713  0.00  0.00    +0.000 A 
ATOM      5  C   UNL     1      46.162   6.034  13.194  0.00  0.00    +0.000 A 
ATOM      6  C   UNL     1      45.011   5.536  12.551  0.00  0.00    +0.000 A 
ENDROOT
BRANCH   5   7
ATOM      7  N   UNL     1      46.432   7.389  13.262  0.00  0.00    +0.000 N 
ATOM      8  C   UNL     1      47.755   7.871  13.653  0.00  0.00    +0.000 C 
ATOM      9  C   UNL     1      48.365   8.643  12.491  0.00  0.00    +0.000 C 
ATOM     10  C   UNL     1      47.426   9.744  11.999  0.00  0.00    +0.000 C 
ATOM     11  C   UNL     1      46.017   9.223  11.711  0.00  0.00    +0.000 C 
ATOM     12  C   UNL     1      45.454   8.407  12.875  0.00  0.00    +0.000 C 
BRANCH  10  13
ATOM     13  O   UNL     1      47.381  10.818  12.938  0.00  0.00    +0.000 OA
ATOM     14  H   UNL     1      46.579  11.345  12.778  0.00  0.00    +0.000 HD
ENDBRANCH  10  13
ENDBRANCH   5   7
BRANCH   1  15
ATOM     15  C   UNL     1      43.605   3.685  11.530  0.00  0.00    +0.000 C 
BRANCH  15  16
ATOM     16  O   UNL     1      43.702   4.137  10.181  0.00  0.00    +0.000 OA
BRANCH  16  20
ATOM     17  C   UNL     1      46.571   2.484   7.607  0.00  0.00    +0.000 A 
ATOM     18  C   UNL     1      45.831   1.626   8.428  0.00  0.00    +0.000 A 
ATOM     19  C   UNL     1      44.861   2.137   9.307  0.00  0.00    +0.000 A 
ATOM     20  C   UNL     1      44.620   3.511   9.375  0.00  0.00    +0.000 A 
ATOM     21  C   UNL     1      45.365   4.364   8.555  0.00  0.00    +0.000 A 
ATOM     22  C   UNL     1      46.334   3.859   7.676  0.00  0.00    +0.000 A 
BRANCH  17  24
ATOM     23  N   UNL     1      48.365   1.540   5.979  0.00  0.00    +0.000 NA
ATOM     24  C   UNL     1      47.560   1.964   6.705  0.00  0.00    +0.000 C 
ENDBRANCH  17  24
ENDBRANCH  16  20
ENDBRANCH  15  16
ENDBRANCH   1  15
TORSDOF 6
ENDMDL
MODEL 2
REMARK VINA RESULT:    -7.800      0.881      1.356
REMARK INTER + INTRA:         -11.385
REMARK INTER:                 -10.484
REMARK INTRA:                  -0.901
REMARK UNBOUND:                -1.077
REMARK  Name = 
REMARK  6 active torsions:
REMARK  status: ('A' for Active; 'I' for Inactive)
REMARK    1  A    between atoms: C_2  and  C_3
REMARK    2  A    between atoms: C_6  and  O_7
REMARK    3  A    between atoms: O_7  and  C_8
REMARK    4  A    between atoms: C_8  and  C_9
REMARK    5  A    between atoms: C_13  and  N_14
REMARK    6  A    between atoms: C_17  and  O_18
REMARK                            x       y       z     vdW  Elec       q    Type
REMARK                         _______ _______ _______ _____ _____    ______ ____
ROOT
ATOM      1  C   UNL     1      44.802   4.817  11.787  0.00  0.00    +0.000 A 
ATOM      2  C   UNL     1      45.214   3.669  12.467  0.00  0.00    +0.000 A 
ATOM      3  C   UNL     1      46.290   3.725  13.351  0.00  0.00    +0.000 A 
ATOM      4  C   UNL     1      46.981   4.923  13.544  0.00  0.00    +0.000 A 
ATOM      5  C   UNL     1      46.616   6.096  12.872  0.00  0.00    +0.000 A 
ATOM      6  C   UNL     1      45.489   6.019  12.029  0.00  0.00    +0.000 A 
ENDROOT
BRANCH   5   7
ATOM      7  N   UNL     1      47.362   7.255  12.988  0.00  0.00    +0.000 N 
ATOM      8  C   UNL     1      48.813   7.234  12.811  0.00  0.00    +0.000 C 
ATOM      9  C   UNL     1      49.178   8.096  11.611  0.00  0.00    +0.000 C 
ATOM     10  C   UNL     1      48.591   9.501  11.734  0.00  0.00    +0.000 C 
ATOM     11  C   UNL     1      47.092   9.482  12.036  0.00  0.00    +0.000 C 
ATOM     12  C   UNL     1      46.751   8.566  13.211  0.00  0.00    +0.000 C 
BRANCH  10  13
ATOM     13  O   UNL     1      49.293  10.250  12.727  0.00  0.00    +0.000 OA
ATOM     14  H   UNL     1      49.782  10.969  12.293  0.00  0.00    +0.000 HD
ENDBRANCH  10  13
ENDBRANCH   5   7
BRANCH   1  15
ATOM     15  C   UNL     1      43.683   4.758  10.768  0.00  0.00    +0.000 C 
BRANCH  15  16
ATOM     16  O   UNL     1      43.649   3.486  10.121  0.00  0.00    +0.000 OA
BRANCH  16  20
ATOM     17  C   UNL     1      46.621   2.445   7.350  0.00  0.00    +0.000 A 
ATOM     18  C   UNL     1      46.182   3.773   7.397  0.00  0.00    +0.000 A 
ATOM     19  C   UNL     1      45.186   4.165   8.308  0.00  0.00    +0.000 A 
ATOM     20  C   UNL     1      44.619   3.236   9.183  0.00  0.00    +0.000 A 
ATOM     21  C   UNL     1      45.060   1.910   9.129  0.00  0.00    +0.000 A 
ATOM     22  C   UNL     1      46.053   1.513   8.222  0.00  0.00    +0.000 A 
BRANCH  17  24
ATOM     23  N   UNL     1      48.471   1.723   5.672  0.00  0.00    +0.000 NA
ATOM     24  C   UNL     1      47.641   2.043   6.424  0.00  0.00    +0.000 C 
ENDBRANCH  17  24
ENDBRANCH  16  20
ENDBRANCH  15  16
ENDBRANCH   1  15
TORSDOF 6
ENDMDL
MODEL 3
REMARK VINA RESULT:    -7.605      2.143      3.249
REMARK INTER + INTRA:         -11.128
REMARK INTER:                 -10.124
REMARK INTRA:                  -1.004
REMARK UNBOUND:                -1.077
REMARK  Name = 
REMARK  6 active torsions:
REMARK  status: ('A' for Active; 'I' for Inactive)
REMARK    1  A    between atoms: C_2  and  C_3
REMARK    2  A    between atoms: C_6  and  O_7
REMARK    3  A    between atoms: O_7  and  C_8
REMARK    4  A    between atoms: C_8  and  C_9
REMARK    5  A    between atoms: C_13  and  N_14
REMARK    6  A    between atoms: C_17  and  O_18
REMARK                            x       y       z     vdW  Elec       q    Type
REMARK                         _______ _______ _______ _____ _____    ______ ____
ROOT
ATOM      1  C   UNL     1      44.573   5.267  11.904  0.00  0.00    +0.000 A 
ATOM      2  C   UNL     1      44.421   6.620  11.597  0.00  0.00    +0.000 A 
ATOM      3  C   UNL     1      45.314   7.561  12.108  0.00  0.00    +0.000 A 
ATOM      4  C   UNL     1      46.354   7.159  12.950  0.00  0.00    +0.000 A 
ATOM      5  C   UNL     1      46.536   5.816  13.300  0.00  0.00    +0.000 A 
ATOM      6  C   UNL     1      45.650   4.884  12.722  0.00  0.00    +0.000 A 
ENDROOT
BRANCH   5   7
ATOM      7  N   UNL     1      47.504   5.434  14.212  0.00  0.00    +0.000 N 
ATOM      8  C   UNL     1      48.619   6.320  14.537  0.00  0.00    +0.000 C 
ATOM      9  C   UNL     1      48.545   6.690  16.011  0.00  0.00    +0.000 C 
ATOM     10  C   UNL     1      48.466   5.446  16.895  0.00  0.00    +0.000 C 
ATOM     11  C   UNL     1      47.362   4.485  16.452  0.00  0.00    +0.000 C 
ATOM     12  C   UNL     1      47.431   4.176  14.957  0.00  0.00    +0.000 C 
BRANCH  10  13
ATOM     13  O   UNL     1      49.727   4.778  16.930  0.00  0.00    +0.000 OA
ATOM     14  H   UNL     1      49.751   4.187  17.702  0.00  0.00    +0.000 HD
ENDBRANCH  10  13
ENDBRANCH   5   7
BRANCH   1  15
ATOM     15  C   UNL     1      43.568   4.242  11.420  0.00  0.00    +0.000 C 
BRANCH  15  16
ATOM     16  O   UNL     1      43.453   4.273   9.998  0.00  0.00    +0.000 OA
BRANCH  16  20
ATOM     17  C   UNL     1      46.463   2.505   7.671  0.00  0.00    +0.000 A 
ATOM     18  C   UNL     1      45.705   1.691   8.521  0.00  0.00    +0.000 A 
ATOM     19  C   UNL     1      44.688   2.241   9.319  0.00  0.00    +0.000 A 
ATOM     20  C   UNL     1      44.417   3.611   9.278  0.00  0.00    +0.000 A 
ATOM     21  C   UNL     1      45.180   4.420   8.431  0.00  0.00    +0.000 A 
ATOM     22  C   UNL     1      46.196   3.876   7.632  0.00  0.00    +0.000 A 
BRANCH  17  24
ATOM     23  N   UNL     1      48.337   1.484   6.187  0.00  0.00    +0.000 NA
ATOM     24  C   UNL     1      47.499   1.945   6.851  0.00  0.00    +0.000 C 
ENDBRANCH  17  24
ENDBRANCH  16  20
ENDBRANCH  15  16
ENDBRANCH   1  15
TORSDOF 6
ENDMDL
MODEL 4
REMARK VINA RESULT:    -6.757      3.061      4.243
REMARK INTER + INTRA:         -10.007
REMARK INTER:                  -9.347
REMARK INTRA:                  -0.660
REMARK UNBOUND:                -1.077
REMARK  Name = 
REMARK  6 active torsions:
REMARK  status: ('A' for Active; 'I' for Inactive)
REMARK    1  A    between atoms: C_2  and  C_3
REMARK    2  A    between atoms: C_6  and  O_7
REMARK    3  A    between atoms: O_7  and  C_8
REMARK    4  A    between atoms: C_8  and  C_9
REMARK    5  A    between atoms: C_13  and  N_14
REMARK    6  A    between atoms: C_17  and  O_18
REMARK                            x       y       z     vdW  Elec       q    Type
REMARK                         _______ _______ _______ _____ _____    ______ ____
ROOT
ATOM      1  C   UNL     1      45.901   4.722  12.935  0.00  0.00    +0.000 A 
ATOM      2  C   UNL     1      46.370   5.897  12.345  0.00  0.00    +0.000 A 
ATOM      3  C   UNL     1      47.346   6.661  12.982  0.00  0.00    +0.000 A 
ATOM      4  C   UNL     1      47.843   6.271  14.228  0.00  0.00    +0.000 A 
ATOM      5  C   UNL     1      47.392   5.110  14.866  0.00  0.00    +0.000 A 
ATOM      6  C   UNL     1      46.447   4.329  14.170  0.00  0.00    +0.000 A 
ENDROOT
BRANCH   5   7
ATOM      7  N   UNL     1      47.813   4.779  16.142  0.00  0.00    +0.000 N 
ATOM      8  C   UNL     1      47.491   3.478  16.724  0.00  0.00    +0.000 C 
ATOM      9  C   UNL     1      48.784   2.719  16.987  0.00  0.00    +0.000 C 
ATOM     10  C   UNL     1      49.756   3.548  17.827  0.00  0.00    +0.000 C 
ATOM     11  C   UNL     1      49.977   4.947  17.250  0.00  0.00    +0.000 C 
ATOM     12  C   UNL     1      48.660   5.661  16.945  0.00  0.00    +0.000 C 
BRANCH  10  13
ATOM     13  O   UNL     1      49.303   3.629  19.179  0.00  0.00    +0.000 OA
ATOM     14  H   UNL     1      48.528   4.214  19.218  0.00  0.00    +0.000 HD
ENDBRANCH  10  13
ENDBRANCH   5   7
BRANCH   1  15
ATOM     15  C   UNL     1      44.788   3.919  12.292  0.00  0.00    +0.000 C 
BRANCH  15  16
ATOM     16  O   UNL     1      44.420   4.476  11.031  0.00  0.00    +0.000 OA
BRANCH  16  20
ATOM     17  C   UNL     1      46.309   3.127   7.538  0.00  0.00    +0.000 A 
ATOM     18  C   UNL     1      45.698   2.188   8.377  0.00  0.00    +0.000 A 
ATOM     19  C   UNL     1      45.056   2.596   9.559  0.00  0.00    +0.000 A 
ATOM     20  C   UNL     1      45.016   3.945   9.915  0.00  0.00    +0.000 A 
ATOM     21  C   UNL     1      45.631   4.879   9.074  0.00  0.00    +0.000 A 
ATOM     22  C   UNL     1      46.273   4.478   7.894  0.00  0.00    +0.000 A 
BRANCH  17  24
ATOM     23  N   UNL     1      47.494   2.384   5.347  0.00  0.00    +0.000 NA
ATOM     24  C   UNL     1      46.962   2.714   6.328  0.00  0.00    +0.000 C 
ENDBRANCH  17  24
ENDBRANCH  16  20
ENDBRANCH  15  16
ENDBRANCH   1  15
TORSDOF 6
ENDMDL
MODEL 5
REMARK VINA RESULT:    -6.323      2.939      7.503
REMARK INTER + INTRA:          -9.433
REMARK INTER:                  -8.644
REMARK INTRA:                  -0.790
REMARK UNBOUND:                -1.077
REMARK  Name = 
REMARK  6 active torsions:
REMARK  status: ('A' for Active; 'I' for Inactive)
REMARK    1  A    between atoms: C_2  and  C_3
REMARK    2  A    between atoms: C_6  and  O_7
REMARK    3  A    between atoms: O_7  and  C_8
REMARK    4  A    between atoms: C_8  and  C_9
REMARK    5  A    between atoms: C_13  and  N_14
REMARK    6  A    between atoms: C_17  and  O_18
REMARK                            x       y       z     vdW  Elec       q    Type
REMARK                         _______ _______ _______ _____ _____    ______ ____
ROOT
ATOM      1  C   UNL     1      45.051   4.972  12.233  0.00  0.00    +0.000 A 
ATOM      2  C   UNL     1      44.020   4.320  12.911  0.00  0.00    +0.000 A 
ATOM      3  C   UNL     1      43.368   3.237  12.324  0.00  0.00    +0.000 A 
ATOM      4  C   UNL     1      43.724   2.812  11.042  0.00  0.00    +0.000 A 
ATOM      5  C   UNL     1      44.740   3.445  10.315  0.00  0.00    +0.000 A 
ATOM      6  C   UNL     1      45.417   4.500  10.960  0.00  0.00    +0.000 A 
ENDROOT
BRANCH   5   7
ATOM      7  N   UNL     1      45.023   3.087   9.010  0.00  0.00    +0.000 N 
ATOM      8  C   UNL     1      45.312   4.102   7.999  0.00  0.00    +0.000 C 
ATOM      9  C   UNL     1      46.735   3.908   7.495  0.00  0.00    +0.000 C 
ATOM     10  C   UNL     1      46.966   2.476   7.014  0.00  0.00    +0.000 C 
ATOM     11  C   UNL     1      46.541   1.437   8.054  0.00  0.00    +0.000 C 
ATOM     12  C   UNL     1      45.129   1.692   8.581  0.00  0.00    +0.000 C 
BRANCH  10  13
ATOM     13  O   UNL     1      46.292   2.250   5.776  0.00  0.00    +0.000 OA
ATOM     14  H   UNL     1      46.604   2.899   5.123  0.00  0.00    +0.000 HD
ENDBRANCH  10  13
ENDBRANCH   5   7
BRANCH   1  15
ATOM     15  C   UNL     1      45.719   6.196  12.825  0.00  0.00    +0.000 C 
BRANCH  15  16
ATOM     16  O   UNL     1      47.111   5.967  13.033  0.00  0.00    +0.000 OA
BRANCH  16  20
ATOM     17  C   UNL     1      48.463   5.033  16.892  0.00  0.00    +0.000 A 
ATOM     18  C   UNL     1      47.614   4.131  16.241  0.00  0.00    +0.000 A 
ATOM     19  C   UNL     1      47.135   4.404  14.948  0.00  0.00    +0.000 A 
ATOM     20  C   UNL     1      47.500   5.582  14.292  0.00  0.00    +0.000 A 
ATOM     21  C   UNL     1      48.346   6.481  14.949  0.00  0.00    +0.000 A 
ATOM     22  C   UNL     1      48.826   6.213  16.239  0.00  0.00    +0.000 A 
BRANCH  17  24
ATOM     23  N   UNL     1      49.350   4.530  19.283  0.00  0.00    +0.000 NA
ATOM     24  C   UNL     1      48.956   4.753  18.211  0.00  0.00    +0.000 C 
ENDBRANCH  17  24
ENDBRANCH  16  20
ENDBRANCH  15  16
ENDBRANCH   1  15
TORSDOF 6
ENDMDL
MODEL 6
REMARK VINA RESULT:    -6.237      4.041      7.675
REMARK INTER + INTRA:          -9.319
REMARK INTER:                  -8.475
REMARK INTRA:                  -0.845
REMARK UNBOUND:                -1.077
REMARK  Name = 
REMARK  6 active torsions:
REMARK  status: ('A' for Active; 'I' for Inactive)
REMARK    1  A    between atoms: C_2  and  C_3
REMARK    2  A    between atoms: C_6  and  O_7
REMARK    3  A    between atoms: O_7  and  C_8
REMARK    4  A    between atoms: C_8  and  C_9
REMARK    5  A    between atoms: C_13  and  N_14
REMARK    6  A    between atoms: C_17  and  O_18
REMARK                            x       y       z     vdW  Elec       q    Type
REMARK                         _______ _______ _______ _____ _____    ______ ____
ROOT
ATOM      1  C   UNL     1      48.190   6.609  14.386  0.00  0.00    +0.000 A 
ATOM      2  C   UNL     1      48.684   7.353  13.313  0.00  0.00    +0.000 A 
ATOM      3  C   UNL     1      48.064   7.282  12.066  0.00  0.00    +0.000 A 
ATOM      4  C   UNL     1      46.960   6.447  11.875  0.00  0.00    +0.000 A 
ATOM      5  C   UNL     1      46.440   5.670  12.917  0.00  0.00    +0.000 A 
ATOM      6  C   UNL     1      47.054   5.808  14.179  0.00  0.00    +0.000 A 
ENDROOT
BRANCH   5   7
ATOM      7  N   UNL     1      45.411   4.771  12.701  0.00  0.00    +0.000 N 
ATOM      8  C   UNL     1      44.015   5.189  12.808  0.00  0.00    +0.000 C 
ATOM      9  C   UNL     1      43.343   5.026  11.452  0.00  0.00    +0.000 C 
ATOM     10  C   UNL     1      43.524   3.609  10.907  0.00  0.00    +0.000 C 
ATOM     11  C   UNL     1      44.986   3.162  10.920  0.00  0.00    +0.000 C 
ATOM     12  C   UNL     1      45.648   3.389  12.279  0.00  0.00    +0.000 C 
BRANCH  10  13
ATOM     13  O   UNL     1      42.712   2.688  11.635  0.00  0.00    +0.000 OA
ATOM     14  H   UNL     1      42.824   2.850  12.587  0.00  0.00    +0.000 HD
ENDBRANCH  10  13
ENDBRANCH   5   7
BRANCH   1  15
ATOM     15  C   UNL     1      48.896   6.617  15.727  0.00  0.00    +0.000 C 
BRANCH  15  16
ATOM     16  O   UNL     1      48.336   5.639  16.603  0.00  0.00    +0.000 OA
BRANCH  16  20
ATOM     17  C   UNL     1      50.884   2.422  17.472  0.00  0.00    +0.000 A 
ATOM     18  C   UNL     1      49.585   2.150  17.029  0.00  0.00    +0.000 A 
ATOM     19  C   UNL     1      48.697   3.197  16.728  0.00  0.00    +0.000 A 
ATOM     20  C   UNL     1      49.097   4.528  16.867  0.00  0.00    +0.000 A 
ATOM     21  C   UNL     1      50.395   4.794  17.314  0.00  0.00    +0.000 A 
ATOM     22  C   UNL     1      51.285   3.753  17.615  0.00  0.00    +0.000 A 
BRANCH  17  24
ATOM     23  N   UNL     1      52.532   0.486  18.015  0.00  0.00    +0.000 NA
ATOM     24  C   UNL     1      51.794   1.354  17.775  0.00  0.00    +0.000 C 
ENDBRANCH  17  24
ENDBRANCH  16  20
ENDBRANCH  15  16
ENDBRANCH   1  15
TORSDOF 6
ENDMDL
MODEL 7
REMARK VINA RESULT:    -6.179      2.338      6.919
REMARK INTER + INTRA:          -9.242
REMARK INTER:                  -8.381
REMARK INTRA:                  -0.861
REMARK UNBOUND:                -1.077
REMARK  Name = 
REMARK  6 active torsions:
REMARK  status: ('A' for Active; 'I' for Inactive)
REMARK    1  A    between atoms: C_2  and  C_3
REMARK    2  A    between atoms: C_6  and  O_7
REMARK    3  A    between atoms: O_7  and  C_8
REMARK    4  A    between atoms: C_8  and  C_9
REMARK    5  A    between atoms: C_13  and  N_14
REMARK    6  A    between atoms: C_17  and  O_18
REMARK                            x       y       z     vdW  Elec       q    Type
REMARK                         _______ _______ _______ _____ _____    ______ ____
ROOT
ATOM      1  C   UNL     1      45.262   4.351  12.438  0.00  0.00    +0.000 A 
ATOM      2  C   UNL     1      44.115   3.781  12.992  0.00  0.00    +0.000 A 
ATOM      3  C   UNL     1      43.340   2.896  12.244  0.00  0.00    +0.000 A 
ATOM      4  C   UNL     1      43.691   2.592  10.926  0.00  0.00    +0.000 A 
ATOM      5  C   UNL     1      44.823   3.153  10.322  0.00  0.00    +0.000 A 
ATOM      6  C   UNL     1      45.616   3.999  11.123  0.00  0.00    +0.000 A 
ENDROOT
BRANCH   5   7
ATOM      7  N   UNL     1      45.113   2.929   8.988  0.00  0.00    +0.000 N 
ATOM      8  C   UNL     1      45.268   4.045   8.057  0.00  0.00    +0.000 C 
ATOM      9  C   UNL     1      46.691   4.047   7.518  0.00  0.00    +0.000 C 
ATOM     10  C   UNL     1      47.064   2.690   6.923  0.00  0.00    +0.000 C 
ATOM     11  C   UNL     1      46.778   1.534   7.883  0.00  0.00    +0.000 C 
ATOM     12  C   UNL     1      45.360   1.591   8.449  0.00  0.00    +0.000 C 
BRANCH  10  13
ATOM     13  O   UNL     1      46.390   2.487   5.681  0.00  0.00    +0.000 OA
ATOM     14  H   UNL     1      45.995   1.599   5.677  0.00  0.00    +0.000 HD
ENDBRANCH  10  13
ENDBRANCH   5   7
BRANCH   1  15
ATOM     15  C   UNL     1      46.074   5.372  13.209  0.00  0.00    +0.000 C 
BRANCH  15  16
ATOM     16  O   UNL     1      45.535   6.683  13.043  0.00  0.00    +0.000 OA
BRANCH  16  20
ATOM     17  C   UNL     1      48.374   9.473  11.719  0.00  0.00    +0.000 A 
ATOM     18  C   UNL     1      47.124   9.936  12.145  0.00  0.00    +0.000 A 
ATOM     19  C   UNL     1      46.142   9.037  12.594  0.00  0.00    +0.000 A 
ATOM     20  C   UNL     1      46.398   7.664  12.623  0.00  0.00    +0.000 A 
ATOM     21  C   UNL     1      47.648   7.206  12.193  0.00  0.00    +0.000 A 
ATOM     22  C   UNL     1      48.631   8.099  11.744  0.00  0.00    +0.000 A 
BRANCH  17  24
ATOM     23  N   UNL     1      50.192  11.134  10.888  0.00  0.00    +0.000 NA
ATOM     24  C   UNL     1      49.379  10.390  11.263  0.00  0.00    +0.000 C 
ENDBRANCH  17  24
ENDBRANCH  16  20
ENDBRANCH  15  16
ENDBRANCH   1  15
TORSDOF 6
ENDMDL
MODEL 8
REMARK VINA RESULT:    -5.940      4.718      7.862
REMARK INTER + INTRA:          -8.927
REMARK INTER:                  -8.156
REMARK INTRA:                  -0.771
REMARK UNBOUND:                -1.077
REMARK  Name = 
REMARK  6 active torsions:
REMARK  status: ('A' for Active; 'I' for Inactive)
REMARK    1  A    between atoms: C_2  and  C_3
REMARK    2  A    between atoms: C_6  and  O_7
REMARK    3  A    between atoms: O_7  and  C_8
REMARK    4  A    between atoms: C_8  and  C_9
REMARK    5  A    between atoms: C_13  and  N_14
REMARK    6  A    between atoms: C_17  and  O_18
REMARK                            x       y       z     vdW  Elec       q    Type
REMARK                         _______ _______ _______ _____ _____    ______ ____
ROOT
ATOM      1  C   UNL     1      47.516   4.865  15.279  0.00  0.00    +0.000 A 
ATOM      2  C   UNL     1      48.327   6.001  15.248  0.00  0.00    +0.000 A 
ATOM      3  C   UNL     1      48.154   6.960  14.251  0.00  0.00    +0.000 A 
ATOM      4  C   UNL     1      47.184   6.780  13.262  0.00  0.00    +0.000 A 
ATOM      5  C   UNL     1      46.359   5.649  13.242  0.00  0.00    +0.000 A 
ATOM      6  C   UNL     1      46.521   4.727  14.296  0.00  0.00    +0.000 A 
ENDROOT
BRANCH   5   7
ATOM      7  N   UNL     1      45.469   5.425  12.207  0.00  0.00    +0.000 N 
ATOM      8  C   UNL     1      45.461   6.284  11.025  0.00  0.00    +0.000 C 
ATOM      9  C   UNL     1      45.821   5.451   9.803  0.00  0.00    +0.000 C 
ATOM     10  C   UNL     1      44.919   4.223   9.680  0.00  0.00    +0.000 C 
ATOM     11  C   UNL     1      44.860   3.411  10.975  0.00  0.00    +0.000 C 
ATOM     12  C   UNL     1      44.551   4.285  12.191  0.00  0.00    +0.000 C 
BRANCH  10  13
ATOM     13  O   UNL     1      43.607   4.607   9.269  0.00  0.00    +0.000 OA
ATOM     14  H   UNL     1      43.512   4.438   8.316  0.00  0.00    +0.000 HD
ENDBRANCH  10  13
ENDBRANCH   5   7
BRANCH   1  15
ATOM     15  C   UNL     1      47.740   3.778  16.310  0.00  0.00    +0.000 C 
BRANCH  15  16
ATOM     16  O   UNL     1      48.569   4.245  17.373  0.00  0.00    +0.000 OA
BRANCH  16  20
ATOM     17  C   UNL     1      52.154   2.106  17.777  0.00  0.00    +0.000 A 
ATOM     18  C   UNL     1      52.123   3.446  18.177  0.00  0.00    +0.000 A 
ATOM     19  C   UNL     1      50.944   4.201  18.058  0.00  0.00    +0.000 A 
ATOM     20  C   UNL     1      49.783   3.626  17.537  0.00  0.00    +0.000 A 
ATOM     21  C   UNL     1      49.821   2.287  17.134  0.00  0.00    +0.000 A 
ATOM     22  C   UNL     1      50.995   1.529  17.251  0.00  0.00    +0.000 A 
BRANCH  17  24
ATOM     23  N   UNL     1      54.332   0.706  18.009  0.00  0.00    +0.000 NA
ATOM     24  C   UNL     1      53.356   1.331  17.901  0.00  0.00    +0.000 C 
ENDBRANCH  17  24
ENDBRANCH  16  20
ENDBRANCH  15  16
ENDBRANCH   1  15
TORSDOF 6
ENDMDL
MODEL 9
REMARK VINA RESULT:    -5.749      3.810      5.837
REMARK INTER + INTRA:          -8.675
REMARK INTER:                  -7.808
REMARK INTRA:                  -0.866
REMARK UNBOUND:                -1.077
REMARK  Name = 
REMARK  6 active torsions:
REMARK  status: ('A' for Active; 'I' for Inactive)
REMARK    1  A    between atoms: C_2  and  C_3
REMARK    2  A    between atoms: C_6  and  O_7
REMARK    3  A    between atoms: O_7  and  C_8
REMARK    4  A    between atoms: C_8  and  C_9
REMARK    5  A    between atoms: C_13  and  N_14
REMARK    6  A    between atoms: C_17  and  O_18
REMARK                            x       y       z     vdW  Elec       q    Type
REMARK                         _______ _______ _______ _____ _____    ______ ____
ROOT
ATOM      1  C   UNL     1      48.547   7.392  13.869  0.00  0.00    +0.000 A 
ATOM      2  C   UNL     1      49.747   8.103  13.801  0.00  0.00    +0.000 A 
ATOM      3  C   UNL     1      50.739   7.899  14.758  0.00  0.00    +0.000 A 
ATOM      4  C   UNL     1      50.531   7.001  15.807  0.00  0.00    +0.000 A 
ATOM      5  C   UNL     1      49.338   6.278  15.927  0.00  0.00    +0.000 A 
ATOM      6  C   UNL     1      48.378   6.465  14.912  0.00  0.00    +0.000 A 
ENDROOT
BRANCH   5   7
ATOM      7  N   UNL     1      49.095   5.465  17.020  0.00  0.00    +0.000 N 
ATOM      8  C   UNL     1      47.731   5.211  17.477  0.00  0.00    +0.000 C 
ATOM      9  C   UNL     1      47.430   3.725  17.340  0.00  0.00    +0.000 C 
ATOM     10  C   UNL     1      48.487   2.875  18.046  0.00  0.00    +0.000 C 
ATOM     11  C   UNL     1      49.910   3.250  17.629  0.00  0.00    +0.000 C 
ATOM     12  C   UNL     1      50.163   4.754  17.726  0.00  0.00    +0.000 C 
BRANCH  10  13
ATOM     13  O   UNL     1      48.338   2.970  19.463  0.00  0.00    +0.000 OA
ATOM     14  H   UNL     1      48.147   3.894  19.700  0.00  0.00    +0.000 HD
ENDBRANCH  10  13
ENDBRANCH   5   7
BRANCH   1  15
ATOM     15  C   UNL     1      47.429   7.656  12.881  0.00  0.00    +0.000 C 
BRANCH  15  16
ATOM     16  O   UNL     1      46.224   7.012  13.291  0.00  0.00    +0.000 OA
BRANCH  16  20
ATOM     17  C   UNL     1      44.983   3.855  10.823  0.00  0.00    +0.000 A 
ATOM     18  C   UNL     1      45.117   3.622  12.196  0.00  0.00    +0.000 A 
ATOM     19  C   UNL     1      45.532   4.650  13.060  0.00  0.00    +0.000 A 
ATOM     20  C   UNL     1      45.818   5.923  12.561  0.00  0.00    +0.000 A 
ATOM     21  C   UNL     1      45.686   6.149  11.187  0.00  0.00    +0.000 A 
ATOM     22  C   UNL     1      45.272   5.127  10.322  0.00  0.00    +0.000 A 
BRANCH  17  24
ATOM     23  N   UNL     1      44.201   1.961   9.224  0.00  0.00    +0.000 NA
ATOM     24  C   UNL     1      44.555   2.808   9.940  0.00  0.00    +0.000 C 
ENDBRANCH  17  24
ENDBRANCH  16  20
ENDBRANCH  15  16
ENDBRANCH   1  15
TORSDOF 6
ENDMDL
