MODEL 1
REMARK VINA RESULT:    -8.207      0.000      0.000
REMARK INTER + INTRA:         -14.468
REMARK INTER:                 -13.004
REMARK INTRA:                  -1.464
REMARK UNBOUND:                -1.464
REMARK  Name = 
REMARK  12 active torsions:
REMARK  status: ('A' for Active; 'I' for Inactive)
REMARK    1  A    between atoms: C_1  and  O_2
REMARK    2  A    between atoms: O_2  and  C_3
REMARK    3  A    between atoms: C_3  and  C_4
REMARK    4  A    between atoms: C_4  and  N_5
REMARK    5  A    between atoms: C_4  and  C_28
REMARK    6  A    between atoms: N_5  and  C_6
REMARK    7  A    between atoms: C_6  and  C_7
REMARK    8  A    between atoms: C_10  and  C_11
REMARK    9  A    between atoms: C_11  and  N_12
REMARK   10  A    between atoms: C_13  and  C_15
REMARK   11  A    between atoms: C_22  and  O_23
REMARK   12  A    between atoms: O_23  and  C_24
REMARK                            x       y       z     vdW  Elec       q    Type
REMARK                         _______ _______ _______ _____ _____    ______ ____
ROOT
ATOM      1  C   UNL     1      45.237   6.551  11.215  0.00  0.00    +0.000 A 
ATOM      2  C   UNL     1      46.580   6.250  11.307  0.00  0.00    +0.000 A 
ATOM      3  N   UNL     1      47.456   6.935  12.062  0.00  0.00    +0.000 NA
ATOM      4  C   UNL     1      46.954   7.956  12.782  0.00  0.00    +0.000 A 
ATOM      5  N   UNL     1      45.672   8.372  12.726  0.00  0.00    +0.000 NA
ATOM      6  C   UNL     1      44.840   7.649  11.948  0.00  0.00    +0.000 A 
ENDROOT
BRANCH   1   7
ATOM      7  C   UNL     1      44.290   5.736  10.393  0.00  0.00    +0.000 C 
BRANCH   7   8
ATOM      8  N   UNL     1      44.987   5.073   9.290  0.00  0.00    +0.000 NA
ATOM      9  H   UNL     1      44.640   5.452   8.406  0.00  0.00    +0.000 HD
BRANCH   8  10
ATOM     10  C   UNL     1      44.750   3.611   9.227  0.00  0.00    +0.000 C 
BRANCH  10  11
ATOM     11  C   UNL     1      45.657   2.926   8.207  0.00  0.00    +0.000 A 
ATOM     12  C   UNL     1      46.054   1.585   8.329  0.00  0.00    +0.000 A 
ATOM     13  C   UNL     1      46.934   1.006   7.415  0.00  0.00    +0.000 A 
ATOM     14  C   UNL     1      47.432   1.761   6.359  0.00  0.00    +0.000 A 
ATOM     15  C   UNL     1      47.039   3.085   6.206  0.00  0.00    +0.000 A 
ATOM     16  C   UNL     1      46.153   3.664   7.118  0.00  0.00    +0.000 A 
ENDBRANCH  10  11
BRANCH  10  17
ATOM     17  C   UNL     1      44.765   2.950  10.632  0.00  0.00    +0.000 C 
BRANCH  17  19
ATOM     18  C   UNL     1      43.367   2.856  12.507  0.00  0.00    +0.000 C 
ATOM     19  O   UNL     1      43.445   2.647  11.097  0.00  0.00    +0.000 OA
ENDBRANCH  17  19
ENDBRANCH  10  17
ENDBRANCH   8  10
ENDBRANCH   7   8
ENDBRANCH   1   7
BRANCH   4  20
ATOM     20  C   UNL     1      47.888   8.648  13.738  0.00  0.00    +0.000 C 
BRANCH  20  21
ATOM     21  N   UNL     1      47.952   8.040  15.049  0.00  0.00    +0.000 N 
ATOM     22  C   UNL     1      48.961   7.155  15.313  0.00  0.00    +0.000 C 
ATOM     23  O   UNL     1      49.878   6.971  14.515  0.00  0.00    +0.000 OA
ATOM     24  H   UNL     1      47.254   8.273  15.746  0.00  0.00    +0.000 HD
BRANCH  22  25
ATOM     25  C   UNL     1      48.850   6.365  16.532  0.00  0.00    +0.000 A 
ATOM     26  C   UNL     1      49.519   6.743  17.693  0.00  0.00    +0.000 A 
ATOM     27  N   UNL     1      49.462   5.713  18.581  0.00  0.00    +0.000 N 
ATOM     28  C   UNL     1      48.738   4.690  18.048  0.00  0.00    +0.000 A 
ATOM     29  N   UNL     1      48.569   3.502  18.644  0.00  0.00    +0.000 NA
ATOM     30  C   UNL     1      47.802   2.685  17.909  0.00  0.00    +0.000 A 
ATOM     31  N   UNL     1      47.173   2.965  16.754  0.00  0.00    +0.000 NA
ATOM     32  C   UNL     1      47.373   4.185  16.202  0.00  0.00    +0.000 A 
ATOM     33  C   UNL     1      48.235   5.099  16.819  0.00  0.00    +0.000 A 
ATOM     34  H   UNL     1      49.927   5.667  19.479  0.00  0.00    +0.000 HD
BRANCH  32  35
ATOM     35  O   UNL     1      46.691   4.534  15.051  0.00  0.00    +0.000 OA
ATOM     36  C   UNL     1      46.996   3.682  13.949  0.00  0.00    +0.000 C 
ENDBRANCH  32  35
ENDBRANCH  22  25
ENDBRANCH  20  21
ENDBRANCH   4  20
TORSDOF 10
ENDMDL
MODEL 2
REMARK VINA RESULT:    -7.757      1.660      1.834
REMARK INTER + INTRA:         -13.756
REMARK INTER:                 -12.601
REMARK INTRA:                  -1.155
REMARK UNBOUND:                -1.464
REMARK  Name = 
REMARK  12 active torsions:
REMARK  status: ('A' for Active; 'I' for Inactive)
REMARK    1  A    between atoms: C_1  and  O_2
REMARK    2  A    between atoms: O_2  and  C_3
REMARK    3  A    between atoms: C_3  and  C_4
REMARK    4  A    between atoms: C_4  and  N_5
REMARK    5  A    between atoms: C_4  and  C_28
REMARK    6  A    between atoms: N_5  and  C_6
REMARK    7  A    between atoms: C_6  and  C_7
REMARK    8  A    between atoms: C_10  and  C_11
REMARK    9  A    between atoms: C_11  and  N_12
REMARK   10  A    between atoms: C_13  and  C_15
REMARK   11  A    between atoms: C_22  and  O_23
REMARK   12  A    between atoms: O_23  and  C_24
REMARK                            x       y       z     vdW  Elec       q    Type
REMARK                         _______ _______ _______ _____ _____    ______ ____
ROOT
ATOM      1  C   UNL     1      45.752   6.267  11.713  0.00  0.00    +0.000 A 
ATOM      2  C   UNL     1      46.609   5.410  12.370  0.00  0.00    +0.000 A 
ATOM      3  N   UNL     1      47.475   5.794  13.325  0.00  0.00    +0.000 NA
ATOM      4  C   UNL     1      47.459   7.099  13.654  0.00  0.00    +0.000 A 
ATOM      5  N   UNL     1      46.705   8.033  13.040  0.00  0.00    +0.000 NA
ATOM      6  C   UNL     1      45.859   7.589  12.088  0.00  0.00    +0.000 A 
ENDROOT
BRANCH   1   7
ATOM      7  C   UNL     1      44.776   5.788  10.686  0.00  0.00    +0.000 C 
BRANCH   7   8
ATOM      8  N   UNL     1      45.461   5.103   9.588  0.00  0.00    +0.000 NA
ATOM      9  H   UNL     1      45.308   5.630   8.725  0.00  0.00    +0.000 HD
BRANCH   8  10
ATOM     10  C   UNL     1      44.948   3.737   9.326  0.00  0.00    +0.000 C 
BRANCH  10  11
ATOM     11  C   UNL     1      45.746   3.025   8.236  0.00  0.00    +0.000 A 
ATOM     12  C   UNL     1      46.126   1.678   8.336  0.00  0.00    +0.000 A 
ATOM     13  C   UNL     1      46.909   1.073   7.352  0.00  0.00    +0.000 A 
ATOM     14  C   UNL     1      47.324   1.807   6.248  0.00  0.00    +0.000 A 
ATOM     15  C   UNL     1      46.944   3.138   6.117  0.00  0.00    +0.000 A 
ATOM     16  C   UNL     1      46.156   3.743   7.099  0.00  0.00    +0.000 A 
ENDBRANCH  10  11
BRANCH  10  17
ATOM     17  C   UNL     1      44.779   2.910  10.630  0.00  0.00    +0.000 C 
BRANCH  17  19
ATOM     18  C   UNL     1      43.323   3.107  12.451  0.00  0.00    +0.000 C 
ATOM     19  O   UNL     1      43.412   2.845  11.051  0.00  0.00    +0.000 OA
ENDBRANCH  17  19
ENDBRANCH  10  17
ENDBRANCH   8  10
ENDBRANCH   7   8
ENDBRANCH   1   7
BRANCH   4  20
ATOM     20  C   UNL     1      48.320   7.526  14.813  0.00  0.00    +0.000 C 
BRANCH  20  21
ATOM     21  N   UNL     1      48.934   6.430  15.531  0.00  0.00    +0.000 N 
ATOM     22  C   UNL     1      49.147   6.564  16.875  0.00  0.00    +0.000 C 
ATOM     23  O   UNL     1      48.712   7.529  17.500  0.00  0.00    +0.000 OA
ATOM     24  H   UNL     1      49.199   5.588  15.032  0.00  0.00    +0.000 HD
BRANCH  22  25
ATOM     25  C   UNL     1      49.998   5.570  17.516  0.00  0.00    +0.000 A 
ATOM     26  C   UNL     1      51.027   5.953  18.371  0.00  0.00    +0.000 A 
ATOM     27  N   UNL     1      51.815   4.870  18.615  0.00  0.00    +0.000 N 
ATOM     28  C   UNL     1      51.303   3.782  17.978  0.00  0.00    +0.000 A 
ATOM     29  N   UNL     1      51.896   2.579  17.955  0.00  0.00    +0.000 NA
ATOM     30  C   UNL     1      51.172   1.684  17.270  0.00  0.00    +0.000 A 
ATOM     31  N   UNL     1      49.960   1.858  16.715  0.00  0.00    +0.000 NA
ATOM     32  C   UNL     1      49.405   3.092  16.775  0.00  0.00    +0.000 A 
ATOM     33  C   UNL     1      50.104   4.144  17.378  0.00  0.00    +0.000 A 
ATOM     34  H   UNL     1      52.682   4.863  19.137  0.00  0.00    +0.000 HD
BRANCH  32  35
ATOM     35  O   UNL     1      48.131   3.293  16.276  0.00  0.00    +0.000 OA
ATOM     36  C   UNL     1      47.143   3.381  17.300  0.00  0.00    +0.000 C 
ENDBRANCH  32  35
ENDBRANCH  22  25
ENDBRANCH  20  21
ENDBRANCH   4  20
TORSDOF 10
ENDMDL
MODEL 3
REMARK VINA RESULT:    -7.238      1.405      2.469
REMARK INTER + INTRA:         -12.933
REMARK INTER:                 -11.816
REMARK INTRA:                  -1.117
REMARK UNBOUND:                -1.464
REMARK  Name = 
REMARK  12 active torsions:
REMARK  status: ('A' for Active; 'I' for Inactive)
REMARK    1  A    between atoms: C_1  and  O_2
REMARK    2  A    between atoms: O_2  and  C_3
REMARK    3  A    between atoms: C_3  and  C_4
REMARK    4  A    between atoms: C_4  and  N_5
REMARK    5  A    between atoms: C_4  and  C_28
REMARK    6  A    between atoms: N_5  and  C_6
REMARK    7  A    between atoms: C_6  and  C_7
REMARK    8  A    between atoms: C_10  and  C_11
REMARK    9  A    between atoms: C_11  and  N_12
REMARK   10  A    between atoms: C_13  and  C_15
REMARK   11  A    between atoms: C_22  and  O_23
REMARK   12  A    between atoms: O_23  and  C_24
REMARK                            x       y       z     vdW  Elec       q    Type
REMARK                         _______ _______ _______ _____ _____    ______ ____
ROOT
ATOM      1  C   UNL     1      45.599   6.617  11.569  0.00  0.00    +0.000 A 
ATOM      2  C   UNL     1      46.886   6.151  11.735  0.00  0.00    +0.000 A 
ATOM      3  N   UNL     1      47.766   6.663  12.613  0.00  0.00    +0.000 NA
ATOM      4  C   UNL     1      47.323   7.676  13.381  0.00  0.00    +0.000 A 
ATOM      5  N   UNL     1      46.106   8.247  13.265  0.00  0.00    +0.000 NA
ATOM      6  C   UNL     1      45.268   7.693  12.365  0.00  0.00    +0.000 A 
ENDROOT
BRANCH   1   7
ATOM      7  C   UNL     1      44.640   5.990  10.608  0.00  0.00    +0.000 C 
BRANCH   7   8
ATOM      8  N   UNL     1      45.351   5.274   9.547  0.00  0.00    +0.000 NA
ATOM      9  H   UNL     1      45.168   5.740   8.655  0.00  0.00    +0.000 HD
BRANCH   8  10
ATOM     10  C   UNL     1      44.904   3.871   9.372  0.00  0.00    +0.000 C 
BRANCH  10  11
ATOM     11  C   UNL     1      45.720   3.138   8.309  0.00  0.00    +0.000 A 
ATOM     12  C   UNL     1      46.006   1.766   8.389  0.00  0.00    +0.000 A 
ATOM     13  C   UNL     1      46.808   1.138   7.436  0.00  0.00    +0.000 A 
ATOM     14  C   UNL     1      47.336   1.874   6.382  0.00  0.00    +0.000 A 
ATOM     15  C   UNL     1      47.051   3.229   6.270  0.00  0.00    +0.000 A 
ATOM     16  C   UNL     1      46.244   3.859   7.221  0.00  0.00    +0.000 A 
ENDBRANCH  10  11
BRANCH  10  17
ATOM     17  C   UNL     1      44.797   3.113  10.723  0.00  0.00    +0.000 C 
BRANCH  17  19
ATOM     18  C   UNL     1      43.289   3.206  12.511  0.00  0.00    +0.000 C 
ATOM     19  O   UNL     1      43.435   2.915  11.121  0.00  0.00    +0.000 OA
ENDBRANCH  17  19
ENDBRANCH  10  17
ENDBRANCH   8  10
ENDBRANCH   7   8
ENDBRANCH   1   7
BRANCH   4  20
ATOM     20  C   UNL     1      48.244   8.172  14.463  0.00  0.00    +0.000 C 
BRANCH  20  21
ATOM     21  N   UNL     1      48.139   7.446  15.710  0.00  0.00    +0.000 N 
ATOM     22  C   UNL     1      49.160   6.610  16.069  0.00  0.00    +0.000 C 
ATOM     23  O   UNL     1      50.209   6.565  15.429  0.00  0.00    +0.000 OA
ATOM     24  H   UNL     1      47.318   7.563  16.292  0.00  0.00    +0.000 HD
BRANCH  22  25
ATOM     25  C   UNL     1      48.914   5.700  17.180  0.00  0.00    +0.000 A 
ATOM     26  C   UNL     1      47.884   4.765  17.125  0.00  0.00    +0.000 A 
ATOM     27  N   UNL     1      47.709   4.239  18.368  0.00  0.00    +0.000 N 
ATOM     28  C   UNL     1      48.625   4.772  19.222  0.00  0.00    +0.000 A 
ATOM     29  N   UNL     1      48.661   4.517  20.538  0.00  0.00    +0.000 NA
ATOM     30  C   UNL     1      49.671   5.160  21.139  0.00  0.00    +0.000 A 
ATOM     31  N   UNL     1      50.623   5.916  20.564  0.00  0.00    +0.000 NA
ATOM     32  C   UNL     1      50.542   6.132  19.230  0.00  0.00    +0.000 A 
ATOM     33  C   UNL     1      49.475   5.599  18.499  0.00  0.00    +0.000 A 
ATOM     34  H   UNL     1      46.981   3.594  18.652  0.00  0.00    +0.000 HD
BRANCH  32  35
ATOM     35  O   UNL     1      51.540   6.847  18.593  0.00  0.00    +0.000 OA
ATOM     36  C   UNL     1      52.453   6.011  17.885  0.00  0.00    +0.000 C 
ENDBRANCH  32  35
ENDBRANCH  22  25
ENDBRANCH  20  21
ENDBRANCH   4  20
TORSDOF 10
ENDMDL
MODEL 4
REMARK VINA RESULT:    -7.194      3.115      4.934
REMARK INTER + INTRA:         -12.863
REMARK INTER:                 -11.457
REMARK INTRA:                  -1.406
REMARK UNBOUND:                -1.464
REMARK  Name = 
REMARK  12 active torsions:
REMARK  status: ('A' for Active; 'I' for Inactive)
REMARK    1  A    between atoms: C_1  and  O_2
REMARK    2  A    between atoms: O_2  and  C_3
REMARK    3  A    between atoms: C_3  and  C_4
REMARK    4  A    between atoms: C_4  and  N_5
REMARK    5  A    between atoms: C_4  and  C_28
REMARK    6  A    between atoms: N_5  and  C_6
REMARK    7  A    between atoms: C_6  and  C_7
REMARK    8  A    between atoms: C_10  and  C_11
REMARK    9  A    between atoms: C_11  and  N_12
REMARK   10  A    between atoms: C_13  and  C_15
REMARK   11  A    between atoms: C_22  and  O_23
REMARK   12  A    between atoms: O_23  and  C_24
REMARK                            x       y       z     vdW  Elec       q    Type
REMARK                         _______ _______ _______ _____ _____    ______ ____
ROOT
ATOM      1  C   UNL     1      47.092   5.985  13.851  0.00  0.00    +0.000 A 
ATOM      2  C   UNL     1      46.457   4.775  14.033  0.00  0.00    +0.000 A 
ATOM      3  N   UNL     1      46.746   3.913  15.024  0.00  0.00    +0.000 NA
ATOM      4  C   UNL     1      47.702   4.299  15.890  0.00  0.00    +0.000 A 
ATOM      5  N   UNL     1      48.425   5.432  15.775  0.00  0.00    +0.000 NA
ATOM      6  C   UNL     1      48.093   6.255  14.760  0.00  0.00    +0.000 A 
ENDROOT
BRANCH   1   7
ATOM      7  C   UNL     1      46.709   6.931  12.758  0.00  0.00    +0.000 C 
BRANCH   7   8
ATOM      8  N   UNL     1      46.742   6.269  11.453  0.00  0.00    +0.000 NA
ATOM      9  H   UNL     1      47.382   6.780  10.840  0.00  0.00    +0.000 HD
BRANCH   8  10
ATOM     10  C   UNL     1      45.433   6.260  10.756  0.00  0.00    +0.000 C 
BRANCH  10  11
ATOM     11  C   UNL     1      45.148   4.915  10.090  0.00  0.00    +0.000 A 
ATOM     12  C   UNL     1      44.501   3.864  10.759  0.00  0.00    +0.000 A 
ATOM     13  C   UNL     1      44.311   2.626  10.144  0.00  0.00    +0.000 A 
ATOM     14  C   UNL     1      44.764   2.419   8.847  0.00  0.00    +0.000 A 
ATOM     15  C   UNL     1      45.390   3.451   8.158  0.00  0.00    +0.000 A 
ATOM     16  C   UNL     1      45.577   4.693   8.770  0.00  0.00    +0.000 A 
ENDBRANCH  10  11
BRANCH  10  17
ATOM     17  C   UNL     1      44.281   6.776  11.660  0.00  0.00    +0.000 C 
BRANCH  17  19
ATOM     18  C   UNL     1      44.234   9.055  11.129  0.00  0.00    +0.000 C 
ATOM     19  O   UNL     1      43.529   7.819  11.027  0.00  0.00    +0.000 OA
ENDBRANCH  17  19
ENDBRANCH  10  17
ENDBRANCH   8  10
ENDBRANCH   7   8
ENDBRANCH   1   7
BRANCH   4  20
ATOM     20  C   UNL     1      47.946   3.414  17.084  0.00  0.00    +0.000 C 
BRANCH  20  21
ATOM     21  N   UNL     1      49.331   3.339  17.494  0.00  0.00    +0.000 N 
ATOM     22  C   UNL     1      50.136   2.398  16.915  0.00  0.00    +0.000 C 
ATOM     23  O   UNL     1      49.747   1.713  15.971  0.00  0.00    +0.000 OA
ATOM     24  H   UNL     1      49.681   3.976  18.200  0.00  0.00    +0.000 HD
BRANCH  22  25
ATOM     25  C   UNL     1      51.438   2.167  17.529  0.00  0.00    +0.000 A 
ATOM     26  C   UNL     1      51.973   0.885  17.612  0.00  0.00    +0.000 A 
ATOM     27  N   UNL     1      53.046   0.917  18.449  0.00  0.00    +0.000 N 
ATOM     28  C   UNL     1      53.253   2.193  18.877  0.00  0.00    +0.000 A 
ATOM     29  N   UNL     1      54.185   2.539  19.776  0.00  0.00    +0.000 NA
ATOM     30  C   UNL     1      54.182   3.859  20.007  0.00  0.00    +0.000 A 
ATOM     31  N   UNL     1      53.435   4.799  19.401  0.00  0.00    +0.000 NA
ATOM     32  C   UNL     1      52.515   4.392  18.495  0.00  0.00    +0.000 A 
ATOM     33  C   UNL     1      52.347   3.027  18.235  0.00  0.00    +0.000 A 
ATOM     34  H   UNL     1      53.587   0.121  18.763  0.00  0.00    +0.000 HD
BRANCH  32  35
ATOM     35  O   UNL     1      51.775   5.333  17.803  0.00  0.00    +0.000 OA
ATOM     36  C   UNL     1      52.530   5.990  16.787  0.00  0.00    +0.000 C 
ENDBRANCH  32  35
ENDBRANCH  22  25
ENDBRANCH  20  21
ENDBRANCH   4  20
TORSDOF 10
ENDMDL
MODEL 5
REMARK VINA RESULT:    -7.152      2.543      3.211
REMARK INTER + INTRA:         -12.797
REMARK INTER:                 -11.591
REMARK INTRA:                  -1.207
REMARK UNBOUND:                -1.464
REMARK  Name = 
REMARK  12 active torsions:
REMARK  status: ('A' for Active; 'I' for Inactive)
REMARK    1  A    between atoms: C_1  and  O_2
REMARK    2  A    between atoms: O_2  and  C_3
REMARK    3  A    between atoms: C_3  and  C_4
REMARK    4  A    between atoms: C_4  and  N_5
REMARK    5  A    between atoms: C_4  and  C_28
REMARK    6  A    between atoms: N_5  and  C_6
REMARK    7  A    between atoms: C_6  and  C_7
REMARK    8  A    between atoms: C_10  and  C_11
REMARK    9  A    between atoms: C_11  and  N_12
REMARK   10  A    between atoms: C_13  and  C_15
REMARK   11  A    between atoms: C_22  and  O_23
REMARK   12  A    between atoms: O_23  and  C_24
REMARK                            x       y       z     vdW  Elec       q    Type
REMARK                         _______ _______ _______ _____ _____    ______ ____
ROOT
ATOM      1  C   UNL     1      47.089   6.496  12.740  0.00  0.00    +0.000 A 
ATOM      2  C   UNL     1      47.816   7.667  12.765  0.00  0.00    +0.000 A 
ATOM      3  N   UNL     1      48.717   7.975  13.714  0.00  0.00    +0.000 NA
ATOM      4  C   UNL     1      48.917   7.048  14.670  0.00  0.00    +0.000 A 
ATOM      5  N   UNL     1      48.224   5.896  14.774  0.00  0.00    +0.000 NA
ATOM      6  C   UNL     1      47.330   5.644  13.796  0.00  0.00    +0.000 A 
ENDROOT
BRANCH   1   7
ATOM      7  C   UNL     1      46.126   6.178  11.641  0.00  0.00    +0.000 C 
BRANCH   7   8
ATOM      8  N   UNL     1      45.674   4.788  11.723  0.00  0.00    +0.000 NA
ATOM      9  H   UNL     1      46.476   4.171  11.571  0.00  0.00    +0.000 HD
BRANCH   8  10
ATOM     10  C   UNL     1      44.678   4.422  10.687  0.00  0.00    +0.000 C 
BRANCH  10  11
ATOM     11  C   UNL     1      45.326   3.731   9.489  0.00  0.00    +0.000 A 
ATOM     12  C   UNL     1      45.864   4.443   8.406  0.00  0.00    +0.000 A 
ATOM     13  C   UNL     1      46.393   3.782   7.297  0.00  0.00    +0.000 A 
ATOM     14  C   UNL     1      46.394   2.393   7.254  0.00  0.00    +0.000 A 
ATOM     15  C   UNL     1      45.884   1.665   8.323  0.00  0.00    +0.000 A 
ATOM     16  C   UNL     1      45.359   2.326   9.436  0.00  0.00    +0.000 A 
ENDBRANCH  10  11
BRANCH  10  17
ATOM     17  C   UNL     1      43.465   3.657  11.280  0.00  0.00    +0.000 C 
BRANCH  17  19
ATOM     18  C   UNL     1      42.321   5.637  11.777  0.00  0.00    +0.000 C 
ATOM     19  O   UNL     1      42.808   4.406  12.309  0.00  0.00    +0.000 OA
ENDBRANCH  17  19
ENDBRANCH  10  17
ENDBRANCH   8  10
ENDBRANCH   7   8
ENDBRANCH   1   7
BRANCH   4  20
ATOM     20  C   UNL     1      50.018   7.311  15.663  0.00  0.00    +0.000 C 
BRANCH  20  21
ATOM     21  N   UNL     1      50.401   6.156  16.444  0.00  0.00    +0.000 N 
ATOM     22  C   UNL     1      51.506   6.242  17.244  0.00  0.00    +0.000 C 
ATOM     23  O   UNL     1      52.094   7.309  17.413  0.00  0.00    +0.000 OA
ATOM     24  H   UNL     1      49.852   5.305  16.385  0.00  0.00    +0.000 HD
BRANCH  22  25
ATOM     25  C   UNL     1      52.019   4.999  17.807  0.00  0.00    +0.000 A 
ATOM     26  C   UNL     1      53.220   4.974  18.510  0.00  0.00    +0.000 A 
ATOM     27  N   UNL     1      53.590   3.677  18.689  0.00  0.00    +0.000 N 
ATOM     28  C   UNL     1      52.641   2.855  18.163  0.00  0.00    +0.000 A 
ATOM     29  N   UNL     1      52.752   1.520  18.108  0.00  0.00    +0.000 NA
ATOM     30  C   UNL     1      51.671   0.956  17.554  0.00  0.00    +0.000 A 
ATOM     31  N   UNL     1      50.541   1.563  17.152  0.00  0.00    +0.000 NA
ATOM     32  C   UNL     1      50.480   2.913  17.239  0.00  0.00    +0.000 A 
ATOM     33  C   UNL     1      51.585   3.634  17.708  0.00  0.00    +0.000 A 
ATOM     34  H   UNL     1      54.457   3.350  19.096  0.00  0.00    +0.000 HD
BRANCH  32  35
ATOM     35  O   UNL     1      49.310   3.567  16.899  0.00  0.00    +0.000 OA
ATOM     36  C   UNL     1      48.274   2.673  16.499  0.00  0.00    +0.000 C 
ENDBRANCH  32  35
ENDBRANCH  22  25
ENDBRANCH  20  21
ENDBRANCH   4  20
TORSDOF 10
ENDMDL
MODEL 6
REMARK VINA RESULT:    -6.711      2.377      8.202
REMARK INTER + INTRA:         -12.098
REMARK INTER:                 -10.408
REMARK INTRA:                  -1.689
REMARK UNBOUND:                -1.464
REMARK  Name = 
REMARK  12 active torsions:
REMARK  status: ('A' for Active; 'I' for Inactive)
REMARK    1  A    between atoms: C_1  and  O_2
REMARK    2  A    between atoms: O_2  and  C_3
REMARK    3  A    between atoms: C_3  and  C_4
REMARK    4  A    between atoms: C_4  and  N_5
REMARK    5  A    between atoms: C_4  and  C_28
REMARK    6  A    between atoms: N_5  and  C_6
REMARK    7  A    between atoms: C_6  and  C_7
REMARK    8  A    between atoms: C_10  and  C_11
REMARK    9  A    between atoms: C_11  and  N_12
REMARK   10  A    between atoms: C_13  and  C_15
REMARK   11  A    between atoms: C_22  and  O_23
REMARK   12  A    between atoms: O_23  and  C_24
REMARK                            x       y       z     vdW  Elec       q    Type
REMARK                         _______ _______ _______ _____ _____    ______ ____
ROOT
ATOM      1  C   UNL     1      48.821   7.801  15.879  0.00  0.00    +0.000 A 
ATOM      2  C   UNL     1      48.254   8.858  15.200  0.00  0.00    +0.000 A 
ATOM      3  N   UNL     1      48.015   8.863  13.876  0.00  0.00    +0.000 NA
ATOM      4  C   UNL     1      48.337   7.741  13.207  0.00  0.00    +0.000 A 
ATOM      5  N   UNL     1      48.946   6.671  13.759  0.00  0.00    +0.000 NA
ATOM      6  C   UNL     1      49.164   6.724  15.089  0.00  0.00    +0.000 A 
ENDROOT
BRANCH   1   7
ATOM      7  C   UNL     1      49.031   7.823  17.359  0.00  0.00    +0.000 C 
BRANCH   7   8
ATOM      8  N   UNL     1      48.013   7.027  18.047  0.00  0.00    +0.000 NA
ATOM      9  H   UNL     1      47.509   7.630  18.701  0.00  0.00    +0.000 HD
BRANCH   8  10
ATOM     10  C   UNL     1      48.572   5.922  18.863  0.00  0.00    +0.000 C 
BRANCH  10  11
ATOM     11  C   UNL     1      48.754   4.643  18.047  0.00  0.00    +0.000 A 
ATOM     12  C   UNL     1      47.726   4.092  17.267  0.00  0.00    +0.000 A 
ATOM     13  C   UNL     1      47.903   2.889  16.583  0.00  0.00    +0.000 A 
ATOM     14  C   UNL     1      49.116   2.217  16.666  0.00  0.00    +0.000 A 
ATOM     15  C   UNL     1      50.157   2.753  17.416  0.00  0.00    +0.000 A 
ATOM     16  C   UNL     1      49.982   3.960  18.098  0.00  0.00    +0.000 A 
ENDBRANCH  10  11
BRANCH  10  17
ATOM     17  C   UNL     1      49.836   6.354  19.654  0.00  0.00    +0.000 C 
BRANCH  17  19
ATOM     18  C   UNL     1      50.369   8.206  20.982  0.00  0.00    +0.000 C 
ATOM     19  O   UNL     1      49.503   7.081  20.843  0.00  0.00    +0.000 OA
ENDBRANCH  17  19
ENDBRANCH  10  17
ENDBRANCH   8  10
ENDBRANCH   7   8
ENDBRANCH   1   7
BRANCH   4  20
ATOM     20  C   UNL     1      47.952   7.673  11.754  0.00  0.00    +0.000 C 
BRANCH  20  21
ATOM     21  N   UNL     1      46.966   6.659  11.448  0.00  0.00    +0.000 N 
ATOM     22  C   UNL     1      45.642   6.969  11.588  0.00  0.00    +0.000 C 
ATOM     23  O   UNL     1      45.274   8.115  11.836  0.00  0.00    +0.000 OA
ATOM     24  H   UNL     1      47.268   5.741  11.141  0.00  0.00    +0.000 HD
BRANCH  22  25
ATOM     25  C   UNL     1      44.691   5.866  11.533  0.00  0.00    +0.000 A 
ATOM     26  C   UNL     1      43.698   5.728  12.498  0.00  0.00    +0.000 A 
ATOM     27  N   UNL     1      43.132   4.498  12.366  0.00  0.00    +0.000 N 
ATOM     28  C   UNL     1      43.698   3.846  11.313  0.00  0.00    +0.000 A 
ATOM     29  N   UNL     1      43.413   2.581  10.975  0.00  0.00    +0.000 NA
ATOM     30  C   UNL     1      44.100   2.192   9.892  0.00  0.00    +0.000 A 
ATOM     31  N   UNL     1      44.926   2.933   9.132  0.00  0.00    +0.000 NA
ATOM     32  C   UNL     1      45.170   4.208   9.517  0.00  0.00    +0.000 A 
ATOM     33  C   UNL     1      44.592   4.707  10.690  0.00  0.00    +0.000 A 
ATOM     34  H   UNL     1      42.438   4.086  12.978  0.00  0.00    +0.000 HD
BRANCH  32  35
ATOM     35  O   UNL     1      45.960   5.021   8.724  0.00  0.00    +0.000 OA
ATOM     36  C   UNL     1      46.498   4.337   7.595  0.00  0.00    +0.000 C 
ENDBRANCH  32  35
ENDBRANCH  22  25
ENDBRANCH  20  21
ENDBRANCH   4  20
TORSDOF 10
ENDMDL
MODEL 7
REMARK VINA RESULT:    -6.655      2.340      4.592
REMARK INTER + INTRA:         -12.009
REMARK INTER:                 -10.789
REMARK INTRA:                  -1.220
REMARK UNBOUND:                -1.464
REMARK  Name = 
REMARK  12 active torsions:
REMARK  status: ('A' for Active; 'I' for Inactive)
REMARK    1  A    between atoms: C_1  and  O_2
REMARK    2  A    between atoms: O_2  and  C_3
REMARK    3  A    between atoms: C_3  and  C_4
REMARK    4  A    between atoms: C_4  and  N_5
REMARK    5  A    between atoms: C_4  and  C_28
REMARK    6  A    between atoms: N_5  and  C_6
REMARK    7  A    between atoms: C_6  and  C_7
REMARK    8  A    between atoms: C_10  and  C_11
REMARK    9  A    between atoms: C_11  and  N_12
REMARK   10  A    between atoms: C_13  and  C_15
REMARK   11  A    between atoms: C_22  and  O_23
REMARK   12  A    between atoms: O_23  and  C_24
REMARK                            x       y       z     vdW  Elec       q    Type
REMARK                         _______ _______ _______ _____ _____    ______ ____
ROOT
ATOM      1  C   UNL     1      44.350   3.359  12.105  0.00  0.00    +0.000 A 
ATOM      2  C   UNL     1      44.047   4.423  12.928  0.00  0.00    +0.000 A 
ATOM      3  N   UNL     1      44.890   4.931  13.844  0.00  0.00    +0.000 NA
ATOM      4  C   UNL     1      46.106   4.360  13.917  0.00  0.00    +0.000 A 
ATOM      5  N   UNL     1      46.489   3.282  13.202  0.00  0.00    +0.000 NA
ATOM      6  C   UNL     1      45.600   2.814  12.302  0.00  0.00    +0.000 A 
ENDROOT
BRANCH   1   7
ATOM      7  C   UNL     1      43.395   2.853  11.070  0.00  0.00    +0.000 C 
BRANCH   7   8
ATOM      8  N   UNL     1      43.698   3.417   9.754  0.00  0.00    +0.000 NA
ATOM      9  H   UNL     1      43.486   2.717   9.039  0.00  0.00    +0.000 HD
BRANCH   8  10
ATOM     10  C   UNL     1      45.127   3.767   9.569  0.00  0.00    +0.000 C 
BRANCH  10  11
ATOM     11  C   UNL     1      45.769   2.972   8.433  0.00  0.00    +0.000 A 
ATOM     12  C   UNL     1      46.022   1.594   8.524  0.00  0.00    +0.000 A 
ATOM     13  C   UNL     1      46.666   0.909   7.494  0.00  0.00    +0.000 A 
ATOM     14  C   UNL     1      47.067   1.592   6.352  0.00  0.00    +0.000 A 
ATOM     15  C   UNL     1      46.810   2.952   6.230  0.00  0.00    +0.000 A 
ATOM     16  C   UNL     1      46.161   3.639   7.259  0.00  0.00    +0.000 A 
ENDBRANCH  10  11
BRANCH  10  17
ATOM     17  C   UNL     1      45.352   5.300   9.475  0.00  0.00    +0.000 C 
BRANCH  17  19
ATOM     18  C   UNL     1      45.666   7.020  11.031  0.00  0.00    +0.000 C 
ATOM     19  O   UNL     1      46.184   5.787  10.535  0.00  0.00    +0.000 OA
ENDBRANCH  17  19
ENDBRANCH  10  17
ENDBRANCH   8  10
ENDBRANCH   7   8
ENDBRANCH   1   7
BRANCH   4  20
ATOM     20  C   UNL     1      47.111   5.000  14.838  0.00  0.00    +0.000 C 
BRANCH  20  21
ATOM     21  N   UNL     1      47.537   6.320  14.425  0.00  0.00    +0.000 N 
ATOM     22  C   UNL     1      48.603   6.892  15.061  0.00  0.00    +0.000 C 
ATOM     23  O   UNL     1      49.282   6.264  15.871  0.00  0.00    +0.000 OA
ATOM     24  H   UNL     1      47.041   6.798  13.682  0.00  0.00    +0.000 HD
BRANCH  22  25
ATOM     25  C   UNL     1      48.841   8.309  14.815  0.00  0.00    +0.000 A 
ATOM     26  C   UNL     1      48.993   9.203  15.871  0.00  0.00    +0.000 A 
ATOM     27  N   UNL     1      48.937  10.470  15.379  0.00  0.00    +0.000 N 
ATOM     28  C   UNL     1      48.797  10.428  14.025  0.00  0.00    +0.000 A 
ATOM     29  N   UNL     1      48.629  11.512  13.255  0.00  0.00    +0.000 NA
ATOM     30  C   UNL     1      48.532  11.187  11.959  0.00  0.00    +0.000 A 
ATOM     31  N   UNL     1      48.657   9.968  11.404  0.00  0.00    +0.000 NA
ATOM     32  C   UNL     1      48.834   8.910  12.231  0.00  0.00    +0.000 A 
ATOM     33  C   UNL     1      48.853   9.101  13.617  0.00  0.00    +0.000 A 
ATOM     34  H   UNL     1      48.938  11.326  15.920  0.00  0.00    +0.000 HD
BRANCH  32  35
ATOM     35  O   UNL     1      49.035   7.651  11.694  0.00  0.00    +0.000 OA
ATOM     36  C   UNL     1      50.384   7.433  11.287  0.00  0.00    +0.000 C 
ENDBRANCH  32  35
ENDBRANCH  22  25
ENDBRANCH  20  21
ENDBRANCH   4  20
TORSDOF 10
ENDMDL
MODEL 8
REMARK VINA RESULT:    -6.579      2.485      3.806
REMARK INTER + INTRA:         -11.889
REMARK INTER:                 -11.125
REMARK INTRA:                  -0.765
REMARK UNBOUND:                -1.464
REMARK  Name = 
REMARK  12 active torsions:
REMARK  status: ('A' for Active; 'I' for Inactive)
REMARK    1  A    between atoms: C_1  and  O_2
REMARK    2  A    between atoms: O_2  and  C_3
REMARK    3  A    between atoms: C_3  and  C_4
REMARK    4  A    between atoms: C_4  and  N_5
REMARK    5  A    between atoms: C_4  and  C_28
REMARK    6  A    between atoms: N_5  and  C_6
REMARK    7  A    between atoms: C_6  and  C_7
REMARK    8  A    between atoms: C_10  and  C_11
REMARK    9  A    between atoms: C_11  and  N_12
REMARK   10  A    between atoms: C_13  and  C_15
REMARK   11  A    between atoms: C_22  and  O_23
REMARK   12  A    between atoms: O_23  and  C_24
REMARK                            x       y       z     vdW  Elec       q    Type
REMARK                         _______ _______ _______ _____ _____    ______ ____
ROOT
ATOM      1  C   UNL     1      44.391   3.351  12.103  0.00  0.00    +0.000 A 
ATOM      2  C   UNL     1      45.665   2.875  12.329  0.00  0.00    +0.000 A 
ATOM      3  N   UNL     1      46.468   3.310  13.316  0.00  0.00    +0.000 NA
ATOM      4  C   UNL     1      45.955   4.249  14.132  0.00  0.00    +0.000 A 
ATOM      5  N   UNL     1      44.746   4.824  13.971  0.00  0.00    +0.000 NA
ATOM      6  C   UNL     1      43.987   4.350  12.961  0.00  0.00    +0.000 A 
ENDROOT
BRANCH   1   7
ATOM      7  C   UNL     1      43.518   2.808  11.017  0.00  0.00    +0.000 C 
BRANCH   7   8
ATOM      8  N   UNL     1      43.787   3.475   9.742  0.00  0.00    +0.000 NA
ATOM      9  H   UNL     1      43.557   2.834   8.979  0.00  0.00    +0.000 HD
BRANCH   8  10
ATOM     10  C   UNL     1      45.211   3.840   9.549  0.00  0.00    +0.000 C 
BRANCH  10  11
ATOM     11  C   UNL     1      45.858   3.044   8.418  0.00  0.00    +0.000 A 
ATOM     12  C   UNL     1      46.046   1.655   8.484  0.00  0.00    +0.000 A 
ATOM     13  C   UNL     1      46.697   0.964   7.461  0.00  0.00    +0.000 A 
ATOM     14  C   UNL     1      47.170   1.654   6.351  0.00  0.00    +0.000 A 
ATOM     15  C   UNL     1      46.978   3.027   6.254  0.00  0.00    +0.000 A 
ATOM     16  C   UNL     1      46.322   3.719   7.275  0.00  0.00    +0.000 A 
ENDBRANCH  10  11
BRANCH  10  17
ATOM     17  C   UNL     1      45.417   5.376   9.441  0.00  0.00    +0.000 C 
BRANCH  17  19
ATOM     18  C   UNL     1      45.362   6.974  11.150  0.00  0.00    +0.000 C 
ATOM     19  O   UNL     1      46.112   5.905  10.577  0.00  0.00    +0.000 OA
ENDBRANCH  17  19
ENDBRANCH  10  17
ENDBRANCH   8  10
ENDBRANCH   7   8
ENDBRANCH   1   7
BRANCH   4  20
ATOM     20  C   UNL     1      46.783   4.650  15.324  0.00  0.00    +0.000 C 
BRANCH  20  21
ATOM     21  N   UNL     1      47.907   3.777  15.587  0.00  0.00    +0.000 N 
ATOM     22  C   UNL     1      48.403   3.713  16.859  0.00  0.00    +0.000 C 
ATOM     23  O   UNL     1      47.838   4.271  17.798  0.00  0.00    +0.000 OA
ATOM     24  H   UNL     1      48.308   3.235  14.831  0.00  0.00    +0.000 HD
BRANCH  22  25
ATOM     25  C   UNL     1      49.685   3.043  17.040  0.00  0.00    +0.000 A 
ATOM     26  C   UNL     1      49.857   1.715  16.661  0.00  0.00    +0.000 A 
ATOM     27  N   UNL     1      51.036   1.267  17.174  0.00  0.00    +0.000 N 
ATOM     28  C   UNL     1      51.658   2.279  17.838  0.00  0.00    +0.000 A 
ATOM     29  N   UNL     1      52.801   2.135  18.523  0.00  0.00    +0.000 NA
ATOM     30  C   UNL     1      53.200   3.292  19.068  0.00  0.00    +0.000 A 
ATOM     31  N   UNL     1      52.637   4.505  18.928  0.00  0.00    +0.000 NA
ATOM     32  C   UNL     1      51.488   4.593  18.217  0.00  0.00    +0.000 A 
ATOM     33  C   UNL     1      50.909   3.438  17.679  0.00  0.00    +0.000 A 
ATOM     34  H   UNL     1      51.389   0.319  17.131  0.00  0.00    +0.000 HD
BRANCH  32  35
ATOM     35  O   UNL     1      50.916   5.832  17.995  0.00  0.00    +0.000 OA
ATOM     36  C   UNL     1      51.061   6.274  16.648  0.00  0.00    +0.000 C 
ENDBRANCH  32  35
ENDBRANCH  22  25
ENDBRANCH  20  21
ENDBRANCH   4  20
TORSDOF 10
ENDMDL
MODEL 9
REMARK VINA RESULT:    -6.458      3.610      5.167
REMARK INTER + INTRA:         -11.698
REMARK INTER:                 -10.777
REMARK INTRA:                  -0.920
REMARK UNBOUND:                -1.464
REMARK  Name = 
REMARK  12 active torsions:
REMARK  status: ('A' for Active; 'I' for Inactive)
REMARK    1  A    between atoms: C_1  and  O_2
REMARK    2  A    between atoms: O_2  and  C_3
REMARK    3  A    between atoms: C_3  and  C_4
REMARK    4  A    between atoms: C_4  and  N_5
REMARK    5  A    between atoms: C_4  and  C_28
REMARK    6  A    between atoms: N_5  and  C_6
REMARK    7  A    between atoms: C_6  and  C_7
REMARK    8  A    between atoms: C_10  and  C_11
REMARK    9  A    between atoms: C_11  and  N_12
REMARK   10  A    between atoms: C_13  and  C_15
REMARK   11  A    between atoms: C_22  and  O_23
REMARK   12  A    between atoms: O_23  and  C_24
REMARK                            x       y       z     vdW  Elec       q    Type
REMARK                         _______ _______ _______ _____ _____    ______ ____
ROOT
ATOM      1  C   UNL     1      47.514   5.579  14.229  0.00  0.00    +0.000 A 
ATOM      2  C   UNL     1      48.287   6.442  14.975  0.00  0.00    +0.000 A 
ATOM      3  N   UNL     1      48.614   6.240  16.264  0.00  0.00    +0.000 NA
ATOM      4  C   UNL     1      48.164   5.100  16.821  0.00  0.00    +0.000 A 
ATOM      5  N   UNL     1      47.356   4.214  16.203  0.00  0.00    +0.000 NA
ATOM      6  C   UNL     1      47.059   4.473  14.913  0.00  0.00    +0.000 A 
ENDROOT
BRANCH   1   7
ATOM      7  C   UNL     1      47.210   5.825  12.785  0.00  0.00    +0.000 C 
BRANCH   7   8
ATOM      8  N   UNL     1      45.911   5.258  12.417  0.00  0.00    +0.000 NA
ATOM      9  H   UNL     1      46.003   4.242  12.344  0.00  0.00    +0.000 HD
BRANCH   8  10
ATOM     10  C   UNL     1      45.412   5.718  11.099  0.00  0.00    +0.000 C 
BRANCH  10  11
ATOM     11  C   UNL     1      45.313   4.572  10.094  0.00  0.00    +0.000 A 
ATOM     12  C   UNL     1      44.884   3.285  10.455  0.00  0.00    +0.000 A 
ATOM     13  C   UNL     1      44.863   2.243   9.528  0.00  0.00    +0.000 A 
ATOM     14  C   UNL     1      45.271   2.472   8.220  0.00  0.00    +0.000 A 
ATOM     15  C   UNL     1      45.681   3.742   7.832  0.00  0.00    +0.000 A 
ATOM     16  C   UNL     1      45.697   4.787   8.759  0.00  0.00    +0.000 A 
ENDBRANCH  10  11
BRANCH  10  17
ATOM     17  C   UNL     1      44.118   6.567  11.221  0.00  0.00    +0.000 C 
BRANCH  17  19
ATOM     18  C   UNL     1      42.270   5.361  12.000  0.00  0.00    +0.000 C 
ATOM     19  O   UNL     1      42.953   5.828  10.837  0.00  0.00    +0.000 OA
ENDBRANCH  17  19
ENDBRANCH  10  17
ENDBRANCH   8  10
ENDBRANCH   7   8
ENDBRANCH   1   7
BRANCH   4  20
ATOM     20  C   UNL     1      48.631   4.787  18.218  0.00  0.00    +0.000 C 
BRANCH  20  21
ATOM     21  N   UNL     1      49.523   3.651  18.304  0.00  0.00    +0.000 N 
ATOM     22  C   UNL     1      50.848   3.835  18.022  0.00  0.00    +0.000 C 
ATOM     23  O   UNL     1      51.314   4.957  17.830  0.00  0.00    +0.000 OA
ATOM     24  H   UNL     1      49.156   2.743  18.566  0.00  0.00    +0.000 HD
BRANCH  22  25
ATOM     25  C   UNL     1      51.665   2.640  17.856  0.00  0.00    +0.000 A 
ATOM     26  C   UNL     1      51.162   1.512  17.215  0.00  0.00    +0.000 A 
ATOM     27  N   UNL     1      52.016   0.474  17.429  0.00  0.00    +0.000 N 
ATOM     28  C   UNL     1      53.084   0.904  18.155  0.00  0.00    +0.000 A 
ATOM     29  N   UNL     1      54.061   0.101  18.599  0.00  0.00    +0.000 NA
ATOM     30  C   UNL     1      54.995   0.785  19.274  0.00  0.00    +0.000 A 
ATOM     31  N   UNL     1      55.068   2.115  19.459  0.00  0.00    +0.000 NA
ATOM     32  C   UNL     1      54.057   2.878  18.980  0.00  0.00    +0.000 A 
ATOM     33  C   UNL     1      52.967   2.276  18.342  0.00  0.00    +0.000 A 
ATOM     34  H   UNL     1      51.873  -0.489  17.152  0.00  0.00    +0.000 HD
BRANCH  32  35
ATOM     35  O   UNL     1      54.130   4.255  19.092  0.00  0.00    +0.000 OA
ATOM     36  C   UNL     1      54.978   4.844  18.108  0.00  0.00    +0.000 C 
ENDBRANCH  32  35
ENDBRANCH  22  25
ENDBRANCH  20  21
ENDBRANCH   4  20
TORSDOF 10
ENDMDL
