MODEL 1
REMARK VINA RESULT:    -8.107      0.000      0.000
REMARK INTER + INTRA:         -12.666
REMARK INTER:                 -11.424
REMARK INTRA:                  -1.241
REMARK UNBOUND:                -1.241
REMARK  Name = 
REMARK  7 active torsions:
REMARK  status: ('A' for Active; 'I' for Inactive)
REMARK    1  A    between atoms: C_2  and  C_20
REMARK    2  A    between atoms: N_3  and  C_4
REMARK    3  A    between atoms: C_4  and  C_5
REMARK    4  A    between atoms: C_8  and  C_9
REMARK    5  A    between atoms: C_9  and  O_10
REMARK    6  A    between atoms: O_10  and  C_11
REMARK    7  A    between atoms: C_11  and  C_12
REMARK                            x       y       z     vdW  Elec       q    Type
REMARK                         _______ _______ _______ _____ _____    ______ ____
ROOT
ATOM      1  C   UNL     1      47.167   8.435  12.832  0.00  0.00    +0.000 C 
ENDROOT
BRANCH   1   2
ATOM      2  C   UNL     1      46.263   7.354  12.296  0.00  0.00    +0.000 A 
ATOM      3  C   UNL     1      45.011   7.132  12.882  0.00  0.00    +0.000 A 
ATOM      4  C   UNL     1      44.157   6.151  12.376  0.00  0.00    +0.000 A 
ATOM      5  C   UNL     1      44.539   5.359  11.285  0.00  0.00    +0.000 A 
ATOM      6  C   UNL     1      45.819   5.533  10.743  0.00  0.00    +0.000 A 
ATOM      7  C   UNL     1      46.675   6.518  11.247  0.00  0.00    +0.000 A 
BRANCH   5   8
ATOM      8  C   UNL     1      43.574   4.358  10.701  0.00  0.00    +0.000 C 
BRANCH   8   9
ATOM      9  O   UNL     1      44.055   3.972   9.417  0.00  0.00    +0.000 OA
BRANCH   9  10
ATOM     10  C   UNL     1      44.503   2.613   9.404  0.00  0.00    +0.000 C 
BRANCH  10  11
ATOM     11  C   UNL     1      45.575   2.409   8.355  0.00  0.00    +0.000 A 
ATOM     12  N   UNL     1      46.168   1.197   8.286  0.00  0.00    +0.000 NA
ATOM     13  C   UNL     1      47.134   1.053   7.358  0.00  0.00    +0.000 A 
ATOM     14  C   UNL     1      47.519   2.056   6.500  0.00  0.00    +0.000 A 
ATOM     15  C   UNL     1      46.848   3.246   6.640  0.00  0.00    +0.000 A 
ATOM     16  N   UNL     1      45.874   3.450   7.547  0.00  0.00    +0.000 NA
ENDBRANCH  10  11
ENDBRANCH   9  10
ENDBRANCH   8   9
ENDBRANCH   5   8
ENDBRANCH   1   2
BRANCH   1  19
ATOM     17  O   UNL     1      49.384   6.757  13.534  0.00  0.00    +0.000 OA
ATOM     18  C   UNL     1      48.625   7.198  14.384  0.00  0.00    +0.000 C 
ATOM     19  N   UNL     1      47.601   8.080  14.150  0.00  0.00    +0.000 N 
ATOM     20  H   UNL     1      46.917   8.218  14.876  0.00  0.00    +0.000 HD
BRANCH  18  21
ATOM     21  C   UNL     1      48.558   6.677  15.752  0.00  0.00    +0.000 A 
ATOM     22  C   UNL     1      49.065   7.354  16.844  0.00  0.00    +0.000 A 
ATOM     23  S   UNL     1      49.396   6.287  18.148  0.00  0.00    +0.000 S 
ATOM     24  C   UNL     1      48.736   4.959  17.305  0.00  0.00    +0.000 A 
ATOM     25  N   UNL     1      48.831   3.679  17.756  0.00  0.00    +0.000 NA
ATOM     26  C   UNL     1      48.237   2.808  17.006  0.00  0.00    +0.000 A 
ATOM     27  N   UNL     1      47.510   3.103  15.878  0.00  0.00    +0.000 N 
ATOM     28  C   UNL     1      47.363   4.383  15.401  0.00  0.00    +0.000 A 
ATOM     29  O   UNL     1      46.633   4.645  14.452  0.00  0.00    +0.000 OA
ATOM     30  C   UNL     1      48.134   5.362  16.135  0.00  0.00    +0.000 A 
ATOM     31  H   UNL     1      46.993   2.388  15.387  0.00  0.00    +0.000 HD
ENDBRANCH  18  21
ENDBRANCH   1  19
TORSDOF 7
ENDMDL
MODEL 2
REMARK VINA RESULT:    -7.697      1.441      1.953
REMARK INTER + INTRA:         -12.089
REMARK INTER:                 -10.987
REMARK INTRA:                  -1.101
REMARK UNBOUND:                -1.241
REMARK  Name = 
REMARK  7 active torsions:
REMARK  status: ('A' for Active; 'I' for Inactive)
REMARK    1  A    between atoms: C_2  and  C_20
REMARK    2  A    between atoms: N_3  and  C_4
REMARK    3  A    between atoms: C_4  and  C_5
REMARK    4  A    between atoms: C_8  and  C_9
REMARK    5  A    between atoms: C_9  and  O_10
REMARK    6  A    between atoms: O_10  and  C_11
REMARK    7  A    between atoms: C_11  and  C_12
REMARK                            x       y       z     vdW  Elec       q    Type
REMARK                         _______ _______ _______ _____ _____    ______ ____
ROOT
ATOM      1  C   UNL     1      48.601   6.824  13.267  0.00  0.00    +0.000 C 
ENDROOT
BRANCH   1   2
ATOM      2  C   UNL     1      47.383   6.148  12.687  0.00  0.00    +0.000 A 
ATOM      3  C   UNL     1      46.836   5.026  13.318  0.00  0.00    +0.000 A 
ATOM      4  C   UNL     1      45.694   4.410  12.804  0.00  0.00    +0.000 A 
ATOM      5  C   UNL     1      45.083   4.890  11.637  0.00  0.00    +0.000 A 
ATOM      6  C   UNL     1      45.671   5.970  10.965  0.00  0.00    +0.000 A 
ATOM      7  C   UNL     1      46.813   6.590  11.483  0.00  0.00    +0.000 A 
BRANCH   5   8
ATOM      8  C   UNL     1      43.806   4.263  11.138  0.00  0.00    +0.000 C 
BRANCH   8   9
ATOM      9  O   UNL     1      43.999   3.878   9.780  0.00  0.00    +0.000 OA
BRANCH   9  10
ATOM     10  C   UNL     1      44.508   2.545   9.673  0.00  0.00    +0.000 C 
BRANCH  10  11
ATOM     11  C   UNL     1      45.563   2.457   8.591  0.00  0.00    +0.000 A 
ATOM     12  N   UNL     1      45.884   3.591   7.930  0.00  0.00    +0.000 NA
ATOM     13  C   UNL     1      46.809   3.477   6.957  0.00  0.00    +0.000 A 
ATOM     14  C   UNL     1      47.427   2.293   6.630  0.00  0.00    +0.000 A 
ATOM     15  C   UNL     1      47.043   1.201   7.368  0.00  0.00    +0.000 A 
ATOM     16  N   UNL     1      46.124   1.252   8.352  0.00  0.00    +0.000 NA
ENDBRANCH  10  11
ENDBRANCH   9  10
ENDBRANCH   8   9
ENDBRANCH   5   8
ENDBRANCH   1   2
BRANCH   1  19
ATOM     17  O   UNL     1      50.455   6.769  15.453  0.00  0.00    +0.000 OA
ATOM     18  C   UNL     1      49.275   7.035  15.626  0.00  0.00    +0.000 C 
ATOM     19  N   UNL     1      48.342   7.176  14.631  0.00  0.00    +0.000 N 
ATOM     20  H   UNL     1      47.369   7.192  14.891  0.00  0.00    +0.000 HD
BRANCH  18  21
ATOM     21  C   UNL     1      48.632   7.026  16.942  0.00  0.00    +0.000 A 
ATOM     22  C   UNL     1      48.272   8.178  17.616  0.00  0.00    +0.000 A 
ATOM     23  S   UNL     1      48.130   7.901  19.305  0.00  0.00    +0.000 S 
ATOM     24  C   UNL     1      48.410   6.229  19.113  0.00  0.00    +0.000 A 
ATOM     25  N   UNL     1      48.591   5.387  20.166  0.00  0.00    +0.000 NA
ATOM     26  C   UNL     1      48.752   4.147  19.831  0.00  0.00    +0.000 A 
ATOM     27  N   UNL     1      48.691   3.663  18.547  0.00  0.00    +0.000 N 
ATOM     28  C   UNL     1      48.482   4.471  17.456  0.00  0.00    +0.000 A 
ATOM     29  O   UNL     1      48.333   4.017  16.327  0.00  0.00    +0.000 OA
ATOM     30  C   UNL     1      48.443   5.880  17.782  0.00  0.00    +0.000 A 
ATOM     31  H   UNL     1      48.732   2.672  18.360  0.00  0.00    +0.000 HD
ENDBRANCH  18  21
ENDBRANCH   1  19
TORSDOF 7
ENDMDL
MODEL 3
REMARK VINA RESULT:    -7.575      1.498      1.647
REMARK INTER + INTRA:         -11.917
REMARK INTER:                 -10.917
REMARK INTRA:                  -1.000
REMARK UNBOUND:                -1.241
REMARK  Name = 
REMARK  7 active torsions:
REMARK  status: ('A' for Active; 'I' for Inactive)
REMARK    1  A    between atoms: C_2  and  C_20
REMARK    2  A    between atoms: N_3  and  C_4
REMARK    3  A    between atoms: C_4  and  C_5
REMARK    4  A    between atoms: C_8  and  C_9
REMARK    5  A    between atoms: C_9  and  O_10
REMARK    6  A    between atoms: O_10  and  C_11
REMARK    7  A    between atoms: C_11  and  C_12
REMARK                            x       y       z     vdW  Elec       q    Type
REMARK                         _______ _______ _______ _____ _____    ______ ____
ROOT
ATOM      1  C   UNL     1      48.236   7.304  13.364  0.00  0.00    +0.000 C 
ENDROOT
BRANCH   1   2
ATOM      2  C   UNL     1      47.114   6.518  12.734  0.00  0.00    +0.000 A 
ATOM      3  C   UNL     1      46.748   5.274  13.259  0.00  0.00    +0.000 A 
ATOM      4  C   UNL     1      45.693   4.551  12.699  0.00  0.00    +0.000 A 
ATOM      5  C   UNL     1      44.991   5.046  11.591  0.00  0.00    +0.000 A 
ATOM      6  C   UNL     1      45.402   6.259  11.022  0.00  0.00    +0.000 A 
ATOM      7  C   UNL     1      46.457   6.985  11.585  0.00  0.00    +0.000 A 
BRANCH   5   8
ATOM      8  C   UNL     1      43.805   4.292  11.048  0.00  0.00    +0.000 C 
BRANCH   8   9
ATOM      9  O   UNL     1      44.101   3.899   9.711  0.00  0.00    +0.000 OA
BRANCH   9  10
ATOM     10  C   UNL     1      44.528   2.535   9.640  0.00  0.00    +0.000 C 
BRANCH  10  11
ATOM     11  C   UNL     1      45.591   2.359   8.577  0.00  0.00    +0.000 A 
ATOM     12  N   UNL     1      46.070   1.113   8.364  0.00  0.00    +0.000 NA
ATOM     13  C   UNL     1      47.032   0.992   7.429  0.00  0.00    +0.000 A 
ATOM     14  C   UNL     1      47.520   2.049   6.699  0.00  0.00    +0.000 A 
ATOM     15  C   UNL     1      46.960   3.271   6.978  0.00  0.00    +0.000 A 
ATOM     16  N   UNL     1      45.997   3.456   7.901  0.00  0.00    +0.000 NA
ENDBRANCH  10  11
ENDBRANCH   9  10
ENDBRANCH   8   9
ENDBRANCH   5   8
ENDBRANCH   1   2
BRANCH   1  19
ATOM     17  O   UNL     1      48.390   8.244  16.068  0.00  0.00    +0.000 OA
ATOM     18  C   UNL     1      48.846   7.158  15.745  0.00  0.00    +0.000 C 
ATOM     19  N   UNL     1      48.733   6.590  14.502  0.00  0.00    +0.000 N 
ATOM     20  H   UNL     1      49.314   5.796  14.288  0.00  0.00    +0.000 HD
BRANCH  18  21
ATOM     21  C   UNL     1      49.775   6.394  16.582  0.00  0.00    +0.000 A 
ATOM     22  C   UNL     1      51.044   6.839  16.901  0.00  0.00    +0.000 A 
ATOM     23  S   UNL     1      52.076   5.537  17.337  0.00  0.00    +0.000 S 
ATOM     24  C   UNL     1      50.797   4.412  17.233  0.00  0.00    +0.000 A 
ATOM     25  N   UNL     1      50.989   3.069  17.321  0.00  0.00    +0.000 NA
ATOM     26  C   UNL     1      49.899   2.374  17.261  0.00  0.00    +0.000 A 
ATOM     27  N   UNL     1      48.632   2.898  17.178  0.00  0.00    +0.000 N 
ATOM     28  C   UNL     1      48.388   4.249  17.116  0.00  0.00    +0.000 A 
ATOM     29  O   UNL     1      47.252   4.708  17.140  0.00  0.00    +0.000 OA
ATOM     30  C   UNL     1      49.592   5.047  17.035  0.00  0.00    +0.000 A 
ATOM     31  H   UNL     1      47.816   2.305  17.227  0.00  0.00    +0.000 HD
ENDBRANCH  18  21
ENDBRANCH   1  19
TORSDOF 7
ENDMDL
MODEL 4
REMARK VINA RESULT:    -7.534      2.008      2.676
REMARK INTER + INTRA:         -11.859
REMARK INTER:                 -10.828
REMARK INTRA:                  -1.031
REMARK UNBOUND:                -1.241
REMARK  Name = 
REMARK  7 active torsions:
REMARK  status: ('A' for Active; 'I' for Inactive)
REMARK    1  A    between atoms: C_2  and  C_20
REMARK    2  A    between atoms: N_3  and  C_4
REMARK    3  A    between atoms: C_4  and  C_5
REMARK    4  A    between atoms: C_8  and  C_9
REMARK    5  A    between atoms: C_9  and  O_10
REMARK    6  A    between atoms: O_10  and  C_11
REMARK    7  A    between atoms: C_11  and  C_12
REMARK                            x       y       z     vdW  Elec       q    Type
REMARK                         _______ _______ _______ _____ _____    ______ ____
ROOT
ATOM      1  C   UNL     1      47.847   6.953  13.387  0.00  0.00    +0.000 C 
ENDROOT
BRANCH   1   2
ATOM      2  C   UNL     1      46.798   6.058  12.778  0.00  0.00    +0.000 A 
ATOM      3  C   UNL     1      46.440   4.863  13.413  0.00  0.00    +0.000 A 
ATOM      4  C   UNL     1      45.451   4.040  12.870  0.00  0.00    +0.000 A 
ATOM      5  C   UNL     1      44.810   4.384  11.672  0.00  0.00    +0.000 A 
ATOM      6  C   UNL     1      45.216   5.543  10.999  0.00  0.00    +0.000 A 
ATOM      7  C   UNL     1      46.205   6.370  11.545  0.00  0.00    +0.000 A 
BRANCH   5   8
ATOM      8  C   UNL     1      43.690   3.526  11.141  0.00  0.00    +0.000 C 
BRANCH   8   9
ATOM      9  O   UNL     1      43.896   3.338   9.744  0.00  0.00    +0.000 OA
BRANCH   9  10
ATOM     10  C   UNL     1      44.466   2.058   9.457  0.00  0.00    +0.000 C 
BRANCH  10  11
ATOM     11  C   UNL     1      45.590   2.182   8.451  0.00  0.00    +0.000 A 
ATOM     12  N   UNL     1      46.322   1.078   8.184  0.00  0.00    +0.000 NA
ATOM     13  C   UNL     1      47.330   1.225   7.303  0.00  0.00    +0.000 A 
ATOM     14  C   UNL     1      47.624   2.412   6.676  0.00  0.00    +0.000 A 
ATOM     15  C   UNL     1      46.814   3.471   7.002  0.00  0.00    +0.000 A 
ATOM     16  N   UNL     1      45.792   3.387   7.875  0.00  0.00    +0.000 NA
ENDBRANCH  10  11
ENDBRANCH   9  10
ENDBRANCH   8   9
ENDBRANCH   5   8
ENDBRANCH   1   2
BRANCH   1  19
ATOM     17  O   UNL     1      50.199   6.878  15.026  0.00  0.00    +0.000 OA
ATOM     18  C   UNL     1      49.096   6.612  15.482  0.00  0.00    +0.000 C 
ATOM     19  N   UNL     1      47.912   6.714  14.798  0.00  0.00    +0.000 N 
ATOM     20  H   UNL     1      47.095   6.281  15.196  0.00  0.00    +0.000 HD
BRANCH  18  21
ATOM     21  C   UNL     1      48.898   5.933  16.764  0.00  0.00    +0.000 A 
ATOM     22  C   UNL     1      48.666   4.574  16.871  0.00  0.00    +0.000 A 
ATOM     23  S   UNL     1      47.886   4.185  18.351  0.00  0.00    +0.000 S 
ATOM     24  C   UNL     1      47.988   5.798  18.897  0.00  0.00    +0.000 A 
ATOM     25  N   UNL     1      47.371   6.233  20.028  0.00  0.00    +0.000 NA
ATOM     26  C   UNL     1      47.591   7.477  20.307  0.00  0.00    +0.000 A 
ATOM     27  N   UNL     1      48.417   8.311  19.592  0.00  0.00    +0.000 N 
ATOM     28  C   UNL     1      49.083   7.908  18.460  0.00  0.00    +0.000 A 
ATOM     29  O   UNL     1      49.890   8.630  17.887  0.00  0.00    +0.000 OA
ATOM     30  C   UNL     1      48.744   6.566  18.041  0.00  0.00    +0.000 A 
ATOM     31  H   UNL     1      48.620   9.246  19.913  0.00  0.00    +0.000 HD
ENDBRANCH  18  21
ENDBRANCH   1  19
TORSDOF 7
ENDMDL
MODEL 5
REMARK VINA RESULT:    -7.142      2.397      3.170
REMARK INTER + INTRA:         -11.306
REMARK INTER:                 -10.282
REMARK INTRA:                  -1.024
REMARK UNBOUND:                -1.241
REMARK  Name = 
REMARK  7 active torsions:
REMARK  status: ('A' for Active; 'I' for Inactive)
REMARK    1  A    between atoms: C_2  and  C_20
REMARK    2  A    between atoms: N_3  and  C_4
REMARK    3  A    between atoms: C_4  and  C_5
REMARK    4  A    between atoms: C_8  and  C_9
REMARK    5  A    between atoms: C_9  and  O_10
REMARK    6  A    between atoms: O_10  and  C_11
REMARK    7  A    between atoms: C_11  and  C_12
REMARK                            x       y       z     vdW  Elec       q    Type
REMARK                         _______ _______ _______ _____ _____    ______ ____
ROOT
ATOM      1  C   UNL     1      47.296   4.302  15.234  0.00  0.00    +0.000 C 
ENDROOT
BRANCH   1   2
ATOM      2  C   UNL     1      46.417   4.453  14.018  0.00  0.00    +0.000 A 
ATOM      3  C   UNL     1      46.116   3.338  13.227  0.00  0.00    +0.000 A 
ATOM      4  C   UNL     1      45.283   3.463  12.114  0.00  0.00    +0.000 A 
ATOM      5  C   UNL     1      44.746   4.707  11.756  0.00  0.00    +0.000 A 
ATOM      6  C   UNL     1      45.104   5.836  12.505  0.00  0.00    +0.000 A 
ATOM      7  C   UNL     1      45.936   5.710  13.623  0.00  0.00    +0.000 A 
BRANCH   5   8
ATOM      8  C   UNL     1      43.786   4.812  10.599  0.00  0.00    +0.000 C 
BRANCH   8   9
ATOM      9  O   UNL     1      44.014   3.707   9.728  0.00  0.00    +0.000 OA
BRANCH   9  10
ATOM     10  C   UNL     1      44.554   4.124   8.471  0.00  0.00    +0.000 C 
BRANCH  10  11
ATOM     11  C   UNL     1      45.615   3.155   7.993  0.00  0.00    +0.000 A 
ATOM     12  N   UNL     1      45.542   1.877   8.424  0.00  0.00    +0.000 NA
ATOM     13  C   UNL     1      46.512   1.045   8.001  0.00  0.00    +0.000 A 
ATOM     14  C   UNL     1      47.534   1.430   7.166  0.00  0.00    +0.000 A 
ATOM     15  C   UNL     1      47.513   2.745   6.771  0.00  0.00    +0.000 A 
ATOM     16  N   UNL     1      46.570   3.624   7.160  0.00  0.00    +0.000 NA
ENDBRANCH  10  11
ENDBRANCH   9  10
ENDBRANCH   8   9
ENDBRANCH   5   8
ENDBRANCH   1   2
BRANCH   1  19
ATOM     17  O   UNL     1      49.697   4.988  16.644  0.00  0.00    +0.000 OA
ATOM     18  C   UNL     1      48.819   5.814  16.443  0.00  0.00    +0.000 C 
ATOM     19  N   UNL     1      47.687   5.600  15.700  0.00  0.00    +0.000 N 
ATOM     20  H   UNL     1      46.940   6.272  15.767  0.00  0.00    +0.000 HD
BRANCH  18  21
ATOM     21  C   UNL     1      48.740   7.093  17.152  0.00  0.00    +0.000 A 
ATOM     22  C   UNL     1      49.309   8.259  16.673  0.00  0.00    +0.000 A 
ATOM     23  S   UNL     1      49.591   9.386  17.938  0.00  0.00    +0.000 S 
ATOM     24  C   UNL     1      48.830   8.378  19.085  0.00  0.00    +0.000 A 
ATOM     25  N   UNL     1      48.847   8.638  20.420  0.00  0.00    +0.000 NA
ATOM     26  C   UNL     1      48.185   7.785  21.134  0.00  0.00    +0.000 A 
ATOM     27  N   UNL     1      47.461   6.731  20.633  0.00  0.00    +0.000 N 
ATOM     28  C   UNL     1      47.390   6.447  19.290  0.00  0.00    +0.000 A 
ATOM     29  O   UNL     1      46.665   5.564  18.848  0.00  0.00    +0.000 OA
ATOM     30  C   UNL     1      48.237   7.294  18.479  0.00  0.00    +0.000 A 
ATOM     31  H   UNL     1      46.890   6.156  21.235  0.00  0.00    +0.000 HD
ENDBRANCH  18  21
ENDBRANCH   1  19
TORSDOF 7
ENDMDL
MODEL 6
REMARK VINA RESULT:    -6.786      2.013      3.454
REMARK INTER + INTRA:         -10.805
REMARK INTER:                 -10.014
REMARK INTRA:                  -0.791
REMARK UNBOUND:                -1.241
REMARK  Name = 
REMARK  7 active torsions:
REMARK  status: ('A' for Active; 'I' for Inactive)
REMARK    1  A    between atoms: C_2  and  C_20
REMARK    2  A    between atoms: N_3  and  C_4
REMARK    3  A    between atoms: C_4  and  C_5
REMARK    4  A    between atoms: C_8  and  C_9
REMARK    5  A    between atoms: C_9  and  O_10
REMARK    6  A    between atoms: O_10  and  C_11
REMARK    7  A    between atoms: C_11  and  C_12
REMARK                            x       y       z     vdW  Elec       q    Type
REMARK                         _______ _______ _______ _____ _____    ______ ____
ROOT
ATOM      1  C   UNL     1      47.197   4.022  15.415  0.00  0.00    +0.000 C 
ENDROOT
BRANCH   1   2
ATOM      2  C   UNL     1      46.715   4.531  14.079  0.00  0.00    +0.000 A 
ATOM      3  C   UNL     1      45.904   3.725  13.272  0.00  0.00    +0.000 A 
ATOM      4  C   UNL     1      45.432   4.197  12.047  0.00  0.00    +0.000 A 
ATOM      5  C   UNL     1      45.774   5.478  11.591  0.00  0.00    +0.000 A 
ATOM      6  C   UNL     1      46.643   6.258  12.365  0.00  0.00    +0.000 A 
ATOM      7  C   UNL     1      47.114   5.786  13.596  0.00  0.00    +0.000 A 
BRANCH   5   8
ATOM      8  C   UNL     1      45.193   6.003  10.303  0.00  0.00    +0.000 C 
BRANCH   8   9
ATOM      9  O   UNL     1      45.868   5.372   9.219  0.00  0.00    +0.000 OA
BRANCH   9  10
ATOM     10  C   UNL     1      45.080   4.329   8.637  0.00  0.00    +0.000 C 
BRANCH  10  11
ATOM     11  C   UNL     1      45.965   3.248   8.054  0.00  0.00    +0.000 A 
ATOM     12  N   UNL     1      46.942   3.625   7.200  0.00  0.00    +0.000 NA
ATOM     13  C   UNL     1      47.698   2.639   6.679  0.00  0.00    +0.000 A 
ATOM     14  C   UNL     1      47.527   1.310   6.983  0.00  0.00    +0.000 A 
ATOM     15  C   UNL     1      46.519   1.029   7.872  0.00  0.00    +0.000 A 
ATOM     16  N   UNL     1      45.730   1.970   8.425  0.00  0.00    +0.000 NA
ENDBRANCH  10  11
ENDBRANCH   9  10
ENDBRANCH   8   9
ENDBRANCH   5   8
ENDBRANCH   1   2
BRANCH   1  19
ATOM     17  O   UNL     1      49.620   4.023  16.948  0.00  0.00    +0.000 OA
ATOM     18  C   UNL     1      48.871   4.988  16.940  0.00  0.00    +0.000 C 
ATOM     19  N   UNL     1      47.746   5.111  16.167  0.00  0.00    +0.000 N 
ATOM     20  H   UNL     1      47.097   5.849  16.385  0.00  0.00    +0.000 HD
BRANCH  18  21
ATOM     21  C   UNL     1      48.945   6.071  17.924  0.00  0.00    +0.000 A 
ATOM     22  C   UNL     1      49.113   5.852  19.279  0.00  0.00    +0.000 A 
ATOM     23  S   UNL     1      48.558   7.187  20.206  0.00  0.00    +0.000 S 
ATOM     24  C   UNL     1      48.229   8.099  18.802  0.00  0.00    +0.000 A 
ATOM     25  N   UNL     1      47.578   9.292  18.836  0.00  0.00    +0.000 NA
ATOM     26  C   UNL     1      47.452   9.860  17.680  0.00  0.00    +0.000 A 
ATOM     27  N   UNL     1      47.966   9.374  16.502  0.00  0.00    +0.000 N 
ATOM     28  C   UNL     1      48.656   8.188  16.425  0.00  0.00    +0.000 A 
ATOM     29  O   UNL     1      49.193   7.813  15.389  0.00  0.00    +0.000 OA
ATOM     30  C   UNL     1      48.688   7.459  17.674  0.00  0.00    +0.000 A 
ATOM     31  H   UNL     1      47.914   9.910  15.648  0.00  0.00    +0.000 HD
ENDBRANCH  18  21
ENDBRANCH   1  19
TORSDOF 7
ENDMDL
MODEL 7
REMARK VINA RESULT:    -6.407      2.731      3.751
REMARK INTER + INTRA:         -10.270
REMARK INTER:                  -9.238
REMARK INTRA:                  -1.032
REMARK UNBOUND:                -1.241
REMARK  Name = 
REMARK  7 active torsions:
REMARK  status: ('A' for Active; 'I' for Inactive)
REMARK    1  A    between atoms: C_2  and  C_20
REMARK    2  A    between atoms: N_3  and  C_4
REMARK    3  A    between atoms: C_4  and  C_5
REMARK    4  A    between atoms: C_8  and  C_9
REMARK    5  A    between atoms: C_9  and  O_10
REMARK    6  A    between atoms: O_10  and  C_11
REMARK    7  A    between atoms: C_11  and  C_12
REMARK                            x       y       z     vdW  Elec       q    Type
REMARK                         _______ _______ _______ _____ _____    ______ ____
ROOT
ATOM      1  C   UNL     1      48.234   7.496  13.740  0.00  0.00    +0.000 C 
ENDROOT
BRANCH   1   2
ATOM      2  C   UNL     1      47.262   6.485  13.187  0.00  0.00    +0.000 A 
ATOM      3  C   UNL     1      46.717   6.661  11.910  0.00  0.00    +0.000 A 
ATOM      4  C   UNL     1      45.836   5.717  11.379  0.00  0.00    +0.000 A 
ATOM      5  C   UNL     1      45.466   4.586  12.119  0.00  0.00    +0.000 A 
ATOM      6  C   UNL     1      45.955   4.445  13.424  0.00  0.00    +0.000 A 
ATOM      7  C   UNL     1      46.841   5.389  13.955  0.00  0.00    +0.000 A 
BRANCH   5   8
ATOM      8  C   UNL     1      44.576   3.536  11.503  0.00  0.00    +0.000 C 
BRANCH   8   9
ATOM      9  O   UNL     1      44.539   3.754  10.095  0.00  0.00    +0.000 OA
BRANCH   9  10
ATOM     10  C   UNL     1      44.406   2.527   9.371  0.00  0.00    +0.000 C 
BRANCH  10  11
ATOM     11  C   UNL     1      45.586   2.318   8.446  0.00  0.00    +0.000 A 
ATOM     12  N   UNL     1      46.090   3.399   7.811  0.00  0.00    +0.000 NA
ATOM     13  C   UNL     1      47.124   3.177   6.978  0.00  0.00    +0.000 A 
ATOM     14  C   UNL     1      47.676   1.937   6.764  0.00  0.00    +0.000 A 
ATOM     15  C   UNL     1      47.104   0.905   7.466  0.00  0.00    +0.000 A 
ATOM     16  N   UNL     1      46.069   1.063   8.313  0.00  0.00    +0.000 NA
ENDBRANCH  10  11
ENDBRANCH   9  10
ENDBRANCH   8   9
ENDBRANCH   5   8
ENDBRANCH   1   2
BRANCH   1  19
ATOM     17  O   UNL     1      48.836   7.983  16.501  0.00  0.00    +0.000 OA
ATOM     18  C   UNL     1      49.485   7.187  15.839  0.00  0.00    +0.000 C 
ATOM     19  N   UNL     1      49.210   6.824  14.546  0.00  0.00    +0.000 N 
ATOM     20  H   UNL     1      49.917   6.324  14.032  0.00  0.00    +0.000 HD
BRANCH  18  21
ATOM     21  C   UNL     1      50.788   6.666  16.258  0.00  0.00    +0.000 A 
ATOM     22  C   UNL     1      50.933   5.603  17.129  0.00  0.00    +0.000 A 
ATOM     23  S   UNL     1      52.472   5.619  17.891  0.00  0.00    +0.000 S 
ATOM     24  C   UNL     1      52.985   6.952  16.958  0.00  0.00    +0.000 A 
ATOM     25  N   UNL     1      54.152   7.609  17.193  0.00  0.00    +0.000 NA
ATOM     26  C   UNL     1      54.395   8.570  16.360  0.00  0.00    +0.000 A 
ATOM     27  N   UNL     1      53.609   8.898  15.283  0.00  0.00    +0.000 N 
ATOM     28  C   UNL     1      52.437   8.243  14.990  0.00  0.00    +0.000 A 
ATOM     29  O   UNL     1      51.795   8.480  13.973  0.00  0.00    +0.000 OA
ATOM     30  C   UNL     1      52.063   7.260  15.983  0.00  0.00    +0.000 A 
ATOM     31  H   UNL     1      53.900   9.598  14.617  0.00  0.00    +0.000 HD
ENDBRANCH  18  21
ENDBRANCH   1  19
TORSDOF 7
ENDMDL
MODEL 8
REMARK VINA RESULT:    -6.204      3.186      8.971
REMARK INTER + INTRA:          -9.984
REMARK INTER:                  -8.965
REMARK INTRA:                  -1.019
REMARK UNBOUND:                -1.241
REMARK  Name = 
REMARK  7 active torsions:
REMARK  status: ('A' for Active; 'I' for Inactive)
REMARK    1  A    between atoms: C_2  and  C_20
REMARK    2  A    between atoms: N_3  and  C_4
REMARK    3  A    between atoms: C_4  and  C_5
REMARK    4  A    between atoms: C_8  and  C_9
REMARK    5  A    between atoms: C_9  and  O_10
REMARK    6  A    between atoms: O_10  and  C_11
REMARK    7  A    between atoms: C_11  and  C_12
REMARK                            x       y       z     vdW  Elec       q    Type
REMARK                         _______ _______ _______ _____ _____    ______ ____
ROOT
ATOM      1  C   UNL     1      47.734   6.718  12.542  0.00  0.00    +0.000 C 
ENDROOT
BRANCH   1   2
ATOM      2  C   UNL     1      47.845   6.143  13.932  0.00  0.00    +0.000 A 
ATOM      3  C   UNL     1      48.677   6.752  14.879  0.00  0.00    +0.000 A 
ATOM      4  C   UNL     1      48.766   6.242  16.175  0.00  0.00    +0.000 A 
ATOM      5  C   UNL     1      48.039   5.104  16.550  0.00  0.00    +0.000 A 
ATOM      6  C   UNL     1      47.260   4.453  15.584  0.00  0.00    +0.000 A 
ATOM      7  C   UNL     1      47.168   4.966  14.285  0.00  0.00    +0.000 A 
BRANCH   5   8
ATOM      8  C   UNL     1      48.084   4.613  17.975  0.00  0.00    +0.000 C 
BRANCH   8   9
ATOM      9  O   UNL     1      47.147   5.368  18.737  0.00  0.00    +0.000 OA
BRANCH   9  10
ATOM     10  C   UNL     1      47.708   5.819  19.973  0.00  0.00    +0.000 C 
BRANCH  10  11
ATOM     11  C   UNL     1      47.872   7.324  19.972  0.00  0.00    +0.000 A 
ATOM     12  N   UNL     1      48.568   7.884  20.985  0.00  0.00    +0.000 NA
ATOM     13  C   UNL     1      48.678   9.226  20.969  0.00  0.00    +0.000 A 
ATOM     14  C   UNL     1      48.137  10.021  19.987  0.00  0.00    +0.000 A 
ATOM     15  C   UNL     1      47.460   9.358  18.993  0.00  0.00    +0.000 A 
ATOM     16  N   UNL     1      47.317   8.019  18.955  0.00  0.00    +0.000 NA
ENDBRANCH  10  11
ENDBRANCH   9  10
ENDBRANCH   8   9
ENDBRANCH   5   8
ENDBRANCH   1   2
BRANCH   1  19
ATOM     17  O   UNL     1      45.187   7.599  11.562  0.00  0.00    +0.000 OA
ATOM     18  C   UNL     1      45.552   6.439  11.436  0.00  0.00    +0.000 C 
ATOM     19  N   UNL     1      46.785   5.955  11.788  0.00  0.00    +0.000 N 
ATOM     20  H   UNL     1      46.909   4.957  11.832  0.00  0.00    +0.000 HD
BRANCH  18  21
ATOM     21  C   UNL     1      44.643   5.344  11.092  0.00  0.00    +0.000 A 
ATOM     22  C   UNL     1      43.550   4.997  11.864  0.00  0.00    +0.000 A 
ATOM     23  S   UNL     1      43.066   3.374  11.577  0.00  0.00    +0.000 S 
ATOM     24  C   UNL     1      44.219   3.189  10.333  0.00  0.00    +0.000 A 
ATOM     25  N   UNL     1      44.480   1.992   9.744  0.00  0.00    +0.000 NA
ATOM     26  C   UNL     1      45.356   2.050   8.793  0.00  0.00    +0.000 A 
ATOM     27  N   UNL     1      45.952   3.201   8.338  0.00  0.00    +0.000 N 
ATOM     28  C   UNL     1      45.697   4.436   8.883  0.00  0.00    +0.000 A 
ATOM     29  O   UNL     1      46.159   5.467   8.407  0.00  0.00    +0.000 OA
ATOM     30  C   UNL     1      44.833   4.386  10.042  0.00  0.00    +0.000 A 
ATOM     31  H   UNL     1      46.558   3.192   7.531  0.00  0.00    +0.000 HD
ENDBRANCH  18  21
ENDBRANCH   1  19
TORSDOF 7
ENDMDL
MODEL 9
REMARK VINA RESULT:    -5.580      2.687      7.834
REMARK INTER + INTRA:          -9.105
REMARK INTER:                  -8.043
REMARK INTRA:                  -1.062
REMARK UNBOUND:                -1.241
REMARK  Name = 
REMARK  7 active torsions:
REMARK  status: ('A' for Active; 'I' for Inactive)
REMARK    1  A    between atoms: C_2  and  C_20
REMARK    2  A    between atoms: N_3  and  C_4
REMARK    3  A    between atoms: C_4  and  C_5
REMARK    4  A    between atoms: C_8  and  C_9
REMARK    5  A    between atoms: C_9  and  O_10
REMARK    6  A    between atoms: O_10  and  C_11
REMARK    7  A    between atoms: C_11  and  C_12
REMARK                            x       y       z     vdW  Elec       q    Type
REMARK                         _______ _______ _______ _____ _____    ______ ____
ROOT
ATOM      1  C   UNL     1      48.216   7.491  12.175  0.00  0.00    +0.000 C 
ENDROOT
BRANCH   1   2
ATOM      2  C   UNL     1      48.379   7.464  13.674  0.00  0.00    +0.000 A 
ATOM      3  C   UNL     1      48.537   8.660  14.384  0.00  0.00    +0.000 A 
ATOM      4  C   UNL     1      48.662   8.647  15.774  0.00  0.00    +0.000 A 
ATOM      5  C   UNL     1      48.651   7.439  16.485  0.00  0.00    +0.000 A 
ATOM      6  C   UNL     1      48.565   6.238  15.769  0.00  0.00    +0.000 A 
ATOM      7  C   UNL     1      48.435   6.250  14.375  0.00  0.00    +0.000 A 
BRANCH   5   8
ATOM      8  C   UNL     1      48.709   7.446  17.991  0.00  0.00    +0.000 C 
BRANCH   8   9
ATOM      9  O   UNL     1      48.110   6.244  18.466  0.00  0.00    +0.000 OA
BRANCH   9  10
ATOM     10  C   UNL     1      48.987   5.520  19.335  0.00  0.00    +0.000 C 
BRANCH  10  11
ATOM     11  C   UNL     1      49.663   4.387  18.594  0.00  0.00    +0.000 A 
ATOM     12  N   UNL     1      48.876   3.490  17.959  0.00  0.00    +0.000 NA
ATOM     13  C   UNL     1      49.505   2.480  17.328  0.00  0.00    +0.000 A 
ATOM     14  C   UNL     1      50.872   2.337  17.296  0.00  0.00    +0.000 A 
ATOM     15  C   UNL     1      51.585   3.306  17.958  0.00  0.00    +0.000 A 
ATOM     16  N   UNL     1      51.013   4.339  18.607  0.00  0.00    +0.000 NA
ENDBRANCH  10  11
ENDBRANCH   9  10
ENDBRANCH   8   9
ENDBRANCH   5   8
ENDBRANCH   1   2
BRANCH   1  19
ATOM     17  O   UNL     1      45.541   8.358  11.610  0.00  0.00    +0.000 OA
ATOM     18  C   UNL     1      45.834   7.172  11.638  0.00  0.00    +0.000 C 
ATOM     19  N   UNL     1      47.099   6.672  11.805  0.00  0.00    +0.000 N 
ATOM     20  H   UNL     1      47.200   5.693  12.017  0.00  0.00    +0.000 HD
BRANCH  18  21
ATOM     21  C   UNL     1      44.838   6.100  11.718  0.00  0.00    +0.000 A 
ATOM     22  C   UNL     1      43.965   5.956  12.779  0.00  0.00    +0.000 A 
ATOM     23  S   UNL     1      43.382   4.345  12.900  0.00  0.00    +0.000 S 
ATOM     24  C   UNL     1      44.181   3.886  11.465  0.00  0.00    +0.000 A 
ATOM     25  N   UNL     1      44.255   2.595  11.045  0.00  0.00    +0.000 NA
ATOM     26  C   UNL     1      44.866   2.440   9.914  0.00  0.00    +0.000 A 
ATOM     27  N   UNL     1      45.359   3.461   9.138  0.00  0.00    +0.000 N 
ATOM     28  C   UNL     1      45.282   4.782   9.509  0.00  0.00    +0.000 A 
ATOM     29  O   UNL     1      45.638   5.689   8.766  0.00  0.00    +0.000 OA
ATOM     30  C   UNL     1      44.735   4.976  10.833  0.00  0.00    +0.000 A 
ATOM     31  H   UNL     1      45.744   3.282   8.222  0.00  0.00    +0.000 HD
ENDBRANCH  18  21
ENDBRANCH   1  19
TORSDOF 7
ENDMDL
