MODEL 1
REMARK VINA RESULT:    -9.067      0.000      0.000
REMARK INTER + INTRA:         -13.341
REMARK INTER:                 -12.247
REMARK INTRA:                  -1.094
REMARK UNBOUND:                -1.094
REMARK  Name = 
REMARK  6 active torsions:
REMARK  status: ('A' for Active; 'I' for Inactive)
REMARK    1  A    between atoms: C_2  and  C_4
REMARK    2  A    between atoms: C_7  and  N_8
REMARK    3  A    between atoms: N_8  and  C_9
REMARK    4  A    between atoms: C_9  and  C_10
REMARK    5  A    between atoms: C_10  and  C_13
REMARK    6  A    between atoms: C_17  and  C_18
REMARK                            x       y       z     vdW  Elec       q    Type
REMARK                         _______ _______ _______ _____ _____    ______ ____
ROOT
ATOM      1  C   UNL     1      43.347   5.215  12.443  0.00  0.00    +0.000 C 
ATOM      2  F   UNL     1      42.726   6.339  11.973  0.00  0.00    +0.000 F 
ATOM      3  F   UNL     1      42.614   4.832  13.534  0.00  0.00    +0.000 F 
ENDROOT
BRANCH   1   4
ATOM      4  C   UNL     1      44.800   5.476  12.793  0.00  0.00    +0.000 A 
ATOM      5  C   UNL     1      45.555   4.505  13.460  0.00  0.00    +0.000 A 
ATOM      6  C   UNL     1      46.894   4.743  13.755  0.00  0.00    +0.000 A 
ATOM      7  C   UNL     1      47.493   5.949  13.381  0.00  0.00    +0.000 A 
ATOM      8  C   UNL     1      46.777   6.945  12.692  0.00  0.00    +0.000 A 
ATOM      9  C   UNL     1      45.420   6.684  12.417  0.00  0.00    +0.000 A 
BRANCH   8  10
ATOM     10  C   UNL     1      47.428   8.202  12.254  0.00  0.00    +0.000 A 
ATOM     11  C   UNL     1      48.762   8.252  11.825  0.00  0.00    +0.000 A 
ATOM     12  C   UNL     1      49.349   9.462  11.450  0.00  0.00    +0.000 A 
ATOM     13  C   UNL     1      48.579  10.610  11.501  0.00  0.00    +0.000 A 
ATOM     14  N   UNL     1      47.292  10.622  11.895  0.00  0.00    +0.000 NA
ATOM     15  C   UNL     1      46.757   9.430  12.261  0.00  0.00    +0.000 A 
ENDBRANCH   8  10
ENDBRANCH   1   4
BRANCH   1  16
ATOM     16  C   UNL     1      43.242   4.095  11.376  0.00  0.00    +0.000 C 
BRANCH  16  17
ATOM     17  N   UNL     1      43.609   4.543  10.021  0.00  0.00    +0.000 N 
ATOM     18  H   UNL     1      42.820   4.848   9.451  0.00  0.00    +0.000 HD
BRANCH  17  22
ATOM     19  C   UNL     1      46.486   2.484   7.723  0.00  0.00    +0.000 A 
ATOM     20  C   UNL     1      46.383   3.871   7.610  0.00  0.00    +0.000 A 
ATOM     21  C   UNL     1      45.446   4.570   8.382  0.00  0.00    +0.000 A 
ATOM     22  C   UNL     1      44.617   3.911   9.299  0.00  0.00    +0.000 A 
ATOM     23  C   UNL     1      44.720   2.514   9.380  0.00  0.00    +0.000 A 
ATOM     24  C   UNL     1      45.639   1.803   8.599  0.00  0.00    +0.000 A 
BRANCH  19  26
ATOM     25  N   UNL     1      48.552   2.360   6.439  0.00  0.00    +0.000 N 
ATOM     26  C   UNL     1      47.443   1.701   6.897  0.00  0.00    +0.000 C 
ATOM     27  O   UNL     1      47.271   0.514   6.666  0.00  0.00    +0.000 OA
ATOM     28  H   UNL     1      49.244   1.787   5.970  0.00  0.00    +0.000 HD
ATOM     29  H   UNL     1      48.846   3.249   6.810  0.00  0.00    +0.000 HD
ENDBRANCH  19  26
ENDBRANCH  17  22
ENDBRANCH  16  17
ENDBRANCH   1  16
TORSDOF 6
ENDMDL
MODEL 2
REMARK VINA RESULT:    -9.008      2.068      3.541
REMARK INTER + INTRA:         -13.262
REMARK INTER:                 -12.143
REMARK INTRA:                  -1.119
REMARK UNBOUND:                -1.094
REMARK  Name = 
REMARK  6 active torsions:
REMARK  status: ('A' for Active; 'I' for Inactive)
REMARK    1  A    between atoms: C_2  and  C_4
REMARK    2  A    between atoms: C_7  and  N_8
REMARK    3  A    between atoms: N_8  and  C_9
REMARK    4  A    between atoms: C_9  and  C_10
REMARK    5  A    between atoms: C_10  and  C_13
REMARK    6  A    between atoms: C_17  and  C_18
REMARK                            x       y       z     vdW  Elec       q    Type
REMARK                         _______ _______ _______ _____ _____    ______ ____
ROOT
ATOM      1  C   UNL     1      43.524   5.438  12.202  0.00  0.00    +0.000 C 
ATOM      2  F   UNL     1      42.978   6.465  11.485  0.00  0.00    +0.000 F 
ATOM      3  F   UNL     1      42.792   5.379  13.358  0.00  0.00    +0.000 F 
ENDROOT
BRANCH   1   4
ATOM      4  C   UNL     1      45.002   5.660  12.472  0.00  0.00    +0.000 A 
ATOM      5  C   UNL     1      45.775   6.428  11.595  0.00  0.00    +0.000 A 
ATOM      6  C   UNL     1      47.123   6.647  11.863  0.00  0.00    +0.000 A 
ATOM      7  C   UNL     1      47.708   6.107  13.012  0.00  0.00    +0.000 A 
ATOM      8  C   UNL     1      46.964   5.345  13.930  0.00  0.00    +0.000 A 
ATOM      9  C   UNL     1      45.605   5.128  13.629  0.00  0.00    +0.000 A 
BRANCH   8  10
ATOM     10  C   UNL     1      47.576   4.815  15.171  0.00  0.00    +0.000 A 
ATOM     11  C   UNL     1      47.481   3.466  15.544  0.00  0.00    +0.000 A 
ATOM     12  C   UNL     1      48.045   3.012  16.738  0.00  0.00    +0.000 A 
ATOM     13  C   UNL     1      48.709   3.922  17.539  0.00  0.00    +0.000 A 
ATOM     14  N   UNL     1      48.840   5.226  17.230  0.00  0.00    +0.000 NA
ATOM     15  C   UNL     1      48.272   5.634  16.067  0.00  0.00    +0.000 A 
ENDBRANCH   8  10
ENDBRANCH   1   4
BRANCH   1  16
ATOM     16  C   UNL     1      43.312   4.110  11.430  0.00  0.00    +0.000 C 
BRANCH  16  17
ATOM     17  N   UNL     1      43.417   4.262   9.968  0.00  0.00    +0.000 N 
ATOM     18  H   UNL     1      42.526   4.217   9.476  0.00  0.00    +0.000 HD
BRANCH  17  22
ATOM     19  C   UNL     1      46.479   2.453   7.699  0.00  0.00    +0.000 A 
ATOM     20  C   UNL     1      46.314   3.837   7.648  0.00  0.00    +0.000 A 
ATOM     21  C   UNL     1      45.315   4.454   8.412  0.00  0.00    +0.000 A 
ATOM     22  C   UNL     1      44.482   3.713   9.261  0.00  0.00    +0.000 A 
ATOM     23  C   UNL     1      44.649   2.320   9.279  0.00  0.00    +0.000 A 
ATOM     24  C   UNL     1      45.632   1.692   8.504  0.00  0.00    +0.000 A 
BRANCH  19  26
ATOM     25  N   UNL     1      48.556   2.509   6.428  0.00  0.00    +0.000 N 
ATOM     26  C   UNL     1      47.505   1.757   6.877  0.00  0.00    +0.000 C 
ATOM     27  O   UNL     1      47.437   0.559   6.643  0.00  0.00    +0.000 OA
ATOM     28  H   UNL     1      49.298   1.999   5.962  0.00  0.00    +0.000 HD
ATOM     29  H   UNL     1      48.771   3.419   6.803  0.00  0.00    +0.000 HD
ENDBRANCH  19  26
ENDBRANCH  17  22
ENDBRANCH  16  17
ENDBRANCH   1  16
TORSDOF 6
ENDMDL
MODEL 3
REMARK VINA RESULT:    -8.374      2.824      4.185
REMARK INTER + INTRA:         -12.406
REMARK INTER:                 -11.445
REMARK INTRA:                  -0.961
REMARK UNBOUND:                -1.094
REMARK  Name = 
REMARK  6 active torsions:
REMARK  status: ('A' for Active; 'I' for Inactive)
REMARK    1  A    between atoms: C_2  and  C_4
REMARK    2  A    between atoms: C_7  and  N_8
REMARK    3  A    between atoms: N_8  and  C_9
REMARK    4  A    between atoms: C_9  and  C_10
REMARK    5  A    between atoms: C_10  and  C_13
REMARK    6  A    between atoms: C_17  and  C_18
REMARK                            x       y       z     vdW  Elec       q    Type
REMARK                         _______ _______ _______ _____ _____    ______ ____
ROOT
ATOM      1  C   UNL     1      44.663   4.391  12.571  0.00  0.00    +0.000 C 
ATOM      2  F   UNL     1      43.619   4.515  13.444  0.00  0.00    +0.000 F 
ATOM      3  F   UNL     1      44.793   3.044  12.357  0.00  0.00    +0.000 F 
ENDROOT
BRANCH   1   4
ATOM      4  C   UNL     1      45.936   5.007  13.122  0.00  0.00    +0.000 A 
ATOM      5  C   UNL     1      46.627   5.981  12.392  0.00  0.00    +0.000 A 
ATOM      6  C   UNL     1      47.779   6.559  12.915  0.00  0.00    +0.000 A 
ATOM      7  C   UNL     1      48.249   6.175  14.174  0.00  0.00    +0.000 A 
ATOM      8  C   UNL     1      47.576   5.214  14.951  0.00  0.00    +0.000 A 
ATOM      9  C   UNL     1      46.419   4.636  14.392  0.00  0.00    +0.000 A 
BRANCH   8  10
ATOM     10  C   UNL     1      48.049   4.845  16.305  0.00  0.00    +0.000 A 
ATOM     11  C   UNL     1      48.505   5.795  17.231  0.00  0.00    +0.000 A 
ATOM     12  C   UNL     1      48.974   5.403  18.487  0.00  0.00    +0.000 A 
ATOM     13  C   UNL     1      48.966   4.057  18.801  0.00  0.00    +0.000 A 
ATOM     14  N   UNL     1      48.532   3.101  17.958  0.00  0.00    +0.000 NA
ATOM     15  C   UNL     1      48.093   3.517  16.743  0.00  0.00    +0.000 A 
ENDBRANCH   8  10
ENDBRANCH   1   4
BRANCH   1  16
ATOM     16  C   UNL     1      44.281   5.057  11.224  0.00  0.00    +0.000 C 
BRANCH  16  17
ATOM     17  N   UNL     1      43.819   4.095  10.208  0.00  0.00    +0.000 N 
ATOM     18  H   UNL     1      43.126   3.428  10.545  0.00  0.00    +0.000 HD
BRANCH  17  22
ATOM     19  C   UNL     1      46.650   2.647   7.436  0.00  0.00    +0.000 A 
ATOM     20  C   UNL     1      45.960   1.745   8.246  0.00  0.00    +0.000 A 
ATOM     21  C   UNL     1      45.001   2.209   9.156  0.00  0.00    +0.000 A 
ATOM     22  C   UNL     1      44.692   3.572   9.259  0.00  0.00    +0.000 A 
ATOM     23  C   UNL     1      45.415   4.465   8.453  0.00  0.00    +0.000 A 
ATOM     24  C   UNL     1      46.388   4.012   7.554  0.00  0.00    +0.000 A 
BRANCH  19  26
ATOM     25  N   UNL     1      47.906   2.975   5.376  0.00  0.00    +0.000 N 
ATOM     26  C   UNL     1      47.699   2.197   6.482  0.00  0.00    +0.000 C 
ATOM     27  O   UNL     1      48.373   1.199   6.691  0.00  0.00    +0.000 OA
ATOM     28  H   UNL     1      48.694   2.713   4.793  0.00  0.00    +0.000 HD
ATOM     29  H   UNL     1      47.553   3.915   5.299  0.00  0.00    +0.000 HD
ENDBRANCH  19  26
ENDBRANCH  17  22
ENDBRANCH  16  17
ENDBRANCH   1  16
TORSDOF 6
ENDMDL
MODEL 4
REMARK VINA RESULT:    -8.271      1.764      2.376
REMARK INTER + INTRA:         -12.267
REMARK INTER:                 -11.866
REMARK INTRA:                  -0.400
REMARK UNBOUND:                -1.094
REMARK  Name = 
REMARK  6 active torsions:
REMARK  status: ('A' for Active; 'I' for Inactive)
REMARK    1  A    between atoms: C_2  and  C_4
REMARK    2  A    between atoms: C_7  and  N_8
REMARK    3  A    between atoms: N_8  and  C_9
REMARK    4  A    between atoms: C_9  and  C_10
REMARK    5  A    between atoms: C_10  and  C_13
REMARK    6  A    between atoms: C_17  and  C_18
REMARK                            x       y       z     vdW  Elec       q    Type
REMARK                         _______ _______ _______ _____ _____    ______ ____
ROOT
ATOM      1  C   UNL     1      44.185   4.241  12.461  0.00  0.00    +0.000 C 
ATOM      2  F   UNL     1      43.511   4.078  13.639  0.00  0.00    +0.000 F 
ATOM      3  F   UNL     1      45.072   3.198  12.409  0.00  0.00    +0.000 F 
ENDROOT
BRANCH   1   4
ATOM      4  C   UNL     1      44.882   5.587  12.391  0.00  0.00    +0.000 A 
ATOM      5  C   UNL     1      44.253   6.681  11.785  0.00  0.00    +0.000 A 
ATOM      6  C   UNL     1      44.888   7.918  11.747  0.00  0.00    +0.000 A 
ATOM      7  C   UNL     1      46.154   8.076  12.319  0.00  0.00    +0.000 A 
ATOM      8  C   UNL     1      46.815   7.009  12.955  0.00  0.00    +0.000 A 
ATOM      9  C   UNL     1      46.155   5.765  12.968  0.00  0.00    +0.000 A 
BRANCH   8  10
ATOM     10  C   UNL     1      48.135   7.193  13.601  0.00  0.00    +0.000 A 
ATOM     11  C   UNL     1      49.145   7.992  13.045  0.00  0.00    +0.000 A 
ATOM     12  C   UNL     1      50.387   8.114  13.670  0.00  0.00    +0.000 A 
ATOM     13  C   UNL     1      50.595   7.437  14.858  0.00  0.00    +0.000 A 
ATOM     14  N   UNL     1      49.662   6.664  15.444  0.00  0.00    +0.000 NA
ATOM     15  C   UNL     1      48.470   6.560  14.804  0.00  0.00    +0.000 A 
ENDBRANCH   8  10
ENDBRANCH   1   4
BRANCH   1  16
ATOM     16  C   UNL     1      43.191   4.086  11.282  0.00  0.00    +0.000 C 
BRANCH  16  17
ATOM     17  N   UNL     1      43.704   4.630  10.011  0.00  0.00    +0.000 N 
ATOM     18  H   UNL     1      42.996   5.078   9.430  0.00  0.00    +0.000 HD
BRANCH  17  22
ATOM     19  C   UNL     1      46.516   2.496   7.701  0.00  0.00    +0.000 A 
ATOM     20  C   UNL     1      46.501   3.890   7.648  0.00  0.00    +0.000 A 
ATOM     21  C   UNL     1      45.587   4.613   8.426  0.00  0.00    +0.000 A 
ATOM     22  C   UNL     1      44.692   3.967   9.289  0.00  0.00    +0.000 A 
ATOM     23  C   UNL     1      44.707   2.565   9.310  0.00  0.00    +0.000 A 
ATOM     24  C   UNL     1      45.604   1.832   8.522  0.00  0.00    +0.000 A 
BRANCH  19  26
ATOM     25  N   UNL     1      48.557   2.330   6.383  0.00  0.00    +0.000 N 
ATOM     26  C   UNL     1      47.447   1.692   6.866  0.00  0.00    +0.000 C 
ATOM     27  O   UNL     1      47.254   0.505   6.649  0.00  0.00    +0.000 OA
ATOM     28  H   UNL     1      49.233   1.743   5.907  0.00  0.00    +0.000 HD
ATOM     29  H   UNL     1      48.871   3.218   6.741  0.00  0.00    +0.000 HD
ENDBRANCH  19  26
ENDBRANCH  17  22
ENDBRANCH  16  17
ENDBRANCH   1  16
TORSDOF 6
ENDMDL
MODEL 5
REMARK VINA RESULT:    -8.151      1.494      2.440
REMARK INTER + INTRA:         -12.104
REMARK INTER:                 -11.058
REMARK INTRA:                  -1.047
REMARK UNBOUND:                -1.094
REMARK  Name = 
REMARK  6 active torsions:
REMARK  status: ('A' for Active; 'I' for Inactive)
REMARK    1  A    between atoms: C_2  and  C_4
REMARK    2  A    between atoms: C_7  and  N_8
REMARK    3  A    between atoms: N_8  and  C_9
REMARK    4  A    between atoms: C_9  and  C_10
REMARK    5  A    between atoms: C_10  and  C_13
REMARK    6  A    between atoms: C_17  and  C_18
REMARK                            x       y       z     vdW  Elec       q    Type
REMARK                         _______ _______ _______ _____ _____    ______ ____
ROOT
ATOM      1  C   UNL     1      45.337   5.141  12.395  0.00  0.00    +0.000 C 
ATOM      2  F   UNL     1      45.094   4.739  13.678  0.00  0.00    +0.000 F 
ATOM      3  F   UNL     1      46.286   4.273  11.922  0.00  0.00    +0.000 F 
ENDROOT
BRANCH   1   4
ATOM      4  C   UNL     1      45.801   6.585  12.332  0.00  0.00    +0.000 A 
ATOM      5  C   UNL     1      44.929   7.625  12.673  0.00  0.00    +0.000 A 
ATOM      6  C   UNL     1      45.370   8.944  12.637  0.00  0.00    +0.000 A 
ATOM      7  C   UNL     1      46.685   9.236  12.266  0.00  0.00    +0.000 A 
ATOM      8  C   UNL     1      47.601   8.221  11.934  0.00  0.00    +0.000 A 
ATOM      9  C   UNL     1      47.125   6.895  11.967  0.00  0.00    +0.000 A 
BRANCH   8  10
ATOM     10  C   UNL     1      49.007   8.530  11.588  0.00  0.00    +0.000 A 
ATOM     11  C   UNL     1      49.989   7.537  11.456  0.00  0.00    +0.000 A 
ATOM     12  C   UNL     1      51.312   7.874  11.160  0.00  0.00    +0.000 A 
ATOM     13  C   UNL     1      51.629   9.208  10.990  0.00  0.00    +0.000 A 
ATOM     14  N   UNL     1      50.729  10.204  11.095  0.00  0.00    +0.000 NA
ATOM     15  C   UNL     1      49.455   9.842  11.393  0.00  0.00    +0.000 A 
ENDBRANCH   8  10
ENDBRANCH   1   4
BRANCH   1  16
ATOM     16  C   UNL     1      44.050   4.951  11.552  0.00  0.00    +0.000 C 
BRANCH  16  17
ATOM     17  N   UNL     1      44.259   5.168  10.109  0.00  0.00    +0.000 N 
ATOM     18  H   UNL     1      43.489   5.642   9.639  0.00  0.00    +0.000 HD
BRANCH  17  22
ATOM     19  C   UNL     1      46.428   2.381   7.801  0.00  0.00    +0.000 A 
ATOM     20  C   UNL     1      45.527   1.922   8.762  0.00  0.00    +0.000 A 
ATOM     21  C   UNL     1      44.785   2.836   9.522  0.00  0.00    +0.000 A 
ATOM     22  C   UNL     1      44.902   4.218   9.322  0.00  0.00    +0.000 A 
ATOM     23  C   UNL     1      45.830   4.659   8.367  0.00  0.00    +0.000 A 
ATOM     24  C   UNL     1      46.591   3.755   7.616  0.00  0.00    +0.000 A 
BRANCH  19  26
ATOM     25  N   UNL     1      48.292   1.989   6.284  0.00  0.00    +0.000 N 
ATOM     26  C   UNL     1      47.259   1.446   6.998  0.00  0.00    +0.000 C 
ATOM     27  O   UNL     1      47.057   0.240   7.003  0.00  0.00    +0.000 OA
ATOM     28  H   UNL     1      48.912   1.328   5.829  0.00  0.00    +0.000 HD
ATOM     29  H   UNL     1      48.636   2.921   6.450  0.00  0.00    +0.000 HD
ENDBRANCH  19  26
ENDBRANCH  17  22
ENDBRANCH  16  17
ENDBRANCH   1  16
TORSDOF 6
ENDMDL
MODEL 6
REMARK VINA RESULT:    -7.546      3.713      7.375
REMARK INTER + INTRA:         -11.287
REMARK INTER:                 -10.399
REMARK INTRA:                  -0.888
REMARK UNBOUND:                -1.094
REMARK  Name = 
REMARK  6 active torsions:
REMARK  status: ('A' for Active; 'I' for Inactive)
REMARK    1  A    between atoms: C_2  and  C_4
REMARK    2  A    between atoms: C_7  and  N_8
REMARK    3  A    between atoms: N_8  and  C_9
REMARK    4  A    between atoms: C_9  and  C_10
REMARK    5  A    between atoms: C_10  and  C_13
REMARK    6  A    between atoms: C_17  and  C_18
REMARK                            x       y       z     vdW  Elec       q    Type
REMARK                         _______ _______ _______ _____ _____    ______ ____
ROOT
ATOM      1  C   UNL     1      44.793   6.433  11.954  0.00  0.00    +0.000 C 
ATOM      2  F   UNL     1      44.310   6.546  13.228  0.00  0.00    +0.000 F 
ATOM      3  F   UNL     1      44.142   7.401  11.237  0.00  0.00    +0.000 F 
ENDROOT
BRANCH   1   4
ATOM      4  C   UNL     1      44.562   5.045  11.384  0.00  0.00    +0.000 A 
ATOM      5  C   UNL     1      43.606   4.195  11.951  0.00  0.00    +0.000 A 
ATOM      6  C   UNL     1      43.383   2.935  11.407  0.00  0.00    +0.000 A 
ATOM      7  C   UNL     1      44.107   2.514  10.287  0.00  0.00    +0.000 A 
ATOM      8  C   UNL     1      45.063   3.343   9.673  0.00  0.00    +0.000 A 
ATOM      9  C   UNL     1      45.278   4.609  10.252  0.00  0.00    +0.000 A 
BRANCH   8  10
ATOM     10  C   UNL     1      45.793   2.913   8.458  0.00  0.00    +0.000 A 
ATOM     11  C   UNL     1      46.091   3.791   7.405  0.00  0.00    +0.000 A 
ATOM     12  C   UNL     1      46.753   3.339   6.262  0.00  0.00    +0.000 A 
ATOM     13  C   UNL     1      47.118   2.007   6.197  0.00  0.00    +0.000 A 
ATOM     14  N   UNL     1      46.868   1.120   7.179  0.00  0.00    +0.000 NA
ATOM     15  C   UNL     1      46.215   1.592   8.270  0.00  0.00    +0.000 A 
ENDBRANCH   8  10
ENDBRANCH   1   4
BRANCH   1  16
ATOM     16  C   UNL     1      46.307   6.769  11.954  0.00  0.00    +0.000 C 
BRANCH  16  17
ATOM     17  N   UNL     1      47.147   5.685  12.492  0.00  0.00    +0.000 N 
ATOM     18  H   UNL     1      47.022   4.786  12.026  0.00  0.00    +0.000 HD
BRANCH  17  22
ATOM     19  C   UNL     1      48.040   5.147  16.580  0.00  0.00    +0.000 A 
ATOM     20  C   UNL     1      48.580   6.237  15.897  0.00  0.00    +0.000 A 
ATOM     21  C   UNL     1      48.276   6.440  14.545  0.00  0.00    +0.000 A 
ATOM     22  C   UNL     1      47.409   5.583  13.855  0.00  0.00    +0.000 A 
ATOM     23  C   UNL     1      46.895   4.480  14.552  0.00  0.00    +0.000 A 
ATOM     24  C   UNL     1      47.208   4.257  15.899  0.00  0.00    +0.000 A 
BRANCH  19  26
ATOM     25  N   UNL     1      47.989   3.662  18.509  0.00  0.00    +0.000 N 
ATOM     26  C   UNL     1      48.366   4.878  18.005  0.00  0.00    +0.000 C 
ATOM     27  O   UNL     1      48.975   5.686  18.690  0.00  0.00    +0.000 OA
ATOM     28  H   UNL     1      48.312   3.453  19.448  0.00  0.00    +0.000 HD
ATOM     29  H   UNL     1      47.716   2.891  17.921  0.00  0.00    +0.000 HD
ENDBRANCH  19  26
ENDBRANCH  17  22
ENDBRANCH  16  17
ENDBRANCH   1  16
TORSDOF 6
ENDMDL
MODEL 7
REMARK VINA RESULT:    -6.976      4.230      7.695
REMARK INTER + INTRA:         -10.517
REMARK INTER:                  -9.352
REMARK INTRA:                  -1.164
REMARK UNBOUND:                -1.094
REMARK  Name = 
REMARK  6 active torsions:
REMARK  status: ('A' for Active; 'I' for Inactive)
REMARK    1  A    between atoms: C_2  and  C_4
REMARK    2  A    between atoms: C_7  and  N_8
REMARK    3  A    between atoms: N_8  and  C_9
REMARK    4  A    between atoms: C_9  and  C_10
REMARK    5  A    between atoms: C_10  and  C_13
REMARK    6  A    between atoms: C_17  and  C_18
REMARK                            x       y       z     vdW  Elec       q    Type
REMARK                         _______ _______ _______ _____ _____    ______ ____
ROOT
ATOM      1  C   UNL     1      48.966   8.116  12.367  0.00  0.00    +0.000 C 
ATOM      2  F   UNL     1      49.402   9.104  11.529  0.00  0.00    +0.000 F 
ATOM      3  F   UNL     1      49.764   7.037  12.094  0.00  0.00    +0.000 F 
ENDROOT
BRANCH   1   4
ATOM      4  C   UNL     1      47.494   7.806  12.159  0.00  0.00    +0.000 A 
ATOM      5  C   UNL     1      46.512   8.696  12.608  0.00  0.00    +0.000 A 
ATOM      6  C   UNL     1      45.166   8.416  12.390  0.00  0.00    +0.000 A 
ATOM      7  C   UNL     1      44.790   7.250  11.717  0.00  0.00    +0.000 A 
ATOM      8  C   UNL     1      45.745   6.338  11.231  0.00  0.00    +0.000 A 
ATOM      9  C   UNL     1      47.099   6.639  11.476  0.00  0.00    +0.000 A 
BRANCH   8  10
ATOM     10  C   UNL     1      45.344   5.129  10.476  0.00  0.00    +0.000 A 
ATOM     11  C   UNL     1      45.647   4.951   9.118  0.00  0.00    +0.000 A 
ATOM     12  C   UNL     1      45.224   3.810   8.433  0.00  0.00    +0.000 A 
ATOM     13  C   UNL     1      44.508   2.854   9.129  0.00  0.00    +0.000 A 
ATOM     14  N   UNL     1      44.196   2.964  10.434  0.00  0.00    +0.000 NA
ATOM     15  C   UNL     1      44.615   4.090  11.065  0.00  0.00    +0.000 A 
ENDBRANCH   8  10
ENDBRANCH   1   4
BRANCH   1  16
ATOM     16  C   UNL     1      49.223   8.544  13.835  0.00  0.00    +0.000 C 
BRANCH  16  17
ATOM     17  N   UNL     1      50.069   7.596  14.580  0.00  0.00    +0.000 N 
ATOM     18  H   UNL     1      50.870   7.245  14.055  0.00  0.00    +0.000 HD
BRANCH  17  22
ATOM     19  C   UNL     1      48.377   4.613  17.037  0.00  0.00    +0.000 A 
ATOM     20  C   UNL     1      49.620   5.151  17.369  0.00  0.00    +0.000 A 
ATOM     21  C   UNL     1      50.186   6.157  16.574  0.00  0.00    +0.000 A 
ATOM     22  C   UNL     1      49.515   6.666  15.454  0.00  0.00    +0.000 A 
ATOM     23  C   UNL     1      48.277   6.095  15.124  0.00  0.00    +0.000 A 
ATOM     24  C   UNL     1      47.712   5.076  15.901  0.00  0.00    +0.000 A 
BRANCH  19  26
ATOM     25  N   UNL     1      48.318   3.251  19.055  0.00  0.00    +0.000 N 
ATOM     26  C   UNL     1      47.759   3.521  17.835  0.00  0.00    +0.000 C 
ATOM     27  O   UNL     1      46.773   2.915  17.441  0.00  0.00    +0.000 OA
ATOM     28  H   UNL     1      47.821   2.579  19.629  0.00  0.00    +0.000 HD
ATOM     29  H   UNL     1      48.958   3.881  19.510  0.00  0.00    +0.000 HD
ENDBRANCH  19  26
ENDBRANCH  17  22
ENDBRANCH  16  17
ENDBRANCH   1  16
TORSDOF 6
ENDMDL
MODEL 8
REMARK VINA RESULT:    -6.678      3.204      7.521
REMARK INTER + INTRA:         -10.114
REMARK INTER:                  -9.330
REMARK INTRA:                  -0.784
REMARK UNBOUND:                -1.094
REMARK  Name = 
REMARK  6 active torsions:
REMARK  status: ('A' for Active; 'I' for Inactive)
REMARK    1  A    between atoms: C_2  and  C_4
REMARK    2  A    between atoms: C_7  and  N_8
REMARK    3  A    between atoms: N_8  and  C_9
REMARK    4  A    between atoms: C_9  and  C_10
REMARK    5  A    between atoms: C_10  and  C_13
REMARK    6  A    between atoms: C_17  and  C_18
REMARK                            x       y       z     vdW  Elec       q    Type
REMARK                         _______ _______ _______ _____ _____    ______ ____
ROOT
ATOM      1  C   UNL     1      44.460   6.238  11.725  0.00  0.00    +0.000 C 
ATOM      2  F   UNL     1      44.320   6.284  13.084  0.00  0.00    +0.000 F 
ATOM      3  F   UNL     1      43.469   7.046  11.235  0.00  0.00    +0.000 F 
ENDROOT
BRANCH   1   4
ATOM      4  C   UNL     1      44.358   4.820  11.193  0.00  0.00    +0.000 A 
ATOM      5  C   UNL     1      43.478   3.904  11.782  0.00  0.00    +0.000 A 
ATOM      6  C   UNL     1      43.372   2.614  11.272  0.00  0.00    +0.000 A 
ATOM      7  C   UNL     1      44.138   2.228  10.168  0.00  0.00    +0.000 A 
ATOM      8  C   UNL     1      45.020   3.122   9.534  0.00  0.00    +0.000 A 
ATOM      9  C   UNL     1      45.117   4.418  10.077  0.00  0.00    +0.000 A 
BRANCH   8  10
ATOM     10  C   UNL     1      45.793   2.725   8.334  0.00  0.00    +0.000 A 
ATOM     11  C   UNL     1      46.044   3.606   7.271  0.00  0.00    +0.000 A 
ATOM     12  C   UNL     1      46.750   3.183   6.143  0.00  0.00    +0.000 A 
ATOM     13  C   UNL     1      47.206   1.879   6.104  0.00  0.00    +0.000 A 
ATOM     14  N   UNL     1      47.004   0.992   7.096  0.00  0.00    +0.000 NA
ATOM     15  C   UNL     1      46.307   1.434   8.173  0.00  0.00    +0.000 A 
ENDBRANCH   8  10
ENDBRANCH   1   4
BRANCH   1  16
ATOM     16  C   UNL     1      45.825   6.862  11.334  0.00  0.00    +0.000 C 
BRANCH  16  17
ATOM     17  N   UNL     1      46.947   6.370  12.153  0.00  0.00    +0.000 N 
ATOM     18  H   UNL     1      46.741   5.524  12.684  0.00  0.00    +0.000 HD
BRANCH  17  22
ATOM     19  C   UNL     1      49.642   9.107  13.898  0.00  0.00    +0.000 A 
ATOM     20  C   UNL     1      48.275   9.238  14.145  0.00  0.00    +0.000 A 
ATOM     21  C   UNL     1      47.370   8.324  13.589  0.00  0.00    +0.000 A 
ATOM     22  C   UNL     1      47.807   7.250  12.803  0.00  0.00    +0.000 A 
ATOM     23  C   UNL     1      49.183   7.149  12.548  0.00  0.00    +0.000 A 
ATOM     24  C   UNL     1      50.094   8.069  13.083  0.00  0.00    +0.000 A 
BRANCH  19  26
ATOM     25  N   UNL     1      50.142  11.096  15.212  0.00  0.00    +0.000 N 
ATOM     26  C   UNL     1      50.630  10.076  14.441  0.00  0.00    +0.000 C 
ATOM     27  O   UNL     1      51.830   9.949  14.243  0.00  0.00    +0.000 OA
ATOM     28  H   UNL     1      50.836  11.683  15.660  0.00  0.00    +0.000 HD
ATOM     29  H   UNL     1      49.210  11.089  15.595  0.00  0.00    +0.000 HD
ENDBRANCH  19  26
ENDBRANCH  17  22
ENDBRANCH  16  17
ENDBRANCH   1  16
TORSDOF 6
ENDMDL
MODEL 9
REMARK VINA RESULT:    -6.337      4.363      6.445
REMARK INTER + INTRA:          -9.654
REMARK INTER:                  -8.370
REMARK INTRA:                  -1.284
REMARK UNBOUND:                -1.094
REMARK  Name = 
REMARK  6 active torsions:
REMARK  status: ('A' for Active; 'I' for Inactive)
REMARK    1  A    between atoms: C_2  and  C_4
REMARK    2  A    between atoms: C_7  and  N_8
REMARK    3  A    between atoms: N_8  and  C_9
REMARK    4  A    between atoms: C_9  and  C_10
REMARK    5  A    between atoms: C_10  and  C_13
REMARK    6  A    between atoms: C_17  and  C_18
REMARK                            x       y       z     vdW  Elec       q    Type
REMARK                         _______ _______ _______ _____ _____    ______ ____
ROOT
ATOM      1  C   UNL     1      48.538   9.264  14.044  0.00  0.00    +0.000 C 
ATOM      2  F   UNL     1      49.693   9.024  13.355  0.00  0.00    +0.000 F 
ATOM      3  F   UNL     1      48.447  10.628  14.127  0.00  0.00    +0.000 F 
ENDROOT
BRANCH   1   4
ATOM      4  C   UNL     1      48.549   8.608  15.413  0.00  0.00    +0.000 A 
ATOM      5  C   UNL     1      48.244   9.351  16.559  0.00  0.00    +0.000 A 
ATOM      6  C   UNL     1      48.232   8.736  17.807  0.00  0.00    +0.000 A 
ATOM      7  C   UNL     1      48.519   7.373  17.921  0.00  0.00    +0.000 A 
ATOM      8  C   UNL     1      48.812   6.584  16.794  0.00  0.00    +0.000 A 
ATOM      9  C   UNL     1      48.829   7.234  15.545  0.00  0.00    +0.000 A 
BRANCH   8  10
ATOM     10  C   UNL     1      49.068   5.129  16.914  0.00  0.00    +0.000 A 
ATOM     11  C   UNL     1      48.093   4.164  16.620  0.00  0.00    +0.000 A 
ATOM     12  C   UNL     1      48.364   2.803  16.776  0.00  0.00    +0.000 A 
ATOM     13  C   UNL     1      49.620   2.429  17.217  0.00  0.00    +0.000 A 
ATOM     14  N   UNL     1      50.597   3.308  17.506  0.00  0.00    +0.000 NA
ATOM     15  C   UNL     1      50.296   4.622  17.352  0.00  0.00    +0.000 A 
ENDBRANCH   8  10
ENDBRANCH   1   4
BRANCH   1  16
ATOM     16  C   UNL     1      47.334   8.752  13.212  0.00  0.00    +0.000 C 
BRANCH  16  17
ATOM     17  N   UNL     1      47.697   7.698  12.249  0.00  0.00    +0.000 N 
ATOM     18  H   UNL     1      48.106   8.044  11.381  0.00  0.00    +0.000 HD
BRANCH  17  22
ATOM     19  C   UNL     1      45.177   4.326  11.970  0.00  0.00    +0.000 A 
ATOM     20  C   UNL     1      45.212   5.244  10.921  0.00  0.00    +0.000 A 
ATOM     21  C   UNL     1      46.059   6.358  10.990  0.00  0.00    +0.000 A 
ATOM     22  C   UNL     1      46.906   6.564  12.087  0.00  0.00    +0.000 A 
ATOM     23  C   UNL     1      46.839   5.642  13.142  0.00  0.00    +0.000 A 
ATOM     24  C   UNL     1      45.981   4.536  13.091  0.00  0.00    +0.000 A 
BRANCH  19  26
ATOM     25  N   UNL     1      44.203   2.434  10.786  0.00  0.00    +0.000 N 
ATOM     26  C   UNL     1      44.267   3.150  11.950  0.00  0.00    +0.000 C 
ATOM     27  O   UNL     1      43.631   2.811  12.938  0.00  0.00    +0.000 OA
ATOM     28  H   UNL     1      43.662   1.577  10.823  0.00  0.00    +0.000 HD
ATOM     29  H   UNL     1      44.885   2.531  10.051  0.00  0.00    +0.000 HD
ENDBRANCH  19  26
ENDBRANCH  17  22
ENDBRANCH  16  17
ENDBRANCH   1  16
TORSDOF 6
ENDMDL
