MODEL 1
REMARK VINA RESULT:    -8.043      0.000      0.000
REMARK INTER + INTRA:          -9.840
REMARK INTER:                  -9.453
REMARK INTRA:                  -0.387
REMARK UNBOUND:                -0.387
REMARK  Name = 
REMARK  3 active torsions:
REMARK  status: ('A' for Active; 'I' for Inactive)
REMARK    1  A    between atoms: C_2  and  C_4
REMARK    2  A    between atoms: N_8  and  C_9
REMARK    3  A    between atoms: C_9  and  C_10
REMARK                            x       y       z     vdW  Elec       q    Type
REMARK                         _______ _______ _______ _____ _____    ______ ____
ROOT
ATOM      1  C   UNL     1      46.587   4.461  13.570  0.00  0.00    +0.000 A 
ATOM      2  C   UNL     1      46.761   5.682  12.929  0.00  0.00    +0.000 A 
ATOM      3  C   UNL     1      46.112   5.904  11.716  0.00  0.00    +0.000 A 
ATOM      4  C   UNL     1      45.329   4.899  11.150  0.00  0.00    +0.000 A 
ATOM      5  N   UNL     1      44.751   5.165   9.910  0.00  0.00    +0.000 N 
ATOM      6  N   UNL     1      45.171   3.704  11.750  0.00  0.00    +0.000 NA
ATOM      7  C   UNL     1      45.797   3.509  12.941  0.00  0.00    +0.000 A 
ATOM      8  H   UNL     1      44.099   5.942   9.977  0.00  0.00    +0.000 HD
ENDROOT
BRANCH   1  10
ATOM      9  N   UNL     1      47.229   5.117  15.818  0.00  0.00    +0.000 N 
ATOM     10  C   UNL     1      47.219   4.135  14.865  0.00  0.00    +0.000 C 
ATOM     11  O   UNL     1      47.683   3.028  15.093  0.00  0.00    +0.000 OA
ATOM     12  H   UNL     1      47.576   4.855  16.733  0.00  0.00    +0.000 HD
ATOM     13  H   UNL     1      46.660   5.949  15.758  0.00  0.00    +0.000 HD
ENDBRANCH   1  10
BRANCH   5  14
ATOM     14  C   UNL     1      44.206   4.037   9.177  0.00  0.00    +0.000 C 
BRANCH  14  15
ATOM     15  C   UNL     1      45.339   3.407   8.389  0.00  0.00    +0.000 A 
ATOM     16  C   UNL     1      46.226   4.182   7.632  0.00  0.00    +0.000 A 
ATOM     17  C   UNL     1      47.261   3.574   6.914  0.00  0.00    +0.000 A 
ATOM     18  C   UNL     1      47.417   2.187   6.944  0.00  0.00    +0.000 A 
ATOM     19  C   UNL     1      46.534   1.409   7.687  0.00  0.00    +0.000 A 
ATOM     20 CL   UNL     1      46.726  -0.300   7.734  0.00  0.00    +0.000 Cl
ATOM     21  C   UNL     1      45.498   2.008   8.398  0.00  0.00    +0.000 A 
ENDBRANCH  14  15
ENDBRANCH   5  14
TORSDOF 3
ENDMDL
MODEL 2
REMARK VINA RESULT:    -7.954      3.521      6.410
REMARK INTER + INTRA:          -9.735
REMARK INTER:                  -9.398
REMARK INTRA:                  -0.337
REMARK UNBOUND:                -0.387
REMARK  Name = 
REMARK  3 active torsions:
REMARK  status: ('A' for Active; 'I' for Inactive)
REMARK    1  A    between atoms: C_2  and  C_4
REMARK    2  A    between atoms: N_8  and  C_9
REMARK    3  A    between atoms: C_9  and  C_10
REMARK                            x       y       z     vdW  Elec       q    Type
REMARK                         _______ _______ _______ _____ _____    ______ ____
ROOT
ATOM      1  C   UNL     1      46.577   2.615   7.382  0.00  0.00    +0.000 A 
ATOM      2  C   UNL     1      45.986   1.661   8.203  0.00  0.00    +0.000 A 
ATOM      3  C   UNL     1      45.090   2.079   9.185  0.00  0.00    +0.000 A 
ATOM      4  C   UNL     1      44.824   3.437   9.353  0.00  0.00    +0.000 A 
ATOM      5  N   UNL     1      43.961   3.793  10.387  0.00  0.00    +0.000 N 
ATOM      6  N   UNL     1      45.407   4.372   8.579  0.00  0.00    +0.000 NA
ATOM      7  C   UNL     1      46.265   3.948   7.614  0.00  0.00    +0.000 A 
ATOM      8  H   UNL     1      43.036   3.404  10.233  0.00  0.00    +0.000 HD
ENDROOT
BRANCH   1  10
ATOM      9  N   UNL     1      47.524   3.071   5.193  0.00  0.00    +0.000 N 
ATOM     10  C   UNL     1      47.526   2.271   6.303  0.00  0.00    +0.000 C 
ATOM     11  O   UNL     1      48.305   1.335   6.407  0.00  0.00    +0.000 OA
ATOM     12  H   UNL     1      48.242   2.887   4.503  0.00  0.00    +0.000 HD
ATOM     13  H   UNL     1      47.073   3.974   5.166  0.00  0.00    +0.000 HD
ENDBRANCH   1  10
BRANCH   5  14
ATOM     14  C   UNL     1      43.924   5.194  10.767  0.00  0.00    +0.000 C 
BRANCH  14  15
ATOM     15  C   UNL     1      45.087   5.449  11.709  0.00  0.00    +0.000 A 
ATOM     16  C   UNL     1      45.210   4.765  12.924  0.00  0.00    +0.000 A 
ATOM     17  C   UNL     1      46.292   5.021  13.773  0.00  0.00    +0.000 A 
ATOM     18  C   UNL     1      47.259   5.962  13.416  0.00  0.00    +0.000 A 
ATOM     19  C   UNL     1      47.139   6.651  12.213  0.00  0.00    +0.000 A 
ATOM     20 CL   UNL     1      48.332   7.808  11.763  0.00  0.00    +0.000 Cl
ATOM     21  C   UNL     1      46.060   6.406  11.367  0.00  0.00    +0.000 A 
ENDBRANCH  14  15
ENDBRANCH   5  14
TORSDOF 3
ENDMDL
MODEL 3
REMARK VINA RESULT:    -7.472      3.588      6.229
REMARK INTER + INTRA:          -9.169
REMARK INTER:                  -8.929
REMARK INTRA:                  -0.240
REMARK UNBOUND:                -0.387
REMARK  Name = 
REMARK  3 active torsions:
REMARK  status: ('A' for Active; 'I' for Inactive)
REMARK    1  A    between atoms: C_2  and  C_4
REMARK    2  A    between atoms: N_8  and  C_9
REMARK    3  A    between atoms: C_9  and  C_10
REMARK                            x       y       z     vdW  Elec       q    Type
REMARK                         _______ _______ _______ _____ _____    ______ ____
ROOT
ATOM      1  C   UNL     1      46.293   2.801   7.505  0.00  0.00    +0.000 A 
ATOM      2  C   UNL     1      45.884   1.790   8.369  0.00  0.00    +0.000 A 
ATOM      3  C   UNL     1      45.006   2.103   9.404  0.00  0.00    +0.000 A 
ATOM      4  C   UNL     1      44.575   3.418   9.580  0.00  0.00    +0.000 A 
ATOM      5  N   UNL     1      43.740   3.674  10.665  0.00  0.00    +0.000 N 
ATOM      6  N   UNL     1      44.981   4.409   8.764  0.00  0.00    +0.000 NA
ATOM      7  C   UNL     1      45.824   4.084   7.748  0.00  0.00    +0.000 A 
ATOM      8  H   UNL     1      42.866   3.165  10.574  0.00  0.00    +0.000 HD
ENDROOT
BRANCH   1  10
ATOM      9  N   UNL     1      48.397   1.947   6.645  0.00  0.00    +0.000 N 
ATOM     10  C   UNL     1      47.208   2.567   6.370  0.00  0.00    +0.000 C 
ATOM     11  O   UNL     1      46.907   2.880   5.227  0.00  0.00    +0.000 OA
ATOM     12  H   UNL     1      48.974   1.704   5.849  0.00  0.00    +0.000 HD
ATOM     13  H   UNL     1      48.580   1.470   7.516  0.00  0.00    +0.000 HD
ENDBRANCH   1  10
BRANCH   5  14
ATOM     14  C   UNL     1      43.544   5.064  11.037  0.00  0.00    +0.000 C 
BRANCH  14  15
ATOM     15  C   UNL     1      44.793   5.528  11.764  0.00  0.00    +0.000 A 
ATOM     16  C   UNL     1      45.520   6.644  11.335  0.00  0.00    +0.000 A 
ATOM     17  C   UNL     1      46.668   7.049  12.024  0.00  0.00    +0.000 A 
ATOM     18  C   UNL     1      47.100   6.341  13.147  0.00  0.00    +0.000 A 
ATOM     19  C   UNL     1      46.387   5.226  13.576  0.00  0.00    +0.000 A 
ATOM     20 CL   UNL     1      46.910   4.353  14.964  0.00  0.00    +0.000 Cl
ATOM     21  C   UNL     1      45.247   4.814  12.889  0.00  0.00    +0.000 A 
ENDBRANCH  14  15
ENDBRANCH   5  14
TORSDOF 3
ENDMDL
MODEL 4
REMARK VINA RESULT:    -7.271      1.822      2.301
REMARK INTER + INTRA:          -8.933
REMARK INTER:                  -8.723
REMARK INTRA:                  -0.210
REMARK UNBOUND:                -0.387
REMARK  Name = 
REMARK  3 active torsions:
REMARK  status: ('A' for Active; 'I' for Inactive)
REMARK    1  A    between atoms: C_2  and  C_4
REMARK    2  A    between atoms: N_8  and  C_9
REMARK    3  A    between atoms: C_9  and  C_10
REMARK                            x       y       z     vdW  Elec       q    Type
REMARK                         _______ _______ _______ _____ _____    ______ ____
ROOT
ATOM      1  C   UNL     1      46.745   6.645  12.986  0.00  0.00    +0.000 A 
ATOM      2  C   UNL     1      46.490   5.510  13.748  0.00  0.00    +0.000 A 
ATOM      3  C   UNL     1      45.867   4.420  13.144  0.00  0.00    +0.000 A 
ATOM      4  C   UNL     1      45.483   4.489  11.805  0.00  0.00    +0.000 A 
ATOM      5  N   UNL     1      44.817   3.385  11.277  0.00  0.00    +0.000 N 
ATOM      6  N   UNL     1      45.705   5.590  11.063  0.00  0.00    +0.000 NA
ATOM      7  C   UNL     1      46.329   6.640  11.662  0.00  0.00    +0.000 A 
ATOM      8  H   UNL     1      45.414   2.563  11.294  0.00  0.00    +0.000 HD
ENDROOT
BRANCH   1  10
ATOM      9  N   UNL     1      46.610   8.864  13.963  0.00  0.00    +0.000 N 
ATOM     10  C   UNL     1      47.414   7.845  13.529  0.00  0.00    +0.000 C 
ATOM     11  O   UNL     1      48.630   7.916  13.622  0.00  0.00    +0.000 OA
ATOM     12  H   UNL     1      47.072   9.639  14.422  0.00  0.00    +0.000 HD
ATOM     13  H   UNL     1      45.618   8.754  14.120  0.00  0.00    +0.000 HD
ENDBRANCH   1  10
BRANCH   5  14
ATOM     14  C   UNL     1      44.145   3.565  10.002  0.00  0.00    +0.000 C 
BRANCH  14  15
ATOM     15  C   UNL     1      45.102   3.128   8.909  0.00  0.00    +0.000 A 
ATOM     16  C   UNL     1      45.644   4.044   8.000  0.00  0.00    +0.000 A 
ATOM     17  C   UNL     1      46.524   3.613   7.001  0.00  0.00    +0.000 A 
ATOM     18  C   UNL     1      46.868   2.264   6.901  0.00  0.00    +0.000 A 
ATOM     19  C   UNL     1      46.327   1.346   7.797  0.00  0.00    +0.000 A 
ATOM     20 CL   UNL     1      46.752  -0.318   7.684  0.00  0.00    +0.000 Cl
ATOM     21  C   UNL     1      45.445   1.768   8.789  0.00  0.00    +0.000 A 
ENDBRANCH  14  15
ENDBRANCH   5  14
TORSDOF 3
ENDMDL
MODEL 5
REMARK VINA RESULT:    -6.357      3.786      7.421
REMARK INTER + INTRA:          -7.858
REMARK INTER:                  -7.559
REMARK INTRA:                  -0.300
REMARK UNBOUND:                -0.387
REMARK  Name = 
REMARK  3 active torsions:
REMARK  status: ('A' for Active; 'I' for Inactive)
REMARK    1  A    between atoms: C_2  and  C_4
REMARK    2  A    between atoms: N_8  and  C_9
REMARK    3  A    between atoms: C_9  and  C_10
REMARK                            x       y       z     vdW  Elec       q    Type
REMARK                         _______ _______ _______ _____ _____    ______ ____
ROOT
ATOM      1  C   UNL     1      45.290   4.279  11.602  0.00  0.00    +0.000 A 
ATOM      2  C   UNL     1      45.585   5.589  11.966  0.00  0.00    +0.000 A 
ATOM      3  C   UNL     1      46.234   5.822  13.177  0.00  0.00    +0.000 A 
ATOM      4  C   UNL     1      46.548   4.754  14.016  0.00  0.00    +0.000 A 
ATOM      5  N   UNL     1      47.147   5.059  15.236  0.00  0.00    +0.000 N 
ATOM      6  N   UNL     1      46.248   3.483  13.686  0.00  0.00    +0.000 NA
ATOM      7  C   UNL     1      45.631   3.270  12.493  0.00  0.00    +0.000 A 
ATOM      8  H   UNL     1      48.051   5.500  15.092  0.00  0.00    +0.000 HD
ENDROOT
BRANCH   1  10
ATOM      9  N   UNL     1      43.777   4.862   9.795  0.00  0.00    +0.000 N 
ATOM     10  C   UNL     1      44.620   3.928  10.334  0.00  0.00    +0.000 C 
ATOM     11  O   UNL     1      44.832   2.866   9.768  0.00  0.00    +0.000 OA
ATOM     12  H   UNL     1      43.398   4.653   8.879  0.00  0.00    +0.000 HD
ATOM     13  H   UNL     1      43.755   5.825  10.099  0.00  0.00    +0.000 HD
ENDBRANCH   1  10
BRANCH   5  14
ATOM     14  C   UNL     1      47.190   4.006  16.235  0.00  0.00    +0.000 C 
BRANCH  14  15
ATOM     15  C   UNL     1      48.607   3.936  16.773  0.00  0.00    +0.000 A 
ATOM     16  C   UNL     1      49.312   5.089  17.138  0.00  0.00    +0.000 A 
ATOM     17  C   UNL     1      50.618   4.994  17.629  0.00  0.00    +0.000 A 
ATOM     18  C   UNL     1      51.232   3.747  17.759  0.00  0.00    +0.000 A 
ATOM     19  C   UNL     1      50.541   2.597  17.391  0.00  0.00    +0.000 A 
ATOM     20 CL   UNL     1      51.289   1.055  17.555  0.00  0.00    +0.000 Cl
ATOM     21  C   UNL     1      49.243   2.685  16.894  0.00  0.00    +0.000 A 
ENDBRANCH  14  15
ENDBRANCH   5  14
TORSDOF 3
ENDMDL
MODEL 6
REMARK VINA RESULT:    -5.969      3.485      5.437
REMARK INTER + INTRA:          -7.402
REMARK INTER:                  -7.168
REMARK INTRA:                  -0.234
REMARK UNBOUND:                -0.387
REMARK  Name = 
REMARK  3 active torsions:
REMARK  status: ('A' for Active; 'I' for Inactive)
REMARK    1  A    between atoms: C_2  and  C_4
REMARK    2  A    between atoms: N_8  and  C_9
REMARK    3  A    between atoms: C_9  and  C_10
REMARK                            x       y       z     vdW  Elec       q    Type
REMARK                         _______ _______ _______ _____ _____    ______ ____
ROOT
ATOM      1  C   UNL     1      48.962   4.577  18.141  0.00  0.00    +0.000 A 
ATOM      2  C   UNL     1      48.041   3.535  18.128  0.00  0.00    +0.000 A 
ATOM      3  C   UNL     1      47.297   3.309  16.972  0.00  0.00    +0.000 A 
ATOM      4  C   UNL     1      47.460   4.140  15.864  0.00  0.00    +0.000 A 
ATOM      5  N   UNL     1      46.648   3.893  14.759  0.00  0.00    +0.000 N 
ATOM      6  N   UNL     1      48.333   5.165  15.872  0.00  0.00    +0.000 NA
ATOM      7  C   UNL     1      49.064   5.363  17.002  0.00  0.00    +0.000 A 
ATOM      8  H   UNL     1      46.835   2.972  14.374  0.00  0.00    +0.000 HD
ENDROOT
BRANCH   1  10
ATOM      9  N   UNL     1      50.955   4.156  19.463  0.00  0.00    +0.000 N 
ATOM     10  C   UNL     1      49.808   4.887  19.312  0.00  0.00    +0.000 C 
ATOM     11  O   UNL     1      49.519   5.780  20.095  0.00  0.00    +0.000 OA
ATOM     12  H   UNL     1      51.576   4.440  20.211  0.00  0.00    +0.000 HD
ATOM     13  H   UNL     1      51.344   3.584  18.728  0.00  0.00    +0.000 HD
ENDBRANCH   1  10
BRANCH   5  14
ATOM     14  C   UNL     1      46.585   4.925  13.739  0.00  0.00    +0.000 C 
BRANCH  14  15
ATOM     15  C   UNL     1      45.347   4.672  12.901  0.00  0.00    +0.000 A 
ATOM     16  C   UNL     1      44.146   5.351  13.140  0.00  0.00    +0.000 A 
ATOM     17  C   UNL     1      43.019   5.096  12.352  0.00  0.00    +0.000 A 
ATOM     18  C   UNL     1      43.082   4.160  11.318  0.00  0.00    +0.000 A 
ATOM     19  C   UNL     1      44.269   3.475  11.079  0.00  0.00    +0.000 A 
ATOM     20 CL   UNL     1      44.355   2.324   9.802  0.00  0.00    +0.000 Cl
ATOM     21  C   UNL     1      45.392   3.719  11.865  0.00  0.00    +0.000 A 
ENDBRANCH  14  15
ENDBRANCH   5  14
TORSDOF 3
ENDMDL
MODEL 7
REMARK VINA RESULT:    -5.895      4.099      6.304
REMARK INTER + INTRA:          -7.315
REMARK INTER:                  -7.009
REMARK INTRA:                  -0.306
REMARK UNBOUND:                -0.387
REMARK  Name = 
REMARK  3 active torsions:
REMARK  status: ('A' for Active; 'I' for Inactive)
REMARK    1  A    between atoms: C_2  and  C_4
REMARK    2  A    between atoms: N_8  and  C_9
REMARK    3  A    between atoms: C_9  and  C_10
REMARK                            x       y       z     vdW  Elec       q    Type
REMARK                         _______ _______ _______ _____ _____    ______ ____
ROOT
ATOM      1  C   UNL     1      44.437   4.087  11.723  0.00  0.00    +0.000 A 
ATOM      2  C   UNL     1      45.379   4.015  12.743  0.00  0.00    +0.000 A 
ATOM      3  C   UNL     1      45.860   5.199  13.299  0.00  0.00    +0.000 A 
ATOM      4  C   UNL     1      45.420   6.429  12.811  0.00  0.00    +0.000 A 
ATOM      5  N   UNL     1      45.980   7.574  13.373  0.00  0.00    +0.000 N 
ATOM      6  N   UNL     1      44.525   6.511  11.808  0.00  0.00    +0.000 NA
ATOM      7  C   UNL     1      44.052   5.347  11.288  0.00  0.00    +0.000 A 
ATOM      8  H   UNL     1      45.755   7.635  14.362  0.00  0.00    +0.000 HD
ENDROOT
BRANCH   1  10
ATOM      9  N   UNL     1      44.480   2.419   9.958  0.00  0.00    +0.000 N 
ATOM     10  C   UNL     1      43.855   2.891  11.080  0.00  0.00    +0.000 C 
ATOM     11  O   UNL     1      42.879   2.322  11.546  0.00  0.00    +0.000 OA
ATOM     12  H   UNL     1      44.134   1.545   9.582  0.00  0.00    +0.000 HD
ATOM     13  H   UNL     1      45.407   2.710   9.681  0.00  0.00    +0.000 HD
ENDBRANCH   1  10
BRANCH   5  14
ATOM     14  C   UNL     1      45.771   8.827  12.670  0.00  0.00    +0.000 C 
BRANCH  14  15
ATOM     15  C   UNL     1      47.120   9.310  12.174  0.00  0.00    +0.000 A 
ATOM     16  C   UNL     1      47.378  10.668  11.953  0.00  0.00    +0.000 A 
ATOM     17  C   UNL     1      48.632  11.085  11.494  0.00  0.00    +0.000 A 
ATOM     18  C   UNL     1      49.638  10.149  11.250  0.00  0.00    +0.000 A 
ATOM     19  C   UNL     1      49.387   8.796  11.460  0.00  0.00    +0.000 A 
ATOM     20 CL   UNL     1      50.626   7.637  11.168  0.00  0.00    +0.000 Cl
ATOM     21  C   UNL     1      48.139   8.375  11.910  0.00  0.00    +0.000 A 
ENDBRANCH  14  15
ENDBRANCH   5  14
TORSDOF 3
ENDMDL
MODEL 8
REMARK VINA RESULT:    -5.784      5.136      8.224
REMARK INTER + INTRA:          -7.184
REMARK INTER:                  -6.939
REMARK INTRA:                  -0.245
REMARK UNBOUND:                -0.387
REMARK  Name = 
REMARK  3 active torsions:
REMARK  status: ('A' for Active; 'I' for Inactive)
REMARK    1  A    between atoms: C_2  and  C_4
REMARK    2  A    between atoms: N_8  and  C_9
REMARK    3  A    between atoms: C_9  and  C_10
REMARK                            x       y       z     vdW  Elec       q    Type
REMARK                         _______ _______ _______ _____ _____    ______ ____
ROOT
ATOM      1  C   UNL     1      44.398   5.435  12.171  0.00  0.00    +0.000 A 
ATOM      2  C   UNL     1      45.279   6.484  12.410  0.00  0.00    +0.000 A 
ATOM      3  C   UNL     1      46.302   6.306  13.339  0.00  0.00    +0.000 A 
ATOM      4  C   UNL     1      46.411   5.102  14.034  0.00  0.00    +0.000 A 
ATOM      5  N   UNL     1      47.422   5.007  14.988  0.00  0.00    +0.000 N 
ATOM      6  N   UNL     1      45.550   4.087  13.828  0.00  0.00    +0.000 NA
ATOM      7  C   UNL     1      44.568   4.270  12.906  0.00  0.00    +0.000 A 
ATOM      8  H   UNL     1      48.335   5.095  14.553  0.00  0.00    +0.000 HD
ENDROOT
BRANCH   1  10
ATOM      9  N   UNL     1      42.225   6.310  11.529  0.00  0.00    +0.000 N 
ATOM     10  C   UNL     1      43.292   5.520  11.195  0.00  0.00    +0.000 C 
ATOM     11  O   UNL     1      43.339   4.941  10.120  0.00  0.00    +0.000 OA
ATOM     12  H   UNL     1      41.519   6.440  10.815  0.00  0.00    +0.000 HD
ATOM     13  H   UNL     1      42.251   6.979  12.285  0.00  0.00    +0.000 HD
ENDBRANCH   1  10
BRANCH   5  14
ATOM     14  C   UNL     1      47.349   3.899  15.923  0.00  0.00    +0.000 C 
BRANCH  14  15
ATOM     15  C   UNL     1      48.107   4.300  17.175  0.00  0.00    +0.000 A 
ATOM     16  C   UNL     1      49.450   3.951  17.362  0.00  0.00    +0.000 A 
ATOM     17  C   UNL     1      50.125   4.333  18.527  0.00  0.00    +0.000 A 
ATOM     18  C   UNL     1      49.463   5.065  19.514  0.00  0.00    +0.000 A 
ATOM     19  C   UNL     1      48.125   5.408  19.339  0.00  0.00    +0.000 A 
ATOM     20 CL   UNL     1      47.306   6.316  20.550  0.00  0.00    +0.000 Cl
ATOM     21  C   UNL     1      47.447   5.024  18.185  0.00  0.00    +0.000 A 
ENDBRANCH  14  15
ENDBRANCH   5  14
TORSDOF 3
ENDMDL
MODEL 9
REMARK VINA RESULT:    -5.781      4.449      6.474
REMARK INTER + INTRA:          -7.181
REMARK INTER:                  -6.831
REMARK INTRA:                  -0.350
REMARK UNBOUND:                -0.387
REMARK  Name = 
REMARK  3 active torsions:
REMARK  status: ('A' for Active; 'I' for Inactive)
REMARK    1  A    between atoms: C_2  and  C_4
REMARK    2  A    between atoms: N_8  and  C_9
REMARK    3  A    between atoms: C_9  and  C_10
REMARK                            x       y       z     vdW  Elec       q    Type
REMARK                         _______ _______ _______ _____ _____    ______ ____
ROOT
ATOM      1  C   UNL     1      50.929   2.472  17.428  0.00  0.00    +0.000 A 
ATOM      2  C   UNL     1      50.917   3.815  17.791  0.00  0.00    +0.000 A 
ATOM      3  C   UNL     1      49.824   4.600  17.428  0.00  0.00    +0.000 A 
ATOM      4  C   UNL     1      48.782   4.045  16.687  0.00  0.00    +0.000 A 
ATOM      5  N   UNL     1      47.746   4.897  16.310  0.00  0.00    +0.000 N 
ATOM      6  N   UNL     1      48.793   2.753  16.310  0.00  0.00    +0.000 NA
ATOM      7  C   UNL     1      49.857   1.995  16.687  0.00  0.00    +0.000 A 
ATOM      8  H   UNL     1      47.266   5.262  17.128  0.00  0.00    +0.000 HD
ENDROOT
BRANCH   1  10
ATOM      9  N   UNL     1      51.696   0.266  18.093  0.00  0.00    +0.000 N 
ATOM     10  C   UNL     1      52.032   1.554  17.779  0.00  0.00    +0.000 C 
ATOM     11  O   UNL     1      53.199   1.916  17.757  0.00  0.00    +0.000 OA
ATOM     12  H   UNL     1      52.463  -0.379  18.236  0.00  0.00    +0.000 HD
ATOM     13  H   UNL     1      50.787  -0.129  17.897  0.00  0.00    +0.000 HD
ENDBRANCH   1  10
BRANCH   5  14
ATOM     14  C   UNL     1      46.831   4.417  15.290  0.00  0.00    +0.000 C 
BRANCH  14  15
ATOM     15  C   UNL     1      47.001   5.297  14.066  0.00  0.00    +0.000 A 
ATOM     16  C   UNL     1      47.949   6.326  14.027  0.00  0.00    +0.000 A 
ATOM     17  C   UNL     1      48.083   7.123  12.885  0.00  0.00    +0.000 A 
ATOM     18  C   UNL     1      47.269   6.900  11.773  0.00  0.00    +0.000 A 
ATOM     19  C   UNL     1      46.319   5.884  11.806  0.00  0.00    +0.000 A 
ATOM     20 CL   UNL     1      45.318   5.598  10.436  0.00  0.00    +0.000 Cl
ATOM     21  C   UNL     1      46.176   5.092  12.943  0.00  0.00    +0.000 A 
ENDBRANCH  14  15
ENDBRANCH   5  14
TORSDOF 3
ENDMDL
