MODEL 1
REMARK VINA RESULT:    -8.011      0.000      0.000
REMARK INTER + INTRA:         -10.503
REMARK INTER:                  -9.884
REMARK INTRA:                  -0.619
REMARK UNBOUND:                -0.619
REMARK  Name = 
REMARK  4 active torsions:
REMARK  status: ('A' for Active; 'I' for Inactive)
REMARK    1  A    between atoms: C_2  and  C_3
REMARK    2  A    between atoms: N_7  and  C_8
REMARK    3  A    between atoms: C_8  and  C_9
REMARK    4  A    between atoms: C_13  and  C_14
REMARK                            x       y       z     vdW  Elec       q    Type
REMARK                         _______ _______ _______ _____ _____    ______ ____
ROOT
ATOM      1  C   UNL     1      44.582   5.806  11.515  0.00  0.00    +0.000 A 
ATOM      2  C   UNL     1      44.833   7.174  11.358  0.00  0.00    +0.000 A 
ATOM      3  C   UNL     1      45.799   7.809  12.135  0.00  0.00    +0.000 A 
ATOM      4  C   UNL     1      46.516   7.088  13.091  0.00  0.00    +0.000 A 
ATOM      5  C   UNL     1      46.286   5.718  13.294  0.00  0.00    +0.000 A 
ATOM      6  C   UNL     1      45.332   5.096  12.471  0.00  0.00    +0.000 A 
ENDROOT
BRANCH   5   7
ATOM      7  C   UNL     1      46.974   4.966  14.361  0.00  0.00    +0.000 A 
ATOM      8  C   UNL     1      47.575   5.598  15.459  0.00  0.00    +0.000 A 
ATOM      9  C   UNL     1      48.251   4.853  16.423  0.00  0.00    +0.000 A 
ATOM     10  C   UNL     1      48.303   3.479  16.276  0.00  0.00    +0.000 A 
ATOM     11  N   UNL     1      47.742   2.819  15.244  0.00  0.00    +0.000 NA
ATOM     12  C   UNL     1      47.102   3.574  14.318  0.00  0.00    +0.000 A 
ENDBRANCH   5   7
BRANCH   1  13
ATOM     13  C   UNL     1      43.518   5.044  10.761  0.00  0.00    +0.000 C 
BRANCH  13  18
ATOM     14  C   UNL     1      46.578   2.492   7.492  0.00  0.00    +0.000 A 
ATOM     15  C   UNL     1      46.380   3.855   7.654  0.00  0.00    +0.000 A 
ATOM     16  C   UNL     1      45.483   4.300   8.625  0.00  0.00    +0.000 A 
ATOM     17  C   UNL     1      44.795   3.376   9.407  0.00  0.00    +0.000 A 
ATOM     18  N   UNL     1      43.907   3.714  10.380  0.00  0.00    +0.000 N 
ATOM     19  N   UNL     1      44.977   2.051   9.243  0.00  0.00    +0.000 NA
ATOM     20  C   UNL     1      45.859   1.635   8.305  0.00  0.00    +0.000 A 
ATOM     21  H   UNL     1      43.422   2.924  10.791  0.00  0.00    +0.000 HD
BRANCH  14  23
ATOM     22  N   UNL     1      48.215   1.574   5.715  0.00  0.00    +0.000 NA
ATOM     23  C   UNL     1      47.481   1.982   6.513  0.00  0.00    +0.000 C 
ENDBRANCH  14  23
ENDBRANCH  13  18
ENDBRANCH   1  13
TORSDOF 4
ENDMDL
MODEL 2
REMARK VINA RESULT:    -7.794      2.057      4.016
REMARK INTER + INTRA:         -10.237
REMARK INTER:                  -9.608
REMARK INTRA:                  -0.628
REMARK UNBOUND:                -0.619
REMARK  Name = 
REMARK  4 active torsions:
REMARK  status: ('A' for Active; 'I' for Inactive)
REMARK    1  A    between atoms: C_2  and  C_3
REMARK    2  A    between atoms: N_7  and  C_8
REMARK    3  A    between atoms: C_8  and  C_9
REMARK    4  A    between atoms: C_13  and  C_14
REMARK                            x       y       z     vdW  Elec       q    Type
REMARK                         _______ _______ _______ _____ _____    ______ ____
ROOT
ATOM      1  C   UNL     1      44.605   5.194  11.797  0.00  0.00    +0.000 A 
ATOM      2  C   UNL     1      45.468   4.535  12.679  0.00  0.00    +0.000 A 
ATOM      3  C   UNL     1      46.412   5.252  13.413  0.00  0.00    +0.000 A 
ATOM      4  C   UNL     1      46.516   6.636  13.260  0.00  0.00    +0.000 A 
ATOM      5  C   UNL     1      45.681   7.335  12.374  0.00  0.00    +0.000 A 
ATOM      6  C   UNL     1      44.715   6.592  11.675  0.00  0.00    +0.000 A 
ENDROOT
BRANCH   5   7
ATOM      7  C   UNL     1      45.841   8.783  12.138  0.00  0.00    +0.000 A 
ATOM      8  C   UNL     1      47.096   9.409  12.125  0.00  0.00    +0.000 A 
ATOM      9  C   UNL     1      47.199  10.787  11.941  0.00  0.00    +0.000 A 
ATOM     10  C   UNL     1      46.038  11.515  11.761  0.00  0.00    +0.000 A 
ATOM     11  N   UNL     1      44.807  10.968  11.762  0.00  0.00    +0.000 NA
ATOM     12  C   UNL     1      44.741   9.627  11.955  0.00  0.00    +0.000 A 
ENDBRANCH   5   7
BRANCH   1  13
ATOM     13  C   UNL     1      43.591   4.498  10.919  0.00  0.00    +0.000 C 
BRANCH  13  18
ATOM     14  C   UNL     1      46.688   2.451   7.343  0.00  0.00    +0.000 A 
ATOM     15  C   UNL     1      46.427   3.779   7.647  0.00  0.00    +0.000 A 
ATOM     16  C   UNL     1      45.534   4.077   8.678  0.00  0.00    +0.000 A 
ATOM     17  C   UNL     1      44.914   3.044   9.376  0.00  0.00    +0.000 A 
ATOM     18  N   UNL     1      44.037   3.235  10.396  0.00  0.00    +0.000 N 
ATOM     19  N   UNL     1      45.157   1.754   9.074  0.00  0.00    +0.000 NA
ATOM     20  C   UNL     1      46.034   1.481   8.080  0.00  0.00    +0.000 A 
ATOM     21  H   UNL     1      43.602   2.384  10.736  0.00  0.00    +0.000 HD
BRANCH  14  23
ATOM     22  N   UNL     1      48.322   1.790   5.453  0.00  0.00    +0.000 NA
ATOM     23  C   UNL     1      47.589   2.090   6.298  0.00  0.00    +0.000 C 
ENDBRANCH  14  23
ENDBRANCH  13  18
ENDBRANCH   1  13
TORSDOF 4
ENDMDL
MODEL 3
REMARK VINA RESULT:    -7.213      2.834      6.842
REMARK INTER + INTRA:          -9.519
REMARK INTER:                  -8.796
REMARK INTRA:                  -0.723
REMARK UNBOUND:                -0.619
REMARK  Name = 
REMARK  4 active torsions:
REMARK  status: ('A' for Active; 'I' for Inactive)
REMARK    1  A    between atoms: C_2  and  C_3
REMARK    2  A    between atoms: N_7  and  C_8
REMARK    3  A    between atoms: C_8  and  C_9
REMARK    4  A    between atoms: C_13  and  C_14
REMARK                            x       y       z     vdW  Elec       q    Type
REMARK                         _______ _______ _______ _____ _____    ______ ____
ROOT
ATOM      1  C   UNL     1      44.439   5.005  11.817  0.00  0.00    +0.000 A 
ATOM      2  C   UNL     1      43.523   4.098  12.362  0.00  0.00    +0.000 A 
ATOM      3  C   UNL     1      43.320   2.855  11.766  0.00  0.00    +0.000 A 
ATOM      4  C   UNL     1      44.016   2.510  10.606  0.00  0.00    +0.000 A 
ATOM      5  C   UNL     1      44.932   3.396  10.016  0.00  0.00    +0.000 A 
ATOM      6  C   UNL     1      45.144   4.628  10.660  0.00  0.00    +0.000 A 
ENDROOT
BRANCH   5   7
ATOM      7  C   UNL     1      45.607   3.079   8.743  0.00  0.00    +0.000 A 
ATOM      8  C   UNL     1      46.020   1.780   8.414  0.00  0.00    +0.000 A 
ATOM      9  C   UNL     1      46.693   1.531   7.220  0.00  0.00    +0.000 A 
ATOM     10  C   UNL     1      46.932   2.591   6.366  0.00  0.00    +0.000 A 
ATOM     11  N   UNL     1      46.557   3.859   6.628  0.00  0.00    +0.000 NA
ATOM     12  C   UNL     1      45.915   4.069   7.804  0.00  0.00    +0.000 A 
ENDBRANCH   5   7
BRANCH   1  13
ATOM     13  C   UNL     1      44.685   6.395  12.358  0.00  0.00    +0.000 C 
BRANCH  13  18
ATOM     14  C   UNL     1      49.632   7.805  12.679  0.00  0.00    +0.000 A 
ATOM     15  C   UNL     1      48.763   7.827  11.598  0.00  0.00    +0.000 A 
ATOM     16  C   UNL     1      47.451   7.385  11.772  0.00  0.00    +0.000 A 
ATOM     17  C   UNL     1      47.037   6.922  13.018  0.00  0.00    +0.000 A 
ATOM     18  N   UNL     1      45.780   6.477  13.285  0.00  0.00    +0.000 N 
ATOM     19  N   UNL     1      47.883   6.888  14.066  0.00  0.00    +0.000 NA
ATOM     20  C   UNL     1      49.149   7.331  13.884  0.00  0.00    +0.000 A 
ATOM     21  H   UNL     1      45.667   6.085  14.213  0.00  0.00    +0.000 HD
BRANCH  14  23
ATOM     22  N   UNL     1      52.084   8.592  12.453  0.00  0.00    +0.000 NA
ATOM     23  C   UNL     1      50.984   8.242  12.556  0.00  0.00    +0.000 C 
ENDBRANCH  14  23
ENDBRANCH  13  18
ENDBRANCH   1  13
TORSDOF 4
ENDMDL
MODEL 4
REMARK VINA RESULT:    -6.717      1.852      7.692
REMARK INTER + INTRA:          -8.907
REMARK INTER:                  -8.467
REMARK INTRA:                  -0.440
REMARK UNBOUND:                -0.619
REMARK  Name = 
REMARK  4 active torsions:
REMARK  status: ('A' for Active; 'I' for Inactive)
REMARK    1  A    between atoms: C_2  and  C_3
REMARK    2  A    between atoms: N_7  and  C_8
REMARK    3  A    between atoms: C_8  and  C_9
REMARK    4  A    between atoms: C_13  and  C_14
REMARK                            x       y       z     vdW  Elec       q    Type
REMARK                         _______ _______ _______ _____ _____    ______ ____
ROOT
ATOM      1  C   UNL     1      45.040   5.145  12.767  0.00  0.00    +0.000 A 
ATOM      2  C   UNL     1      43.660   5.370  12.840  0.00  0.00    +0.000 A 
ATOM      3  C   UNL     1      42.823   4.971  11.800  0.00  0.00    +0.000 A 
ATOM      4  C   UNL     1      43.356   4.357  10.666  0.00  0.00    +0.000 A 
ATOM      5  C   UNL     1      44.736   4.127  10.543  0.00  0.00    +0.000 A 
ATOM      6  C   UNL     1      45.552   4.506  11.623  0.00  0.00    +0.000 A 
ENDROOT
BRANCH   5   7
ATOM      7  C   UNL     1      45.321   3.561   9.312  0.00  0.00    +0.000 A 
ATOM      8  C   UNL     1      45.490   2.181   9.126  0.00  0.00    +0.000 A 
ATOM      9  C   UNL     1      46.086   1.690   7.966  0.00  0.00    +0.000 A 
ATOM     10  C   UNL     1      46.494   2.593   7.003  0.00  0.00    +0.000 A 
ATOM     11  N   UNL     1      46.355   3.928   7.126  0.00  0.00    +0.000 NA
ATOM     12  C   UNL     1      45.782   4.373   8.272  0.00  0.00    +0.000 A 
ENDBRANCH   5   7
BRANCH   1  13
ATOM     13  C   UNL     1      46.032   5.592  13.816  0.00  0.00    +0.000 C 
BRANCH  13  18
ATOM     14  C   UNL     1      49.517   4.587  17.477  0.00  0.00    +0.000 A 
ATOM     15  C   UNL     1      49.242   5.767  16.803  0.00  0.00    +0.000 A 
ATOM     16  C   UNL     1      48.233   5.780  15.840  0.00  0.00    +0.000 A 
ATOM     17  C   UNL     1      47.525   4.613  15.564  0.00  0.00    +0.000 A 
ATOM     18  N   UNL     1      46.523   4.529  14.649  0.00  0.00    +0.000 N 
ATOM     19  N   UNL     1      47.798   3.462  16.210  0.00  0.00    +0.000 NA
ATOM     20  C   UNL     1      48.773   3.469  17.150  0.00  0.00    +0.000 A 
ATOM     21  H   UNL     1      46.174   3.589  14.500  0.00  0.00    +0.000 HD
BRANCH  14  23
ATOM     22  N   UNL     1      51.366   4.461  19.279  0.00  0.00    +0.000 NA
ATOM     23  C   UNL     1      50.540   4.516  18.469  0.00  0.00    +0.000 C 
ENDBRANCH  14  23
ENDBRANCH  13  18
ENDBRANCH   1  13
TORSDOF 4
ENDMDL
MODEL 5
REMARK VINA RESULT:    -6.274      3.070      8.175
REMARK INTER + INTRA:          -8.361
REMARK INTER:                  -7.710
REMARK INTRA:                  -0.651
REMARK UNBOUND:                -0.619
REMARK  Name = 
REMARK  4 active torsions:
REMARK  status: ('A' for Active; 'I' for Inactive)
REMARK    1  A    between atoms: C_2  and  C_3
REMARK    2  A    between atoms: N_7  and  C_8
REMARK    3  A    between atoms: C_8  and  C_9
REMARK    4  A    between atoms: C_13  and  C_14
REMARK                            x       y       z     vdW  Elec       q    Type
REMARK                         _______ _______ _______ _____ _____    ______ ____
ROOT
ATOM      1  C   UNL     1      47.637   4.694  15.904  0.00  0.00    +0.000 A 
ATOM      2  C   UNL     1      48.458   5.826  15.839  0.00  0.00    +0.000 A 
ATOM      3  C   UNL     1      48.431   6.654  14.719  0.00  0.00    +0.000 A 
ATOM      4  C   UNL     1      47.597   6.351  13.642  0.00  0.00    +0.000 A 
ATOM      5  C   UNL     1      46.770   5.217  13.658  0.00  0.00    +0.000 A 
ATOM      6  C   UNL     1      46.790   4.420  14.816  0.00  0.00    +0.000 A 
ENDROOT
BRANCH   5   7
ATOM      7  C   UNL     1      45.950   4.838  12.491  0.00  0.00    +0.000 A 
ATOM      8  C   UNL     1      45.306   3.596  12.395  0.00  0.00    +0.000 A 
ATOM      9  C   UNL     1      44.576   3.262  11.256  0.00  0.00    +0.000 A 
ATOM     10  C   UNL     1      44.494   4.187  10.232  0.00  0.00    +0.000 A 
ATOM     11  N   UNL     1      45.089   5.395  10.270  0.00  0.00    +0.000 NA
ATOM     12  C   UNL     1      45.801   5.684  11.387  0.00  0.00    +0.000 A 
ENDBRANCH   5   7
BRANCH   1  13
ATOM     13  C   UNL     1      47.638   3.707  17.050  0.00  0.00    +0.000 C 
BRANCH  13  18
ATOM     14  C   UNL     1      52.519   2.326  17.960  0.00  0.00    +0.000 A 
ATOM     15  C   UNL     1      51.858   3.513  18.239  0.00  0.00    +0.000 A 
ATOM     16  C   UNL     1      50.513   3.640  17.887  0.00  0.00    +0.000 A 
ATOM     17  C   UNL     1      49.861   2.584  17.256  0.00  0.00    +0.000 A 
ATOM     18  N   UNL     1      48.554   2.613  16.881  0.00  0.00    +0.000 N 
ATOM     19  N   UNL     1      50.504   1.435  16.973  0.00  0.00    +0.000 NA
ATOM     20  C   UNL     1      51.805   1.322  17.332  0.00  0.00    +0.000 A 
ATOM     21  H   UNL     1      48.257   1.803  16.349  0.00  0.00    +0.000 HD
BRANCH  14  23
ATOM     22  N   UNL     1      55.009   1.999  18.573  0.00  0.00    +0.000 NA
ATOM     23  C   UNL     1      53.893   2.142  18.296  0.00  0.00    +0.000 C 
ENDBRANCH  14  23
ENDBRANCH  13  18
ENDBRANCH   1  13
TORSDOF 4
ENDMDL
MODEL 6
REMARK VINA RESULT:    -6.265      3.548      6.854
REMARK INTER + INTRA:          -8.349
REMARK INTER:                  -7.731
REMARK INTRA:                  -0.618
REMARK UNBOUND:                -0.619
REMARK  Name = 
REMARK  4 active torsions:
REMARK  status: ('A' for Active; 'I' for Inactive)
REMARK    1  A    between atoms: C_2  and  C_3
REMARK    2  A    between atoms: N_7  and  C_8
REMARK    3  A    between atoms: C_8  and  C_9
REMARK    4  A    between atoms: C_13  and  C_14
REMARK                            x       y       z     vdW  Elec       q    Type
REMARK                         _______ _______ _______ _____ _____    ______ ____
ROOT
ATOM      1  C   UNL     1      44.889   6.251  11.947  0.00  0.00    +0.000 A 
ATOM      2  C   UNL     1      43.523   6.079  12.197  0.00  0.00    +0.000 A 
ATOM      3  C   UNL     1      42.795   5.112  11.507  0.00  0.00    +0.000 A 
ATOM      4  C   UNL     1      43.420   4.316  10.546  0.00  0.00    +0.000 A 
ATOM      5  C   UNL     1      44.784   4.465  10.251  0.00  0.00    +0.000 A 
ATOM      6  C   UNL     1      45.502   5.423  10.988  0.00  0.00    +0.000 A 
ENDROOT
BRANCH   5   7
ATOM      7  C   UNL     1      45.435   3.692   9.177  0.00  0.00    +0.000 A 
ATOM      8  C   UNL     1      46.028   4.303   8.062  0.00  0.00    +0.000 A 
ATOM      9  C   UNL     1      46.594   3.533   7.049  0.00  0.00    +0.000 A 
ATOM     10  C   UNL     1      46.567   2.157   7.175  0.00  0.00    +0.000 A 
ATOM     11  N   UNL     1      46.015   1.515   8.223  0.00  0.00    +0.000 NA
ATOM     12  C   UNL     1      45.462   2.294   9.186  0.00  0.00    +0.000 A 
ENDBRANCH   5   7
BRANCH   1  13
ATOM     13  C   UNL     1      45.748   7.309  12.601  0.00  0.00    +0.000 C 
BRANCH  13  18
ATOM     14  C   UNL     1      50.349   9.367  11.526  0.00  0.00    +0.000 A 
ATOM     15  C   UNL     1      49.078   9.913  11.422  0.00  0.00    +0.000 A 
ATOM     16  C   UNL     1      47.975   9.137  11.781  0.00  0.00    +0.000 A 
ATOM     17  C   UNL     1      48.163   7.832  12.228  0.00  0.00    +0.000 A 
ATOM     18  N   UNL     1      47.153   7.004  12.605  0.00  0.00    +0.000 N 
ATOM     19  N   UNL     1      49.396   7.296  12.318  0.00  0.00    +0.000 NA
ATOM     20  C   UNL     1      50.457   8.065  11.977  0.00  0.00    +0.000 A 
ATOM     21  H   UNL     1      47.448   6.057  12.813  0.00  0.00    +0.000 HD
BRANCH  14  23
ATOM     22  N   UNL     1      52.459  10.716  10.884  0.00  0.00    +0.000 NA
ATOM     23  C   UNL     1      51.511  10.113  11.169  0.00  0.00    +0.000 C 
ENDBRANCH  14  23
ENDBRANCH  13  18
ENDBRANCH   1  13
TORSDOF 4
ENDMDL
MODEL 7
REMARK VINA RESULT:    -6.079      2.418      8.161
REMARK INTER + INTRA:          -8.119
REMARK INTER:                  -7.677
REMARK INTRA:                  -0.443
REMARK UNBOUND:                -0.619
REMARK  Name = 
REMARK  4 active torsions:
REMARK  status: ('A' for Active; 'I' for Inactive)
REMARK    1  A    between atoms: C_2  and  C_3
REMARK    2  A    between atoms: N_7  and  C_8
REMARK    3  A    between atoms: C_8  and  C_9
REMARK    4  A    between atoms: C_13  and  C_14
REMARK                            x       y       z     vdW  Elec       q    Type
REMARK                         _______ _______ _______ _____ _____    ______ ____
ROOT
ATOM      1  C   UNL     1      46.997   6.944  13.226  0.00  0.00    +0.000 A 
ATOM      2  C   UNL     1      46.330   8.170  13.127  0.00  0.00    +0.000 A 
ATOM      3  C   UNL     1      45.289   8.337  12.215  0.00  0.00    +0.000 A 
ATOM      4  C   UNL     1      44.913   7.285  11.379  0.00  0.00    +0.000 A 
ATOM      5  C   UNL     1      45.566   6.042  11.433  0.00  0.00    +0.000 A 
ATOM      6  C   UNL     1      46.587   5.891  12.387  0.00  0.00    +0.000 A 
ENDROOT
BRANCH   5   7
ATOM      7  C   UNL     1      45.237   4.952  10.495  0.00  0.00    +0.000 A 
ATOM      8  C   UNL     1      45.642   4.967   9.153  0.00  0.00    +0.000 A 
ATOM      9  C   UNL     1      45.274   3.937   8.289  0.00  0.00    +0.000 A 
ATOM     10  C   UNL     1      44.512   2.899   8.791  0.00  0.00    +0.000 A 
ATOM     11  N   UNL     1      44.097   2.830  10.071  0.00  0.00    +0.000 NA
ATOM     12  C   UNL     1      44.462   3.854  10.882  0.00  0.00    +0.000 A 
ENDBRANCH   5   7
BRANCH   1  13
ATOM     13  C   UNL     1      48.171   6.685  14.141  0.00  0.00    +0.000 C 
BRANCH  13  18
ATOM     14  C   UNL     1      49.991   5.325  18.768  0.00  0.00    +0.000 A 
ATOM     15  C   UNL     1      50.534   6.159  17.802  0.00  0.00    +0.000 A 
ATOM     16  C   UNL     1      49.833   6.369  16.614  0.00  0.00    +0.000 A 
ATOM     17  C   UNL     1      48.610   5.736  16.411  0.00  0.00    +0.000 A 
ATOM     18  N   UNL     1      47.853   5.884  15.291  0.00  0.00    +0.000 N 
ATOM     19  N   UNL     1      48.086   4.916  17.343  0.00  0.00    +0.000 NA
ATOM     20  C   UNL     1      48.772   4.731  18.495  0.00  0.00    +0.000 A 
ATOM     21  H   UNL     1      47.038   5.282  15.259  0.00  0.00    +0.000 HD
BRANCH  14  23
ATOM     22  N   UNL     1      51.215   4.860  20.997  0.00  0.00    +0.000 NA
ATOM     23  C   UNL     1      50.665   5.072  19.999  0.00  0.00    +0.000 C 
ENDBRANCH  14  23
ENDBRANCH  13  18
ENDBRANCH   1  13
TORSDOF 4
ENDMDL
MODEL 8
REMARK VINA RESULT:    -5.822      4.508      6.937
REMARK INTER + INTRA:          -7.802
REMARK INTER:                  -7.112
REMARK INTRA:                  -0.691
REMARK UNBOUND:                -0.619
REMARK  Name = 
REMARK  4 active torsions:
REMARK  status: ('A' for Active; 'I' for Inactive)
REMARK    1  A    between atoms: C_2  and  C_3
REMARK    2  A    between atoms: N_7  and  C_8
REMARK    3  A    between atoms: C_8  and  C_9
REMARK    4  A    between atoms: C_13  and  C_14
REMARK                            x       y       z     vdW  Elec       q    Type
REMARK                         _______ _______ _______ _____ _____    ______ ____
ROOT
ATOM      1  C   UNL     1      47.294   7.368  12.796  0.00  0.00    +0.000 A 
ATOM      2  C   UNL     1      46.445   8.479  12.856  0.00  0.00    +0.000 A 
ATOM      3  C   UNL     1      45.223   8.471  12.186  0.00  0.00    +0.000 A 
ATOM      4  C   UNL     1      44.842   7.360  11.433  0.00  0.00    +0.000 A 
ATOM      5  C   UNL     1      45.671   6.231  11.331  0.00  0.00    +0.000 A 
ATOM      6  C   UNL     1      46.880   6.251  12.047  0.00  0.00    +0.000 A 
ENDROOT
BRANCH   5   7
ATOM      7  C   UNL     1      45.320   5.087  10.467  0.00  0.00    +0.000 A 
ATOM      8  C   UNL     1      45.671   5.034   9.110  0.00  0.00    +0.000 A 
ATOM      9  C   UNL     1      45.283   3.954   8.320  0.00  0.00    +0.000 A 
ATOM     10  C   UNL     1      44.556   2.936   8.907  0.00  0.00    +0.000 A 
ATOM     11  N   UNL     1      44.193   2.932  10.205  0.00  0.00    +0.000 NA
ATOM     12  C   UNL     1      44.576   4.003  10.943  0.00  0.00    +0.000 A 
ENDBRANCH   5   7
BRANCH   1  13
ATOM     13  C   UNL     1      48.660   7.305  13.440  0.00  0.00    +0.000 C 
BRANCH  13  18
ATOM     14  C   UNL     1      51.895   9.713  10.232  0.00  0.00    +0.000 A 
ATOM     15  C   UNL     1      50.897  10.225  11.047  0.00  0.00    +0.000 A 
ATOM     16  C   UNL     1      50.148   9.350  11.834  0.00  0.00    +0.000 A 
ATOM     17  C   UNL     1      50.405   7.982  11.784  0.00  0.00    +0.000 A 
ATOM     18  N   UNL     1      49.733   7.055  12.517  0.00  0.00    +0.000 N 
ATOM     19  N   UNL     1      51.365   7.482  10.984  0.00  0.00    +0.000 NA
ATOM     20  C   UNL     1      52.092   8.344  10.234  0.00  0.00    +0.000 A 
ATOM     21  H   UNL     1      49.974   6.096  12.295  0.00  0.00    +0.000 HD
BRANCH  14  23
ATOM     22  N   UNL     1      53.337  11.253   8.738  0.00  0.00    +0.000 NA
ATOM     23  C   UNL     1      52.689  10.561   9.404  0.00  0.00    +0.000 C 
ENDBRANCH  14  23
ENDBRANCH  13  18
ENDBRANCH   1  13
TORSDOF 4
ENDMDL
MODEL 9
REMARK VINA RESULT:    -5.750      3.195      7.883
REMARK INTER + INTRA:          -7.715
REMARK INTER:                  -7.133
REMARK INTRA:                  -0.582
REMARK UNBOUND:                -0.619
REMARK  Name = 
REMARK  4 active torsions:
REMARK  status: ('A' for Active; 'I' for Inactive)
REMARK    1  A    between atoms: C_2  and  C_3
REMARK    2  A    between atoms: N_7  and  C_8
REMARK    3  A    between atoms: C_8  and  C_9
REMARK    4  A    between atoms: C_13  and  C_14
REMARK                            x       y       z     vdW  Elec       q    Type
REMARK                         _______ _______ _______ _____ _____    ______ ____
ROOT
ATOM      1  C   UNL     1      48.265   7.186  14.070  0.00  0.00    +0.000 A 
ATOM      2  C   UNL     1      48.902   7.914  13.059  0.00  0.00    +0.000 A 
ATOM      3  C   UNL     1      48.470   7.816  11.738  0.00  0.00    +0.000 A 
ATOM      4  C   UNL     1      47.406   6.975  11.408  0.00  0.00    +0.000 A 
ATOM      5  C   UNL     1      46.748   6.214  12.388  0.00  0.00    +0.000 A 
ATOM      6  C   UNL     1      47.181   6.361  13.717  0.00  0.00    +0.000 A 
ENDROOT
BRANCH   5   7
ATOM      7  C   UNL     1      45.682   5.256  12.040  0.00  0.00    +0.000 A 
ATOM      8  C   UNL     1      44.808   5.462  10.962  0.00  0.00    +0.000 A 
ATOM      9  C   UNL     1      43.788   4.553  10.693  0.00  0.00    +0.000 A 
ATOM     10  C   UNL     1      43.666   3.441  11.505  0.00  0.00    +0.000 A 
ATOM     11  N   UNL     1      44.477   3.190  12.551  0.00  0.00    +0.000 NA
ATOM     12  C   UNL     1      45.452   4.100  12.793  0.00  0.00    +0.000 A 
ENDBRANCH   5   7
BRANCH   1  13
ATOM     13  C   UNL     1      48.697   7.184  15.519  0.00  0.00    +0.000 C 
BRANCH  13  18
ATOM     14  C   UNL     1      51.715   3.811  17.985  0.00  0.00    +0.000 A 
ATOM     15  C   UNL     1      52.010   5.062  17.463  0.00  0.00    +0.000 A 
ATOM     16  C   UNL     1      51.001   5.790  16.832  0.00  0.00    +0.000 A 
ATOM     17  C   UNL     1      49.722   5.250  16.726  0.00  0.00    +0.000 A 
ATOM     18  N   UNL     1      48.675   5.885  16.135  0.00  0.00    +0.000 N 
ATOM     19  N   UNL     1      49.436   4.030  17.221  0.00  0.00    +0.000 NA
ATOM     20  C   UNL     1      50.423   3.341  17.841  0.00  0.00    +0.000 A 
ATOM     21  H   UNL     1      47.837   5.320  16.055  0.00  0.00    +0.000 HD
BRANCH  14  23
ATOM     22  N   UNL     1      53.521   2.385  19.163  0.00  0.00    +0.000 NA
ATOM     23  C   UNL     1      52.709   3.023  18.638  0.00  0.00    +0.000 C 
ENDBRANCH  14  23
ENDBRANCH  13  18
ENDBRANCH   1  13
TORSDOF 4
ENDMDL
