MODEL 1
REMARK VINA RESULT:    -7.884      0.000      0.000
REMARK INTER + INTRA:         -10.746
REMARK INTER:                 -10.189
REMARK INTRA:                  -0.557
REMARK UNBOUND:                -0.557
REMARK  Name = 
REMARK  6 active torsions:
REMARK  status: ('A' for Active; 'I' for Inactive)
REMARK    1  A    between atoms: N_1  and  C_2
REMARK    2  A    between atoms: C_2  and  C_3
REMARK    3  A    between atoms: C_3  and  N_4
REMARK    4  A    between atoms: C_3  and  C_5
REMARK    5  A    between atoms: C_8  and  C_9
REMARK    6  A    between atoms: C_9  and  N_10
REMARK                            x       y       z     vdW  Elec       q    Type
REMARK                         _______ _______ _______ _____ _____    ______ ____
ROOT
ATOM      1  C   UNL     1      46.078   2.222   7.862  0.00  0.00    +0.000 A 
ATOM      2  C   UNL     1      45.278   1.707   8.887  0.00  0.00    +0.000 A 
ATOM      3  C   UNL     1      44.481   2.556   9.653  0.00  0.00    +0.000 A 
ATOM      4  C   UNL     1      44.510   3.923   9.396  0.00  0.00    +0.000 A 
ATOM      5  N   UNL     1      45.275   4.452   8.407  0.00  0.00    +0.000 NA
ATOM      6  C   UNL     1      46.031   3.600   7.675  0.00  0.00    +0.000 A 
ENDROOT
BRANCH   1   7
ATOM      7  C   UNL     1      46.960   1.297   7.058  0.00  0.00    +0.000 C 
BRANCH   7   8
ATOM      8  N   UNL     1      47.167   0.022   7.767  0.00  0.00    +0.000 NA
ATOM      9  H   UNL     1      47.423  -0.692   7.085  0.00  0.00    +0.000 HD
ATOM     10  H   UNL     1      46.241  -0.272   8.094  0.00  0.00    +0.000 HD
ENDBRANCH   7   8
BRANCH   7  11
ATOM     11  C   UNL     1      48.328   1.895   6.614  0.00  0.00    +0.000 C 
BRANCH  11  12
ATOM     12  N   UNL     1      48.359   2.175   5.169  0.00  0.00    +0.000 NA
ATOM     13  H   UNL     1      48.964   1.491   4.713  0.00  0.00    +0.000 HD
ATOM     14  H   UNL     1      48.804   3.080   5.016  0.00  0.00    +0.000 HD
ENDBRANCH  11  12
ENDBRANCH   7  11
ENDBRANCH   1   7
BRANCH   4  15
ATOM     15  C   UNL     1      43.759   4.883  10.281  0.00  0.00    +0.000 C 
BRANCH  15  16
ATOM     16  N   UNL     1      44.339   5.009  11.615  0.00  0.00    +0.000 N 
ATOM     17  C   UNL     1      43.861   4.358  12.728  0.00  0.00    +0.000 A 
ATOM     18  C   UNL     1      44.771   4.527  13.745  0.00  0.00    +0.000 A 
ATOM     19  C   UNL     1      45.847   5.307  13.241  0.00  0.00    +0.000 A 
ATOM     20  C   UNL     1      47.059   5.763  13.793  0.00  0.00    +0.000 A 
ATOM     21  C   UNL     1      47.915   6.522  13.000  0.00  0.00    +0.000 A 
ATOM     22  F   UNL     1      49.078   6.948  13.515  0.00  0.00    +0.000 F 
ATOM     23  C   UNL     1      47.597   6.850  11.689  0.00  0.00    +0.000 A 
ATOM     24  C   UNL     1      46.400   6.409  11.119  0.00  0.00    +0.000 A 
ATOM     25  C   UNL     1      45.544   5.622  11.911  0.00  0.00    +0.000 A 
ENDBRANCH  15  16
ENDBRANCH   4  15
TORSDOF 6
ENDMDL
MODEL 2
REMARK VINA RESULT:    -7.630      1.522      1.667
REMARK INTER + INTRA:         -10.418
REMARK INTER:                  -9.993
REMARK INTRA:                  -0.425
REMARK UNBOUND:                -0.557
REMARK  Name = 
REMARK  6 active torsions:
REMARK  status: ('A' for Active; 'I' for Inactive)
REMARK    1  A    between atoms: N_1  and  C_2
REMARK    2  A    between atoms: C_2  and  C_3
REMARK    3  A    between atoms: C_3  and  N_4
REMARK    4  A    between atoms: C_3  and  C_5
REMARK    5  A    between atoms: C_8  and  C_9
REMARK    6  A    between atoms: C_9  and  N_10
REMARK                            x       y       z     vdW  Elec       q    Type
REMARK                         _______ _______ _______ _____ _____    ______ ____
ROOT
ATOM      1  C   UNL     1      46.001   2.316   7.969  0.00  0.00    +0.000 A 
ATOM      2  C   UNL     1      45.133   1.772   8.921  0.00  0.00    +0.000 A 
ATOM      3  C   UNL     1      44.374   2.606   9.741  0.00  0.00    +0.000 A 
ATOM      4  C   UNL     1      44.510   3.985   9.610  0.00  0.00    +0.000 A 
ATOM      5  N   UNL     1      45.343   4.541   8.695  0.00  0.00    +0.000 NA
ATOM      6  C   UNL     1      46.059   3.704   7.907  0.00  0.00    +0.000 A 
ENDROOT
BRANCH   1   7
ATOM      7  C   UNL     1      46.840   1.403   7.107  0.00  0.00    +0.000 C 
BRANCH   7   8
ATOM      8  N   UNL     1      46.975   0.074   7.727  0.00  0.00    +0.000 NA
ATOM      9  H   UNL     1      47.655  -0.467   7.193  0.00  0.00    +0.000 HD
ATOM     10  H   UNL     1      46.087  -0.410   7.554  0.00  0.00    +0.000 HD
ENDBRANCH   7   8
BRANCH   7  11
ATOM     11  C   UNL     1      48.241   1.957   6.711  0.00  0.00    +0.000 C 
BRANCH  11  12
ATOM     12  N   UNL     1      48.399   2.048   5.250  0.00  0.00    +0.000 NA
ATOM     13  H   UNL     1      47.743   2.741   4.889  0.00  0.00    +0.000 HD
ATOM     14  H   UNL     1      48.120   1.160   4.831  0.00  0.00    +0.000 HD
ENDBRANCH  11  12
ENDBRANCH   7  11
ENDBRANCH   1   7
BRANCH   4  15
ATOM     15  C   UNL     1      43.802   4.916  10.560  0.00  0.00    +0.000 C 
BRANCH  15  16
ATOM     16  N   UNL     1      44.660   5.401  11.636  0.00  0.00    +0.000 N 
ATOM     17  C   UNL     1      45.378   4.585  12.478  0.00  0.00    +0.000 A 
ATOM     18  C   UNL     1      46.236   5.374  13.208  0.00  0.00    +0.000 A 
ATOM     19  C   UNL     1      46.042   6.720  12.802  0.00  0.00    +0.000 A 
ATOM     20  C   UNL     1      46.645   7.941  13.160  0.00  0.00    +0.000 A 
ATOM     21  C   UNL     1      46.208   9.113  12.546  0.00  0.00    +0.000 A 
ATOM     22  F   UNL     1      46.789  10.277  12.873  0.00  0.00    +0.000 F 
ATOM     23  C   UNL     1      45.189   9.107  11.605  0.00  0.00    +0.000 A 
ATOM     24  C   UNL     1      44.575   7.908  11.232  0.00  0.00    +0.000 A 
ATOM     25  C   UNL     1      45.029   6.720  11.834  0.00  0.00    +0.000 A 
ENDBRANCH  15  16
ENDBRANCH   4  15
TORSDOF 6
ENDMDL
MODEL 3
REMARK VINA RESULT:    -7.117      1.376      2.012
REMARK INTER + INTRA:          -9.754
REMARK INTER:                  -9.375
REMARK INTRA:                  -0.379
REMARK UNBOUND:                -0.557
REMARK  Name = 
REMARK  6 active torsions:
REMARK  status: ('A' for Active; 'I' for Inactive)
REMARK    1  A    between atoms: N_1  and  C_2
REMARK    2  A    between atoms: C_2  and  C_3
REMARK    3  A    between atoms: C_3  and  N_4
REMARK    4  A    between atoms: C_3  and  C_5
REMARK    5  A    between atoms: C_8  and  C_9
REMARK    6  A    between atoms: C_9  and  N_10
REMARK                            x       y       z     vdW  Elec       q    Type
REMARK                         _______ _______ _______ _____ _____    ______ ____
ROOT
ATOM      1  C   UNL     1      45.971   2.596   8.224  0.00  0.00    +0.000 A 
ATOM      2  C   UNL     1      46.100   3.986   8.130  0.00  0.00    +0.000 A 
ATOM      3  C   UNL     1      45.435   4.818   9.028  0.00  0.00    +0.000 A 
ATOM      4  C   UNL     1      44.625   4.246  10.005  0.00  0.00    +0.000 A 
ATOM      5  N   UNL     1      44.481   2.901  10.121  0.00  0.00    +0.000 NA
ATOM      6  C   UNL     1      45.148   2.119   9.238  0.00  0.00    +0.000 A 
ENDROOT
BRANCH   1   7
ATOM      7  C   UNL     1      46.673   1.706   7.226  0.00  0.00    +0.000 C 
BRANCH   7   8
ATOM      8  N   UNL     1      46.776   0.327   7.735  0.00  0.00    +0.000 NA
ATOM      9  H   UNL     1      47.129  -0.271   6.988  0.00  0.00    +0.000 HD
ATOM     10  H   UNL     1      45.812   0.004   7.872  0.00  0.00    +0.000 HD
ENDBRANCH   7   8
BRANCH   7  11
ATOM     11  C   UNL     1      48.067   2.207   6.746  0.00  0.00    +0.000 C 
BRANCH  11  12
ATOM     12  N   UNL     1      48.374   1.744   5.382  0.00  0.00    +0.000 NA
ATOM     13  H   UNL     1      49.150   1.083   5.425  0.00  0.00    +0.000 HD
ATOM     14  H   UNL     1      48.716   2.533   4.833  0.00  0.00    +0.000 HD
ENDBRANCH  11  12
ENDBRANCH   7  11
ENDBRANCH   1   7
BRANCH   4  15
ATOM     15  C   UNL     1      43.794   5.113  10.913  0.00  0.00    +0.000 C 
BRANCH  15  16
ATOM     16  N   UNL     1      44.472   6.343  11.312  0.00  0.00    +0.000 N 
ATOM     17  C   UNL     1      43.975   7.605  11.089  0.00  0.00    +0.000 A 
ATOM     18  C   UNL     1      44.752   8.500  11.787  0.00  0.00    +0.000 A 
ATOM     19  C   UNL     1      45.761   7.764  12.463  0.00  0.00    +0.000 A 
ATOM     20  C   UNL     1      46.802   8.122  13.341  0.00  0.00    +0.000 A 
ATOM     21  C   UNL     1      47.631   7.122  13.844  0.00  0.00    +0.000 A 
ATOM     22  F   UNL     1      48.616   7.455  14.691  0.00  0.00    +0.000 F 
ATOM     23  C   UNL     1      47.465   5.790  13.491  0.00  0.00    +0.000 A 
ATOM     24  C   UNL     1      46.438   5.410  12.622  0.00  0.00    +0.000 A 
ATOM     25  C   UNL     1      45.585   6.415  12.130  0.00  0.00    +0.000 A 
ENDBRANCH  15  16
ENDBRANCH   4  15
TORSDOF 6
ENDMDL
MODEL 4
REMARK VINA RESULT:    -6.562      3.314      6.768
REMARK INTER + INTRA:          -9.037
REMARK INTER:                  -8.601
REMARK INTRA:                  -0.436
REMARK UNBOUND:                -0.557
REMARK  Name = 
REMARK  6 active torsions:
REMARK  status: ('A' for Active; 'I' for Inactive)
REMARK    1  A    between atoms: N_1  and  C_2
REMARK    2  A    between atoms: C_2  and  C_3
REMARK    3  A    between atoms: C_3  and  N_4
REMARK    4  A    between atoms: C_3  and  C_5
REMARK    5  A    between atoms: C_8  and  C_9
REMARK    6  A    between atoms: C_9  and  N_10
REMARK                            x       y       z     vdW  Elec       q    Type
REMARK                         _______ _______ _______ _____ _____    ______ ____
ROOT
ATOM      1  C   UNL     1      47.486   7.532  13.578  0.00  0.00    +0.000 A 
ATOM      2  C   UNL     1      46.678   8.413  12.850  0.00  0.00    +0.000 A 
ATOM      3  C   UNL     1      45.486   7.969  12.281  0.00  0.00    +0.000 A 
ATOM      4  C   UNL     1      45.124   6.633  12.430  0.00  0.00    +0.000 A 
ATOM      5  N   UNL     1      45.886   5.756  13.131  0.00  0.00    +0.000 NA
ATOM      6  C   UNL     1      47.034   6.221  13.680  0.00  0.00    +0.000 A 
ENDROOT
BRANCH   1   7
ATOM      7  C   UNL     1      48.790   8.017  14.165  0.00  0.00    +0.000 C 
BRANCH   7   8
ATOM      8  N   UNL     1      49.894   7.105  13.817  0.00  0.00    +0.000 NA
ATOM      9  H   UNL     1      50.717   7.663  13.587  0.00  0.00    +0.000 HD
ATOM     10  H   UNL     1      49.632   6.675  12.923  0.00  0.00    +0.000 HD
ENDBRANCH   7   8
BRANCH   7  11
ATOM     11  C   UNL     1      48.776   8.282  15.700  0.00  0.00    +0.000 C 
BRANCH  11  12
ATOM     12  N   UNL     1      47.705   9.218  16.083  0.00  0.00    +0.000 NA
ATOM     13  H   UNL     1      47.093   8.760  16.759  0.00  0.00    +0.000 HD
ATOM     14  H   UNL     1      47.122   9.406  15.267  0.00  0.00    +0.000 HD
ENDBRANCH  11  12
ENDBRANCH   7  11
ENDBRANCH   1   7
BRANCH   4  15
ATOM     15  C   UNL     1      43.909   6.088  11.726  0.00  0.00    +0.000 C 
BRANCH  15  16
ATOM     16  N   UNL     1      44.056   4.693  11.323  0.00  0.00    +0.000 N 
ATOM     17  C   UNL     1      43.393   3.645  11.916  0.00  0.00    +0.000 A 
ATOM     18  C   UNL     1      43.593   2.523  11.147  0.00  0.00    +0.000 A 
ATOM     19  C   UNL     1      44.406   2.892  10.042  0.00  0.00    +0.000 A 
ATOM     20  C   UNL     1      44.901   2.195   8.924  0.00  0.00    +0.000 A 
ATOM     21  C   UNL     1      45.686   2.879   7.998  0.00  0.00    +0.000 A 
ATOM     22  F   UNL     1      46.149   2.224   6.924  0.00  0.00    +0.000 F 
ATOM     23  C   UNL     1      46.001   4.221   8.160  0.00  0.00    +0.000 A 
ATOM     24  C   UNL     1      45.520   4.934   9.261  0.00  0.00    +0.000 A 
ATOM     25  C   UNL     1      44.709   4.252  10.185  0.00  0.00    +0.000 A 
ENDBRANCH  15  16
ENDBRANCH   4  15
TORSDOF 6
ENDMDL
MODEL 5
REMARK VINA RESULT:    -6.443      3.203      6.927
REMARK INTER + INTRA:          -8.883
REMARK INTER:                  -8.724
REMARK INTRA:                  -0.160
REMARK UNBOUND:                -0.557
REMARK  Name = 
REMARK  6 active torsions:
REMARK  status: ('A' for Active; 'I' for Inactive)
REMARK    1  A    between atoms: N_1  and  C_2
REMARK    2  A    between atoms: C_2  and  C_3
REMARK    3  A    between atoms: C_3  and  N_4
REMARK    4  A    between atoms: C_3  and  C_5
REMARK    5  A    between atoms: C_8  and  C_9
REMARK    6  A    between atoms: C_9  and  N_10
REMARK                            x       y       z     vdW  Elec       q    Type
REMARK                         _______ _______ _______ _____ _____    ______ ____
ROOT
ATOM      1  C   UNL     1      46.656   4.665  14.362  0.00  0.00    +0.000 A 
ATOM      2  C   UNL     1      45.774   5.512  13.682  0.00  0.00    +0.000 A 
ATOM      3  C   UNL     1      45.017   5.032  12.616  0.00  0.00    +0.000 A 
ATOM      4  C   UNL     1      45.168   3.705  12.225  0.00  0.00    +0.000 A 
ATOM      5  N   UNL     1      46.015   2.860  12.865  0.00  0.00    +0.000 NA
ATOM      6  C   UNL     1      46.729   3.354  13.904  0.00  0.00    +0.000 A 
ENDROOT
BRANCH   1   7
ATOM      7  C   UNL     1      47.492   5.205  15.498  0.00  0.00    +0.000 C 
BRANCH   7   8
ATOM      8  N   UNL     1      48.683   5.905  14.986  0.00  0.00    +0.000 NA
ATOM      9  H   UNL     1      49.350   5.210  14.649  0.00  0.00    +0.000 HD
ATOM     10  H   UNL     1      49.147   6.311  15.806  0.00  0.00    +0.000 HD
ENDBRANCH   7   8
BRANCH   7  11
ATOM     11  C   UNL     1      47.905   4.162  16.579  0.00  0.00    +0.000 C 
BRANCH  11  12
ATOM     12  N   UNL     1      46.876   4.024  17.624  0.00  0.00    +0.000 NA
ATOM     13  H   UNL     1      47.124   3.240  18.230  0.00  0.00    +0.000 HD
ATOM     14  H   UNL     1      45.992   3.764  17.186  0.00  0.00    +0.000 HD
ENDBRANCH  11  12
ENDBRANCH   7  11
ENDBRANCH   1   7
BRANCH   4  15
ATOM     15  C   UNL     1      44.462   3.184  11.001  0.00  0.00    +0.000 C 
BRANCH  15  16
ATOM     16  N   UNL     1      45.045   3.665   9.752  0.00  0.00    +0.000 N 
ATOM     17  C   UNL     1      45.212   4.994   9.441  0.00  0.00    +0.000 A 
ATOM     18  C   UNL     1      45.985   5.073   8.306  0.00  0.00    +0.000 A 
ATOM     19  C   UNL     1      46.305   3.749   7.905  0.00  0.00    +0.000 A 
ATOM     20  C   UNL     1      47.079   3.211   6.860  0.00  0.00    +0.000 A 
ATOM     21  C   UNL     1      47.195   1.826   6.753  0.00  0.00    +0.000 A 
ATOM     22  F   UNL     1      47.943   1.307   5.769  0.00  0.00    +0.000 F 
ATOM     23  C   UNL     1      46.556   0.970   7.640  0.00  0.00    +0.000 A 
ATOM     24  C   UNL     1      45.783   1.482   8.685  0.00  0.00    +0.000 A 
ATOM     25  C   UNL     1      45.682   2.879   8.809  0.00  0.00    +0.000 A 
ENDBRANCH  15  16
ENDBRANCH   4  15
TORSDOF 6
ENDMDL
MODEL 6
REMARK VINA RESULT:    -6.083      3.038      6.589
REMARK INTER + INTRA:          -8.418
REMARK INTER:                  -7.908
REMARK INTRA:                  -0.510
REMARK UNBOUND:                -0.557
REMARK  Name = 
REMARK  6 active torsions:
REMARK  status: ('A' for Active; 'I' for Inactive)
REMARK    1  A    between atoms: N_1  and  C_2
REMARK    2  A    between atoms: C_2  and  C_3
REMARK    3  A    between atoms: C_3  and  N_4
REMARK    4  A    between atoms: C_3  and  C_5
REMARK    5  A    between atoms: C_8  and  C_9
REMARK    6  A    between atoms: C_9  and  N_10
REMARK                            x       y       z     vdW  Elec       q    Type
REMARK                         _______ _______ _______ _____ _____    ______ ____
ROOT
ATOM      1  C   UNL     1      47.174   5.667  13.817  0.00  0.00    +0.000 A 
ATOM      2  C   UNL     1      47.146   6.520  12.709  0.00  0.00    +0.000 A 
ATOM      3  C   UNL     1      46.211   6.327  11.694  0.00  0.00    +0.000 A 
ATOM      4  C   UNL     1      45.322   5.260  11.790  0.00  0.00    +0.000 A 
ATOM      5  N   UNL     1      45.325   4.416  12.853  0.00  0.00    +0.000 NA
ATOM      6  C   UNL     1      46.240   4.636  13.827  0.00  0.00    +0.000 A 
ENDROOT
BRANCH   1   7
ATOM      7  C   UNL     1      48.210   5.868  14.897  0.00  0.00    +0.000 C 
BRANCH   7   8
ATOM      8  N   UNL     1      47.647   5.578  16.227  0.00  0.00    +0.000 NA
ATOM      9  H   UNL     1      48.232   4.878  16.683  0.00  0.00    +0.000 HD
ATOM     10  H   UNL     1      46.763   5.084  16.057  0.00  0.00    +0.000 HD
ENDBRANCH   7   8
BRANCH   7  11
ATOM     11  C   UNL     1      48.910   7.260  14.902  0.00  0.00    +0.000 C 
BRANCH  11  12
ATOM     12  N   UNL     1      50.287   7.181  14.385  0.00  0.00    +0.000 NA
ATOM     13  H   UNL     1      50.517   8.061  13.923  0.00  0.00    +0.000 HD
ATOM     14  H   UNL     1      50.326   6.469  13.655  0.00  0.00    +0.000 HD
ENDBRANCH  11  12
ENDBRANCH   7  11
ENDBRANCH   1   7
BRANCH   4  15
ATOM     15  C   UNL     1      44.382   4.944  10.656  0.00  0.00    +0.000 C 
BRANCH  15  16
ATOM     16  N   UNL     1      44.741   3.727   9.934  0.00  0.00    +0.000 N 
ATOM     17  C   UNL     1      44.177   2.496  10.170  0.00  0.00    +0.000 A 
ATOM     18  C   UNL     1      44.581   1.643   9.170  0.00  0.00    +0.000 A 
ATOM     19  C   UNL     1      45.420   2.373   8.287  0.00  0.00    +0.000 A 
ATOM     20  C   UNL     1      46.087   2.050   7.090  0.00  0.00    +0.000 A 
ATOM     21  C   UNL     1      46.845   3.033   6.457  0.00  0.00    +0.000 A 
ATOM     22  F   UNL     1      47.471   2.736   5.309  0.00  0.00    +0.000 F 
ATOM     23  C   UNL     1      46.968   4.311   6.983  0.00  0.00    +0.000 A 
ATOM     24  C   UNL     1      46.315   4.655   8.169  0.00  0.00    +0.000 A 
ATOM     25  C   UNL     1      45.531   3.672   8.799  0.00  0.00    +0.000 A 
ENDBRANCH  15  16
ENDBRANCH   4  15
TORSDOF 6
ENDMDL
MODEL 7
REMARK VINA RESULT:    -5.761      2.884      5.139
REMARK INTER + INTRA:          -8.002
REMARK INTER:                  -7.634
REMARK INTRA:                  -0.369
REMARK UNBOUND:                -0.557
REMARK  Name = 
REMARK  6 active torsions:
REMARK  status: ('A' for Active; 'I' for Inactive)
REMARK    1  A    between atoms: N_1  and  C_2
REMARK    2  A    between atoms: C_2  and  C_3
REMARK    3  A    between atoms: C_3  and  N_4
REMARK    4  A    between atoms: C_3  and  C_5
REMARK    5  A    between atoms: C_8  and  C_9
REMARK    6  A    between atoms: C_9  and  N_10
REMARK                            x       y       z     vdW  Elec       q    Type
REMARK                         _______ _______ _______ _____ _____    ______ ____
ROOT
ATOM      1  C   UNL     1      44.728   4.521  11.286  0.00  0.00    +0.000 A 
ATOM      2  C   UNL     1      45.475   5.470  10.579  0.00  0.00    +0.000 A 
ATOM      3  C   UNL     1      46.320   6.347  11.255  0.00  0.00    +0.000 A 
ATOM      4  C   UNL     1      46.392   6.279  12.643  0.00  0.00    +0.000 A 
ATOM      5  N   UNL     1      45.681   5.370  13.355  0.00  0.00    +0.000 NA
ATOM      6  C   UNL     1      44.876   4.524  12.669  0.00  0.00    +0.000 A 
ENDROOT
BRANCH   1   7
ATOM      7  C   UNL     1      43.794   3.594  10.545  0.00  0.00    +0.000 C 
BRANCH   7   8
ATOM      8  N   UNL     1      43.004   2.783  11.487  0.00  0.00    +0.000 NA
ATOM      9  H   UNL     1      42.017   2.865  11.241  0.00  0.00    +0.000 HD
ATOM     10  H   UNL     1      43.071   3.258  12.394  0.00  0.00    +0.000 HD
ENDBRANCH   7   8
BRANCH   7  11
ATOM     11  C   UNL     1      44.465   2.679   9.478  0.00  0.00    +0.000 C 
BRANCH  11  12
ATOM     12  N   UNL     1      44.371   3.256   8.127  0.00  0.00    +0.000 NA
ATOM     13  H   UNL     1      43.917   2.582   7.510  0.00  0.00    +0.000 HD
ATOM     14  H   UNL     1      45.313   3.379   7.753  0.00  0.00    +0.000 HD
ENDBRANCH  11  12
ENDBRANCH   7  11
ENDBRANCH   1   7
BRANCH   4  15
ATOM     15  C   UNL     1      47.197   7.291  13.416  0.00  0.00    +0.000 C 
BRANCH  15  16
ATOM     16  N   UNL     1      47.633   8.422  12.603  0.00  0.00    +0.000 N 
ATOM     17  C   UNL     1      46.920   9.589  12.461  0.00  0.00    +0.000 A 
ATOM     18  C   UNL     1      47.723  10.504  11.820  0.00  0.00    +0.000 A 
ATOM     19  C   UNL     1      48.972   9.880  11.561  0.00  0.00    +0.000 A 
ATOM     20  C   UNL     1      50.175  10.319  10.976  0.00  0.00    +0.000 A 
ATOM     21  C   UNL     1      51.241   9.426  10.880  0.00  0.00    +0.000 A 
ATOM     22  F   UNL     1      52.394   9.843  10.337  0.00  0.00    +0.000 F 
ATOM     23  C   UNL     1      51.140   8.118  11.331  0.00  0.00    +0.000 A 
ATOM     24  C   UNL     1      49.956   7.660  11.916  0.00  0.00    +0.000 A 
ATOM     25  C   UNL     1      48.886   8.565  12.035  0.00  0.00    +0.000 A 
ENDBRANCH  15  16
ENDBRANCH   4  15
TORSDOF 6
ENDMDL
MODEL 8
REMARK VINA RESULT:    -5.726      3.672      6.899
REMARK INTER + INTRA:          -7.956
REMARK INTER:                  -7.390
REMARK INTRA:                  -0.566
REMARK UNBOUND:                -0.557
REMARK  Name = 
REMARK  6 active torsions:
REMARK  status: ('A' for Active; 'I' for Inactive)
REMARK    1  A    between atoms: N_1  and  C_2
REMARK    2  A    between atoms: C_2  and  C_3
REMARK    3  A    between atoms: C_3  and  N_4
REMARK    4  A    between atoms: C_3  and  C_5
REMARK    5  A    between atoms: C_8  and  C_9
REMARK    6  A    between atoms: C_9  and  N_10
REMARK                            x       y       z     vdW  Elec       q    Type
REMARK                         _______ _______ _______ _____ _____    ______ ____
ROOT
ATOM      1  C   UNL     1      48.995   8.152  13.742  0.00  0.00    +0.000 A 
ATOM      2  C   UNL     1      48.913   7.197  12.723  0.00  0.00    +0.000 A 
ATOM      3  C   UNL     1      47.709   6.983  12.053  0.00  0.00    +0.000 A 
ATOM      4  C   UNL     1      46.588   7.717  12.429  0.00  0.00    +0.000 A 
ATOM      5  N   UNL     1      46.638   8.650  13.413  0.00  0.00    +0.000 NA
ATOM      6  C   UNL     1      47.824   8.842  14.038  0.00  0.00    +0.000 A 
ENDROOT
BRANCH   1   7
ATOM      7  C   UNL     1      50.296   8.355  14.481  0.00  0.00    +0.000 C 
BRANCH   7   8
ATOM      8  N   UNL     1      51.437   7.895  13.669  0.00  0.00    +0.000 NA
ATOM      9  H   UNL     1      51.668   6.940  13.943  0.00  0.00    +0.000 HD
ATOM     10  H   UNL     1      52.246   8.443  13.984  0.00  0.00    +0.000 HD
ENDBRANCH   7   8
BRANCH   7  11
ATOM     11  C   UNL     1      50.362   7.729  15.905  0.00  0.00    +0.000 C 
BRANCH  11  12
ATOM     12  N   UNL     1      50.742   6.306  15.859  0.00  0.00    +0.000 NA
ATOM     13  H   UNL     1      49.894   5.738  15.882  0.00  0.00    +0.000 HD
ATOM     14  H   UNL     1      51.252   6.072  16.711  0.00  0.00    +0.000 HD
ENDBRANCH  11  12
ENDBRANCH   7  11
ENDBRANCH   1   7
BRANCH   4  15
ATOM     15  C   UNL     1      45.244   7.426  11.816  0.00  0.00    +0.000 C 
BRANCH  15  16
ATOM     16  N   UNL     1      44.825   6.037  11.980  0.00  0.00    +0.000 N 
ATOM     17  C   UNL     1      44.157   5.558  13.081  0.00  0.00    +0.000 A 
ATOM     18  C   UNL     1      43.730   4.281  12.799  0.00  0.00    +0.000 A 
ATOM     19  C   UNL     1      44.148   3.964  11.479  0.00  0.00    +0.000 A 
ATOM     20  C   UNL     1      43.975   2.841  10.649  0.00  0.00    +0.000 A 
ATOM     21  C   UNL     1      44.525   2.860   9.369  0.00  0.00    +0.000 A 
ATOM     22  F   UNL     1      44.352   1.799   8.567  0.00  0.00    +0.000 F 
ATOM     23  C   UNL     1      45.248   3.949   8.902  0.00  0.00    +0.000 A 
ATOM     24  C   UNL     1      45.431   5.076   9.708  0.00  0.00    +0.000 A 
ATOM     25  C   UNL     1      44.858   5.068  10.992  0.00  0.00    +0.000 A 
ENDBRANCH  15  16
ENDBRANCH   4  15
TORSDOF 6
ENDMDL
MODEL 9
REMARK VINA RESULT:    -5.608      4.360      6.624
REMARK INTER + INTRA:          -7.804
REMARK INTER:                  -7.290
REMARK INTRA:                  -0.514
REMARK UNBOUND:                -0.557
REMARK  Name = 
REMARK  6 active torsions:
REMARK  status: ('A' for Active; 'I' for Inactive)
REMARK    1  A    between atoms: N_1  and  C_2
REMARK    2  A    between atoms: C_2  and  C_3
REMARK    3  A    between atoms: C_3  and  N_4
REMARK    4  A    between atoms: C_3  and  C_5
REMARK    5  A    between atoms: C_8  and  C_9
REMARK    6  A    between atoms: C_9  and  N_10
REMARK                            x       y       z     vdW  Elec       q    Type
REMARK                         _______ _______ _______ _____ _____    ______ ____
ROOT
ATOM      1  C   UNL     1      45.192   5.415  12.805  0.00  0.00    +0.000 A 
ATOM      2  C   UNL     1      45.451   6.768  12.561  0.00  0.00    +0.000 A 
ATOM      3  C   UNL     1      46.700   7.310  12.859  0.00  0.00    +0.000 A 
ATOM      4  C   UNL     1      47.675   6.491  13.421  0.00  0.00    +0.000 A 
ATOM      5  N   UNL     1      47.452   5.176  13.668  0.00  0.00    +0.000 NA
ATOM      6  C   UNL     1      46.232   4.676  13.359  0.00  0.00    +0.000 A 
ENDROOT
BRANCH   1   7
ATOM      7  C   UNL     1      43.825   4.845  12.507  0.00  0.00    +0.000 C 
BRANCH   7   8
ATOM      8  N   UNL     1      42.790   5.516  13.311  0.00  0.00    +0.000 NA
ATOM      9  H   UNL     1      41.909   5.490  12.797  0.00  0.00    +0.000 HD
ATOM     10  H   UNL     1      43.039   6.511  13.319  0.00  0.00    +0.000 HD
ENDBRANCH   7   8
BRANCH   7  11
ATOM     11  C   UNL     1      43.699   3.299  12.649  0.00  0.00    +0.000 C 
BRANCH  11  12
ATOM     12  N   UNL     1      42.949   2.707  11.528  0.00  0.00    +0.000 NA
ATOM     13  H   UNL     1      42.052   3.186  11.442  0.00  0.00    +0.000 HD
ATOM     14  H   UNL     1      42.723   1.738  11.756  0.00  0.00    +0.000 HD
ENDBRANCH  11  12
ENDBRANCH   7  11
ENDBRANCH   1   7
BRANCH   4  15
ATOM     15  C   UNL     1      48.992   7.068  13.870  0.00  0.00    +0.000 C 
BRANCH  15  16
ATOM     16  N   UNL     1      48.907   7.764  15.151  0.00  0.00    +0.000 N 
ATOM     17  C   UNL     1      48.632   9.104  15.284  0.00  0.00    +0.000 A 
ATOM     18  C   UNL     1      48.410   9.364  16.616  0.00  0.00    +0.000 A 
ATOM     19  C   UNL     1      48.552   8.143  17.327  0.00  0.00    +0.000 A 
ATOM     20  C   UNL     1      48.409   7.784  18.681  0.00  0.00    +0.000 A 
ATOM     21  C   UNL     1      48.620   6.457  19.051  0.00  0.00    +0.000 A 
ATOM     22  F   UNL     1      48.472   6.106  20.337  0.00  0.00    +0.000 F 
ATOM     23  C   UNL     1      48.979   5.490  18.123  0.00  0.00    +0.000 A 
ATOM     24  C   UNL     1      49.126   5.822  16.774  0.00  0.00    +0.000 A 
ATOM     25  C   UNL     1      48.892   7.156  16.394  0.00  0.00    +0.000 A 
ENDBRANCH  15  16
ENDBRANCH   4  15
TORSDOF 6
ENDMDL
