MODEL 1
REMARK VINA RESULT:    -8.897      0.000      0.000
REMARK INTER + INTRA:         -15.009
REMARK INTER:                 -13.838
REMARK INTRA:                  -1.171
REMARK UNBOUND:                -1.171
REMARK  Name = 
REMARK  10 active torsions:
REMARK  status: ('A' for Active; 'I' for Inactive)
REMARK    1  A    between atoms: C_2  and  C_23
REMARK    2  A    between atoms: N_3  and  C_4
REMARK    3  A    between atoms: C_4  and  C_5
REMARK    4  A    between atoms: C_9  and  C_10
REMARK    5  A    between atoms: C_10  and  N_11
REMARK    6  A    between atoms: N_11  and  C_12
REMARK    7  A    between atoms: N_11  and  C_15
REMARK    8  A    between atoms: C_12  and  C_13
REMARK    9  A    between atoms: C_13  and  O_14
REMARK   10  A    between atoms: C_15  and  C_16
REMARK                            x       y       z     vdW  Elec       q    Type
REMARK                         _______ _______ _______ _____ _____    ______ ____
ROOT
ATOM      1  C   UNL     1      46.920   5.369  13.845  0.00  0.00    +0.000 A 
ATOM      2  C   UNL     1      48.047   6.152  13.564  0.00  0.00    +0.000 A 
ATOM      3  C   UNL     1      48.091   6.943  12.416  0.00  0.00    +0.000 A 
ATOM      4  C   UNL     1      47.037   6.908  11.506  0.00  0.00    +0.000 A 
ATOM      5  C   UNL     1      45.952   6.048  11.715  0.00  0.00    +0.000 A 
ATOM      6  C   UNL     1      45.881   5.314  12.906  0.00  0.00    +0.000 A 
ENDROOT
BRANCH   1   7
ATOM      7  C   UNL     1      46.843   4.546  15.101  0.00  0.00    +0.000 C 
BRANCH   7  10
ATOM      8  O   UNL     1      47.373   4.848  17.849  0.00  0.00    +0.000 OA
ATOM      9  C   UNL     1      48.294   4.553  17.096  0.00  0.00    +0.000 C 
ATOM     10  N   UNL     1      48.132   4.454  15.738  0.00  0.00    +0.000 N 
ATOM     11  H   UNL     1      48.867   4.031  15.182  0.00  0.00    +0.000 HD
BRANCH   9  12
ATOM     12  C   UNL     1      49.653   4.330  17.599  0.00  0.00    +0.000 A 
ATOM     13  C   UNL     1      50.277   5.320  18.345  0.00  0.00    +0.000 A 
ATOM     14  S   UNL     1      51.845   4.900  18.870  0.00  0.00    +0.000 S 
ATOM     15  C   UNL     1      51.724   3.359  18.155  0.00  0.00    +0.000 A 
ATOM     16  N   UNL     1      52.734   2.457  18.276  0.00  0.00    +0.000 NA
ATOM     17  C   UNL     1      52.496   1.311  17.725  0.00  0.00    +0.000 A 
ATOM     18  N   UNL     1      51.346   0.994  17.052  0.00  0.00    +0.000 N 
ATOM     19  C   UNL     1      50.333   1.900  16.839  0.00  0.00    +0.000 A 
ATOM     20  O   UNL     1      49.383   1.628  16.112  0.00  0.00    +0.000 OA
ATOM     21  C   UNL     1      50.524   3.180  17.493  0.00  0.00    +0.000 A 
ATOM     22  H   UNL     1      51.240   0.096  16.606  0.00  0.00    +0.000 HD
ENDBRANCH   9  12
ENDBRANCH   7  10
ENDBRANCH   1   7
BRANCH   5  23
ATOM     23  C   UNL     1      44.911   5.844  10.634  0.00  0.00    +0.000 C 
BRANCH  23  24
ATOM     24  N   UNL     1      44.604   4.409  10.384  0.00  0.00    +0.000 NA
BRANCH  24  25
ATOM     25  C   UNL     1      43.383   4.002  11.123  0.00  0.00    +0.000 C 
BRANCH  25  26
ATOM     26  C   UNL     1      43.571   2.818  12.088  0.00  0.00    +0.000 C 
BRANCH  26  27
ATOM     27  O   UNL     1      43.013   1.627  11.536  0.00  0.00    +0.000 OA
ATOM     28  H   UNL     1      42.803   1.040  12.282  0.00  0.00    +0.000 HD
ENDBRANCH  26  27
ENDBRANCH  25  26
ENDBRANCH  24  25
BRANCH  24  29
ATOM     29  C   UNL     1      44.438   4.172   8.935  0.00  0.00    +0.000 C 
BRANCH  29  30
ATOM     30  C   UNL     1      45.492   3.263   8.346  0.00  0.00    +0.000 A 
ATOM     31  C   UNL     1      46.444   3.759   7.451  0.00  0.00    +0.000 A 
ATOM     32  C   UNL     1      47.358   2.877   6.900  0.00  0.00    +0.000 A 
ATOM     33  N   UNL     1      47.392   1.557   7.182  0.00  0.00    +0.000 NA
ATOM     34  C   UNL     1      46.472   1.101   8.057  0.00  0.00    +0.000 A 
ATOM     35  C   UNL     1      45.519   1.902   8.664  0.00  0.00    +0.000 A 
ENDBRANCH  29  30
ENDBRANCH  24  29
ENDBRANCH  23  24
ENDBRANCH   5  23
TORSDOF 10
ENDMDL
MODEL 2
REMARK VINA RESULT:    -8.552      2.128      2.895
REMARK INTER + INTRA:         -14.474
REMARK INTER:                 -12.946
REMARK INTRA:                  -1.528
REMARK UNBOUND:                -1.171
REMARK  Name = 
REMARK  10 active torsions:
REMARK  status: ('A' for Active; 'I' for Inactive)
REMARK    1  A    between atoms: C_2  and  C_23
REMARK    2  A    between atoms: N_3  and  C_4
REMARK    3  A    between atoms: C_4  and  C_5
REMARK    4  A    between atoms: C_9  and  C_10
REMARK    5  A    between atoms: C_10  and  N_11
REMARK    6  A    between atoms: N_11  and  C_12
REMARK    7  A    between atoms: N_11  and  C_15
REMARK    8  A    between atoms: C_12  and  C_13
REMARK    9  A    between atoms: C_13  and  O_14
REMARK   10  A    between atoms: C_15  and  C_16
REMARK                            x       y       z     vdW  Elec       q    Type
REMARK                         _______ _______ _______ _____ _____    ______ ____
ROOT
ATOM      1  C   UNL     1      47.189   7.400  11.909  0.00  0.00    +0.000 A 
ATOM      2  C   UNL     1      46.576   8.639  12.136  0.00  0.00    +0.000 A 
ATOM      3  C   UNL     1      45.196   8.783  11.987  0.00  0.00    +0.000 A 
ATOM      4  C   UNL     1      44.427   7.707  11.549  0.00  0.00    +0.000 A 
ATOM      5  C   UNL     1      45.039   6.493  11.212  0.00  0.00    +0.000 A 
ATOM      6  C   UNL     1      46.413   6.335  11.435  0.00  0.00    +0.000 A 
ENDROOT
BRANCH   1   7
ATOM      7  C   UNL     1      48.670   7.223  12.108  0.00  0.00    +0.000 C 
BRANCH   7  10
ATOM      8  O   UNL     1      48.967   8.420  14.638  0.00  0.00    +0.000 OA
ATOM      9  C   UNL     1      49.015   7.198  14.549  0.00  0.00    +0.000 C 
ATOM     10  N   UNL     1      48.947   6.543  13.347  0.00  0.00    +0.000 N 
ATOM     11  H   UNL     1      48.804   5.539  13.338  0.00  0.00    +0.000 HD
BRANCH   9  12
ATOM     12  C   UNL     1      49.196   6.352  15.733  0.00  0.00    +0.000 A 
ATOM     13  C   UNL     1      50.206   6.649  16.638  0.00  0.00    +0.000 A 
ATOM     14  S   UNL     1      50.274   5.582  17.967  0.00  0.00    +0.000 S 
ATOM     15  C   UNL     1      48.925   4.711  17.399  0.00  0.00    +0.000 A 
ATOM     16  N   UNL     1      48.421   3.669  18.112  0.00  0.00    +0.000 NA
ATOM     17  C   UNL     1      47.370   3.124  17.592  0.00  0.00    +0.000 A 
ATOM     18  N   UNL     1      46.789   3.518  16.416  0.00  0.00    +0.000 N 
ATOM     19  C   UNL     1      47.311   4.514  15.624  0.00  0.00    +0.000 A 
ATOM     20  O   UNL     1      46.850   4.745  14.511  0.00  0.00    +0.000 OA
ATOM     21  C   UNL     1      48.453   5.200  16.196  0.00  0.00    +0.000 A 
ATOM     22  H   UNL     1      45.995   3.022  16.041  0.00  0.00    +0.000 HD
ENDBRANCH   9  12
ENDBRANCH   7  10
ENDBRANCH   1   7
BRANCH   5  23
ATOM     23  C   UNL     1      44.247   5.394  10.536  0.00  0.00    +0.000 C 
BRANCH  23  24
ATOM     24  N   UNL     1      45.057   4.174  10.266  0.00  0.00    +0.000 NA
BRANCH  24  25
ATOM     25  C   UNL     1      44.919   3.202  11.380  0.00  0.00    +0.000 C 
BRANCH  25  26
ATOM     26  C   UNL     1      43.483   3.009  11.899  0.00  0.00    +0.000 C 
BRANCH  26  27
ATOM     27  O   UNL     1      43.015   1.694  11.603  0.00  0.00    +0.000 OA
ATOM     28  H   UNL     1      43.780   1.186  11.285  0.00  0.00    +0.000 HD
ENDBRANCH  26  27
ENDBRANCH  25  26
ENDBRANCH  24  25
BRANCH  24  29
ATOM     29  C   UNL     1      44.640   3.562   8.988  0.00  0.00    +0.000 C 
BRANCH  29  30
ATOM     30  C   UNL     1      45.756   2.839   8.271  0.00  0.00    +0.000 A 
ATOM     31  C   UNL     1      46.659   3.538   7.464  0.00  0.00    +0.000 A 
ATOM     32  C   UNL     1      47.634   2.824   6.788  0.00  0.00    +0.000 A 
ATOM     33  N   UNL     1      47.774   1.483   6.868  0.00  0.00    +0.000 NA
ATOM     34  C   UNL     1      46.901   0.829   7.662  0.00  0.00    +0.000 A 
ATOM     35  C   UNL     1      45.893   1.452   8.380  0.00  0.00    +0.000 A 
ENDBRANCH  29  30
ENDBRANCH  24  29
ENDBRANCH  23  24
ENDBRANCH   5  23
TORSDOF 10
ENDMDL
MODEL 3
REMARK VINA RESULT:    -7.966      2.826      3.382
REMARK INTER + INTRA:         -13.562
REMARK INTER:                 -12.412
REMARK INTRA:                  -1.150
REMARK UNBOUND:                -1.171
REMARK  Name = 
REMARK  10 active torsions:
REMARK  status: ('A' for Active; 'I' for Inactive)
REMARK    1  A    between atoms: C_2  and  C_23
REMARK    2  A    between atoms: N_3  and  C_4
REMARK    3  A    between atoms: C_4  and  C_5
REMARK    4  A    between atoms: C_9  and  C_10
REMARK    5  A    between atoms: C_10  and  N_11
REMARK    6  A    between atoms: N_11  and  C_12
REMARK    7  A    between atoms: N_11  and  C_15
REMARK    8  A    between atoms: C_12  and  C_13
REMARK    9  A    between atoms: C_13  and  O_14
REMARK   10  A    between atoms: C_15  and  C_16
REMARK                            x       y       z     vdW  Elec       q    Type
REMARK                         _______ _______ _______ _____ _____    ______ ____
ROOT
ATOM      1  C   UNL     1      46.989   6.460  12.977  0.00  0.00    +0.000 A 
ATOM      2  C   UNL     1      46.422   7.711  13.249  0.00  0.00    +0.000 A 
ATOM      3  C   UNL     1      45.375   8.198  12.467  0.00  0.00    +0.000 A 
ATOM      4  C   UNL     1      44.929   7.469  11.367  0.00  0.00    +0.000 A 
ATOM      5  C   UNL     1      45.558   6.268  11.015  0.00  0.00    +0.000 A 
ATOM      6  C   UNL     1      46.558   5.750  11.849  0.00  0.00    +0.000 A 
ENDROOT
BRANCH   1   7
ATOM      7  C   UNL     1      48.090   5.905  13.839  0.00  0.00    +0.000 C 
BRANCH   7  10
ATOM      8  O   UNL     1      50.222   6.726  15.483  0.00  0.00    +0.000 OA
ATOM      9  C   UNL     1      49.074   6.837  15.899  0.00  0.00    +0.000 C 
ATOM     10  N   UNL     1      47.988   6.399  15.188  0.00  0.00    +0.000 N 
ATOM     11  H   UNL     1      47.058   6.678  15.484  0.00  0.00    +0.000 HD
BRANCH   9  12
ATOM     12  C   UNL     1      48.791   7.412  17.218  0.00  0.00    +0.000 A 
ATOM     13  C   UNL     1      48.988   8.770  17.429  0.00  0.00    +0.000 A 
ATOM     14  S   UNL     1      48.597   9.284  19.007  0.00  0.00    +0.000 S 
ATOM     15  C   UNL     1      48.108   7.714  19.450  0.00  0.00    +0.000 A 
ATOM     16  N   UNL     1      47.608   7.468  20.691  0.00  0.00    +0.000 NA
ATOM     17  C   UNL     1      47.232   6.245  20.882  0.00  0.00    +0.000 A 
ATOM     18  N   UNL     1      47.327   5.246  19.949  0.00  0.00    +0.000 N 
ATOM     19  C   UNL     1      47.898   5.433  18.712  0.00  0.00    +0.000 A 
ATOM     20  O   UNL     1      48.096   4.487  17.956  0.00  0.00    +0.000 OA
ATOM     21  C   UNL     1      48.275   6.803  18.425  0.00  0.00    +0.000 A 
ATOM     22  H   UNL     1      47.057   4.301  20.176  0.00  0.00    +0.000 HD
ENDBRANCH   9  12
ENDBRANCH   7  10
ENDBRANCH   1   7
BRANCH   5  23
ATOM     23  C   UNL     1      45.226   5.580   9.708  0.00  0.00    +0.000 C 
BRANCH  23  24
ATOM     24  N   UNL     1      44.809   4.162   9.886  0.00  0.00    +0.000 NA
BRANCH  24  25
ATOM     25  C   UNL     1      43.597   4.079  10.739  0.00  0.00    +0.000 C 
BRANCH  25  26
ATOM     26  C   UNL     1      43.688   3.075  11.901  0.00  0.00    +0.000 C 
BRANCH  26  27
ATOM     27  O   UNL     1      42.899   1.918  11.629  0.00  0.00    +0.000 OA
ATOM     28  H   UNL     1      43.431   1.340  11.056  0.00  0.00    +0.000 HD
ENDBRANCH  26  27
ENDBRANCH  25  26
ENDBRANCH  24  25
BRANCH  24  29
ATOM     29  C   UNL     1      44.561   3.538   8.570  0.00  0.00    +0.000 C 
BRANCH  29  30
ATOM     30  C   UNL     1      45.755   2.792   8.020  0.00  0.00    +0.000 A 
ATOM     31  C   UNL     1      46.719   3.453   7.253  0.00  0.00    +0.000 A 
ATOM     32  C   UNL     1      47.768   2.716   6.729  0.00  0.00    +0.000 A 
ATOM     33  N   UNL     1      47.923   1.389   6.921  0.00  0.00    +0.000 NA
ATOM     34  C   UNL     1      46.988   0.772   7.674  0.00  0.00    +0.000 A 
ATOM     35  C   UNL     1      45.904   1.421   8.244  0.00  0.00    +0.000 A 
ENDBRANCH  29  30
ENDBRANCH  24  29
ENDBRANCH  23  24
ENDBRANCH   5  23
TORSDOF 10
ENDMDL
MODEL 4
REMARK VINA RESULT:    -7.825      2.849      4.223
REMARK INTER + INTRA:         -13.342
REMARK INTER:                 -12.440
REMARK INTRA:                  -0.902
REMARK UNBOUND:                -1.171
REMARK  Name = 
REMARK  10 active torsions:
REMARK  status: ('A' for Active; 'I' for Inactive)
REMARK    1  A    between atoms: C_2  and  C_23
REMARK    2  A    between atoms: N_3  and  C_4
REMARK    3  A    between atoms: C_4  and  C_5
REMARK    4  A    between atoms: C_9  and  C_10
REMARK    5  A    between atoms: C_10  and  N_11
REMARK    6  A    between atoms: N_11  and  C_12
REMARK    7  A    between atoms: N_11  and  C_15
REMARK    8  A    between atoms: C_12  and  C_13
REMARK    9  A    between atoms: C_13  and  O_14
REMARK   10  A    between atoms: C_15  and  C_16
REMARK                            x       y       z     vdW  Elec       q    Type
REMARK                         _______ _______ _______ _____ _____    ______ ____
ROOT
ATOM      1  C   UNL     1      47.211   6.940  12.998  0.00  0.00    +0.000 A 
ATOM      2  C   UNL     1      46.377   8.037  13.247  0.00  0.00    +0.000 A 
ATOM      3  C   UNL     1      45.223   8.235  12.487  0.00  0.00    +0.000 A 
ATOM      4  C   UNL     1      44.930   7.376  11.430  0.00  0.00    +0.000 A 
ATOM      5  C   UNL     1      45.811   6.339  11.098  0.00  0.00    +0.000 A 
ATOM      6  C   UNL     1      46.926   6.102  11.912  0.00  0.00    +0.000 A 
ENDROOT
BRANCH   1   7
ATOM      7  C   UNL     1      48.434   6.692  13.839  0.00  0.00    +0.000 C 
BRANCH   7  10
ATOM      8  O   UNL     1      50.179   6.098  15.966  0.00  0.00    +0.000 OA
ATOM      9  C   UNL     1      49.037   6.464  16.219  0.00  0.00    +0.000 C 
ATOM     10  N   UNL     1      48.108   6.707  15.242  0.00  0.00    +0.000 N 
ATOM     11  H   UNL     1      47.245   7.182  15.487  0.00  0.00    +0.000 HD
BRANCH   9  12
ATOM     12  C   UNL     1      48.574   6.624  17.601  0.00  0.00    +0.000 A 
ATOM     13  C   UNL     1      48.586   5.531  18.457  0.00  0.00    +0.000 A 
ATOM     14  S   UNL     1      48.034   5.885  20.032  0.00  0.00    +0.000 S 
ATOM     15  C   UNL     1      47.801   7.525  19.634  0.00  0.00    +0.000 A 
ATOM     16  N   UNL     1      47.374   8.412  20.572  0.00  0.00    +0.000 NA
ATOM     17  C   UNL     1      47.282   9.632  20.151  0.00  0.00    +0.000 A 
ATOM     18  N   UNL     1      47.563  10.038  18.874  0.00  0.00    +0.000 N 
ATOM     19  C   UNL     1      47.921   9.163  17.874  0.00  0.00    +0.000 A 
ATOM     20  O   UNL     1      48.027   9.538  16.711  0.00  0.00    +0.000 OA
ATOM     21  C   UNL     1      48.102   7.792  18.312  0.00  0.00    +0.000 A 
ATOM     22  H   UNL     1      47.429  10.998  18.596  0.00  0.00    +0.000 HD
ENDBRANCH   9  12
ENDBRANCH   7  10
ENDBRANCH   1   7
BRANCH   5  23
ATOM     23  C   UNL     1      45.613   5.538   9.829  0.00  0.00    +0.000 C 
BRANCH  23  24
ATOM     24  N   UNL     1      45.067   4.175  10.080  0.00  0.00    +0.000 NA
BRANCH  24  25
ATOM     25  C   UNL     1      43.935   4.237  11.037  0.00  0.00    +0.000 C 
BRANCH  25  26
ATOM     26  C   UNL     1      43.892   3.094  12.067  0.00  0.00    +0.000 C 
BRANCH  26  27
ATOM     27  O   UNL     1      43.087   2.017  11.589  0.00  0.00    +0.000 OA
ATOM     28  H   UNL     1      43.690   1.369  11.188  0.00  0.00    +0.000 HD
ENDBRANCH  26  27
ENDBRANCH  25  26
ENDBRANCH  24  25
BRANCH  24  29
ATOM     29  C   UNL     1      44.638   3.560   8.807  0.00  0.00    +0.000 C 
BRANCH  29  30
ATOM     30  C   UNL     1      45.738   2.802   8.101  0.00  0.00    +0.000 A 
ATOM     31  C   UNL     1      45.903   1.428   8.302  0.00  0.00    +0.000 A 
ATOM     32  C   UNL     1      46.956   0.788   7.671  0.00  0.00    +0.000 A 
ATOM     33  N   UNL     1      47.837   1.411   6.860  0.00  0.00    +0.000 NA
ATOM     34  C   UNL     1      47.653   2.735   6.669  0.00  0.00    +0.000 A 
ATOM     35  C   UNL     1      46.630   3.464   7.252  0.00  0.00    +0.000 A 
ENDBRANCH  29  30
ENDBRANCH  24  29
ENDBRANCH  23  24
ENDBRANCH   5  23
TORSDOF 10
ENDMDL
MODEL 5
REMARK VINA RESULT:    -7.521      2.571      3.014
REMARK INTER + INTRA:         -12.869
REMARK INTER:                 -11.647
REMARK INTRA:                  -1.222
REMARK UNBOUND:                -1.171
REMARK  Name = 
REMARK  10 active torsions:
REMARK  status: ('A' for Active; 'I' for Inactive)
REMARK    1  A    between atoms: C_2  and  C_23
REMARK    2  A    between atoms: N_3  and  C_4
REMARK    3  A    between atoms: C_4  and  C_5
REMARK    4  A    between atoms: C_9  and  C_10
REMARK    5  A    between atoms: C_10  and  N_11
REMARK    6  A    between atoms: N_11  and  C_12
REMARK    7  A    between atoms: N_11  and  C_15
REMARK    8  A    between atoms: C_12  and  C_13
REMARK    9  A    between atoms: C_13  and  O_14
REMARK   10  A    between atoms: C_15  and  C_16
REMARK                            x       y       z     vdW  Elec       q    Type
REMARK                         _______ _______ _______ _____ _____    ______ ____
ROOT
ATOM      1  C   UNL     1      47.552   6.208  13.855  0.00  0.00    +0.000 A 
ATOM      2  C   UNL     1      47.534   4.994  14.552  0.00  0.00    +0.000 A 
ATOM      3  C   UNL     1      46.861   3.888  14.030  0.00  0.00    +0.000 A 
ATOM      4  C   UNL     1      46.147   4.006  12.840  0.00  0.00    +0.000 A 
ATOM      5  C   UNL     1      46.063   5.242  12.187  0.00  0.00    +0.000 A 
ATOM      6  C   UNL     1      46.802   6.327  12.677  0.00  0.00    +0.000 A 
ENDROOT
BRANCH   1   7
ATOM      7  C   UNL     1      48.310   7.394  14.386  0.00  0.00    +0.000 C 
BRANCH   7  10
ATOM      8  O   UNL     1      48.402   9.043  16.666  0.00  0.00    +0.000 OA
ATOM      9  C   UNL     1      48.887   7.919  16.725  0.00  0.00    +0.000 C 
ATOM     10  N   UNL     1      48.943   7.082  15.642  0.00  0.00    +0.000 N 
ATOM     11  H   UNL     1      49.180   6.105  15.782  0.00  0.00    +0.000 HD
BRANCH   9  12
ATOM     12  C   UNL     1      49.487   7.409  17.963  0.00  0.00    +0.000 A 
ATOM     13  C   UNL     1      50.590   8.055  18.504  0.00  0.00    +0.000 A 
ATOM     14  S   UNL     1      51.158   7.352  19.951  0.00  0.00    +0.000 S 
ATOM     15  C   UNL     1      49.918   6.183  19.926  0.00  0.00    +0.000 A 
ATOM     16  N   UNL     1      49.800   5.275  20.931  0.00  0.00    +0.000 NA
ATOM     17  C   UNL     1      48.791   4.475  20.812  0.00  0.00    +0.000 A 
ATOM     18  N   UNL     1      47.901   4.493  19.772  0.00  0.00    +0.000 N 
ATOM     19  C   UNL     1      48.028   5.341  18.696  0.00  0.00    +0.000 A 
ATOM     20  O   UNL     1      47.299   5.234  17.716  0.00  0.00    +0.000 OA
ATOM     21  C   UNL     1      49.107   6.302  18.813  0.00  0.00    +0.000 A 
ATOM     22  H   UNL     1      47.160   3.812  19.715  0.00  0.00    +0.000 HD
ENDBRANCH   9  12
ENDBRANCH   7  10
ENDBRANCH   1   7
BRANCH   5  23
ATOM     23  C   UNL     1      45.120   5.432  11.017  0.00  0.00    +0.000 C 
BRANCH  23  24
ATOM     24  N   UNL     1      44.389   4.188  10.651  0.00  0.00    +0.000 NA
BRANCH  24  25
ATOM     25  C   UNL     1      43.062   4.150  11.315  0.00  0.00    +0.000 C 
BRANCH  25  26
ATOM     26  C   UNL     1      42.570   5.501  11.863  0.00  0.00    +0.000 C 
BRANCH  26  27
ATOM     27  O   UNL     1      42.663   5.530  13.286  0.00  0.00    +0.000 OA
ATOM     28  H   UNL     1      42.006   6.174  13.600  0.00  0.00    +0.000 HD
ENDBRANCH  26  27
ENDBRANCH  25  26
ENDBRANCH  24  25
BRANCH  24  29
ATOM     29  C   UNL     1      44.238   4.104   9.183  0.00  0.00    +0.000 C 
BRANCH  29  30
ATOM     30  C   UNL     1      45.328   3.306   8.508  0.00  0.00    +0.000 A 
ATOM     31  C   UNL     1      46.216   3.918   7.619  0.00  0.00    +0.000 A 
ATOM     32  C   UNL     1      47.167   3.135   6.986  0.00  0.00    +0.000 A 
ATOM     33  N   UNL     1      47.297   1.805   7.183  0.00  0.00    +0.000 NA
ATOM     34  C   UNL     1      46.438   1.236   8.055  0.00  0.00    +0.000 A 
ATOM     35  C   UNL     1      45.455   1.933   8.738  0.00  0.00    +0.000 A 
ENDBRANCH  29  30
ENDBRANCH  24  29
ENDBRANCH  23  24
ENDBRANCH   5  23
TORSDOF 10
ENDMDL
MODEL 6
REMARK VINA RESULT:    -7.407      1.324      1.929
REMARK INTER + INTRA:         -12.692
REMARK INTER:                 -11.741
REMARK INTRA:                  -0.951
REMARK UNBOUND:                -1.171
REMARK  Name = 
REMARK  10 active torsions:
REMARK  status: ('A' for Active; 'I' for Inactive)
REMARK    1  A    between atoms: C_2  and  C_23
REMARK    2  A    between atoms: N_3  and  C_4
REMARK    3  A    between atoms: C_4  and  C_5
REMARK    4  A    between atoms: C_9  and  C_10
REMARK    5  A    between atoms: C_10  and  N_11
REMARK    6  A    between atoms: N_11  and  C_12
REMARK    7  A    between atoms: N_11  and  C_15
REMARK    8  A    between atoms: C_12  and  C_13
REMARK    9  A    between atoms: C_13  and  O_14
REMARK   10  A    between atoms: C_15  and  C_16
REMARK                            x       y       z     vdW  Elec       q    Type
REMARK                         _______ _______ _______ _____ _____    ______ ____
ROOT
ATOM      1  C   UNL     1      47.554   5.628  14.430  0.00  0.00    +0.000 A 
ATOM      2  C   UNL     1      47.311   4.310  14.838  0.00  0.00    +0.000 A 
ATOM      3  C   UNL     1      46.689   3.406  13.977  0.00  0.00    +0.000 A 
ATOM      4  C   UNL     1      46.247   3.828  12.726  0.00  0.00    +0.000 A 
ATOM      5  C   UNL     1      46.382   5.169  12.344  0.00  0.00    +0.000 A 
ATOM      6  C   UNL     1      47.074   6.052  13.184  0.00  0.00    +0.000 A 
ENDROOT
BRANCH   1   7
ATOM      7  C   UNL     1      48.262   6.600  15.334  0.00  0.00    +0.000 C 
BRANCH   7  10
ATOM      8  O   UNL     1      48.487   5.490  17.911  0.00  0.00    +0.000 OA
ATOM      9  C   UNL     1      49.448   5.430  17.152  0.00  0.00    +0.000 C 
ATOM     10  N   UNL     1      49.442   6.005  15.908  0.00  0.00    +0.000 N 
ATOM     11  H   UNL     1      50.180   5.773  15.252  0.00  0.00    +0.000 HD
BRANCH   9  12
ATOM     12  C   UNL     1      50.697   4.771  17.550  0.00  0.00    +0.000 A 
ATOM     13  C   UNL     1      51.717   5.524  18.116  0.00  0.00    +0.000 A 
ATOM     14  S   UNL     1      53.093   4.609  18.537  0.00  0.00    +0.000 S 
ATOM     15  C   UNL     1      52.353   3.166  18.017  0.00  0.00    +0.000 A 
ATOM     16  N   UNL     1      52.993   1.973  18.145  0.00  0.00    +0.000 NA
ATOM     17  C   UNL     1      52.303   0.951  17.753  0.00  0.00    +0.000 A 
ATOM     18  N   UNL     1      51.039   1.020  17.231  0.00  0.00    +0.000 N 
ATOM     19  C   UNL     1      50.386   2.210  17.011  0.00  0.00    +0.000 A 
ATOM     20  O   UNL     1      49.316   2.245  16.412  0.00  0.00    +0.000 OA
ATOM     21  C   UNL     1      51.092   3.381  17.494  0.00  0.00    +0.000 A 
ATOM     22  H   UNL     1      50.570   0.189  16.902  0.00  0.00    +0.000 HD
ENDBRANCH   9  12
ENDBRANCH   7  10
ENDBRANCH   1   7
BRANCH   5  23
ATOM     23  C   UNL     1      45.718   5.682  11.085  0.00  0.00    +0.000 C 
BRANCH  23  24
ATOM     24  N   UNL     1      44.872   4.657  10.413  0.00  0.00    +0.000 NA
BRANCH  24  25
ATOM     25  C   UNL     1      43.449   4.823  10.798  0.00  0.00    +0.000 C 
BRANCH  25  26
ATOM     26  C   UNL     1      43.147   6.067  11.652  0.00  0.00    +0.000 C 
BRANCH  26  27
ATOM     27  O   UNL     1      41.744   6.321  11.693  0.00  0.00    +0.000 OA
ATOM     28  H   UNL     1      41.431   6.042  12.569  0.00  0.00    +0.000 HD
ENDBRANCH  26  27
ENDBRANCH  25  26
ENDBRANCH  24  25
BRANCH  24  29
ATOM     29  C   UNL     1      45.028   4.753   8.947  0.00  0.00    +0.000 C 
BRANCH  29  30
ATOM     30  C   UNL     1      45.730   3.564   8.333  0.00  0.00    +0.000 A 
ATOM     31  C   UNL     1      45.438   2.265   8.759  0.00  0.00    +0.000 A 
ATOM     32  C   UNL     1      46.144   1.211   8.202  0.00  0.00    +0.000 A 
ATOM     33  N   UNL     1      47.098   1.361   7.259  0.00  0.00    +0.000 NA
ATOM     34  C   UNL     1      47.355   2.623   6.853  0.00  0.00    +0.000 A 
ATOM     35  C   UNL     1      46.703   3.741   7.346  0.00  0.00    +0.000 A 
ENDBRANCH  29  30
ENDBRANCH  24  29
ENDBRANCH  23  24
ENDBRANCH   5  23
TORSDOF 10
ENDMDL
MODEL 7
REMARK VINA RESULT:    -7.154      1.761      2.283
REMARK INTER + INTRA:         -12.298
REMARK INTER:                 -10.745
REMARK INTRA:                  -1.553
REMARK UNBOUND:                -1.171
REMARK  Name = 
REMARK  10 active torsions:
REMARK  status: ('A' for Active; 'I' for Inactive)
REMARK    1  A    between atoms: C_2  and  C_23
REMARK    2  A    between atoms: N_3  and  C_4
REMARK    3  A    between atoms: C_4  and  C_5
REMARK    4  A    between atoms: C_9  and  C_10
REMARK    5  A    between atoms: C_10  and  N_11
REMARK    6  A    between atoms: N_11  and  C_12
REMARK    7  A    between atoms: N_11  and  C_15
REMARK    8  A    between atoms: C_12  and  C_13
REMARK    9  A    between atoms: C_13  and  O_14
REMARK   10  A    between atoms: C_15  and  C_16
REMARK                            x       y       z     vdW  Elec       q    Type
REMARK                         _______ _______ _______ _____ _____    ______ ____
ROOT
ATOM      1  C   UNL     1      48.810   7.763  14.468  0.00  0.00    +0.000 A 
ATOM      2  C   UNL     1      49.891   7.730  13.578  0.00  0.00    +0.000 A 
ATOM      3  C   UNL     1      49.674   7.589  12.207  0.00  0.00    +0.000 A 
ATOM      4  C   UNL     1      48.381   7.415  11.720  0.00  0.00    +0.000 A 
ATOM      5  C   UNL     1      47.299   7.336  12.606  0.00  0.00    +0.000 A 
ATOM      6  C   UNL     1      47.516   7.552  13.973  0.00  0.00    +0.000 A 
ENDROOT
BRANCH   1   7
ATOM      7  C   UNL     1      49.029   7.957  15.943  0.00  0.00    +0.000 C 
BRANCH   7  10
ATOM      8  O   UNL     1      48.663   5.782  17.692  0.00  0.00    +0.000 OA
ATOM      9  C   UNL     1      49.780   5.997  17.237  0.00  0.00    +0.000 C 
ATOM     10  N   UNL     1      50.055   7.074  16.435  0.00  0.00    +0.000 N 
ATOM     11  H   UNL     1      50.938   7.107  15.936  0.00  0.00    +0.000 HD
BRANCH   9  12
ATOM     12  C   UNL     1      50.918   5.131  17.563  0.00  0.00    +0.000 A 
ATOM     13  C   UNL     1      52.074   5.691  18.092  0.00  0.00    +0.000 A 
ATOM     14  S   UNL     1      53.296   4.551  18.432  0.00  0.00    +0.000 S 
ATOM     15  C   UNL     1      52.305   3.263  17.922  0.00  0.00    +0.000 A 
ATOM     16  N   UNL     1      52.742   1.978  17.999  0.00  0.00    +0.000 NA
ATOM     17  C   UNL     1      51.875   1.095  17.622  0.00  0.00    +0.000 A 
ATOM     18  N   UNL     1      50.618   1.384  17.163  0.00  0.00    +0.000 N 
ATOM     19  C   UNL     1      50.163   2.671  16.994  0.00  0.00    +0.000 A 
ATOM     20  O   UNL     1      49.089   2.897  16.448  0.00  0.00    +0.000 OA
ATOM     21  C   UNL     1      51.075   3.696  17.464  0.00  0.00    +0.000 A 
ATOM     22  H   UNL     1      50.004   0.651  16.842  0.00  0.00    +0.000 HD
ENDBRANCH   9  12
ENDBRANCH   7  10
ENDBRANCH   1   7
BRANCH   5  23
ATOM     23  C   UNL     1      45.926   6.936  12.109  0.00  0.00    +0.000 C 
BRANCH  23  24
ATOM     24  N   UNL     1      45.809   5.478  11.832  0.00  0.00    +0.000 NA
BRANCH  24  25
ATOM     25  C   UNL     1      45.501   4.734  13.079  0.00  0.00    +0.000 C 
BRANCH  25  26
ATOM     26  C   UNL     1      46.618   3.796  13.569  0.00  0.00    +0.000 C 
BRANCH  26  27
ATOM     27  O   UNL     1      46.860   3.987  14.962  0.00  0.00    +0.000 OA
ATOM     28  H   UNL     1      46.221   4.651  15.272  0.00  0.00    +0.000 HD
ENDBRANCH  26  27
ENDBRANCH  25  26
ENDBRANCH  24  25
BRANCH  24  29
ATOM     29  C   UNL     1      44.765   5.238  10.814  0.00  0.00    +0.000 C 
BRANCH  29  30
ATOM     30  C   UNL     1      45.164   4.228   9.764  0.00  0.00    +0.000 A 
ATOM     31  C   UNL     1      45.791   4.634   8.583  0.00  0.00    +0.000 A 
ATOM     32  C   UNL     1      46.092   3.675   7.629  0.00  0.00    +0.000 A 
ATOM     33  N   UNL     1      45.823   2.361   7.775  0.00  0.00    +0.000 NA
ATOM     34  C   UNL     1      45.228   1.988   8.928  0.00  0.00    +0.000 A 
ATOM     35  C   UNL     1      44.890   2.868   9.942  0.00  0.00    +0.000 A 
ENDBRANCH  29  30
ENDBRANCH  24  29
ENDBRANCH  23  24
ENDBRANCH   5  23
TORSDOF 10
ENDMDL
MODEL 8
REMARK VINA RESULT:    -6.915      5.014      6.390
REMARK INTER + INTRA:         -11.926
REMARK INTER:                 -10.708
REMARK INTRA:                  -1.218
REMARK UNBOUND:                -1.171
REMARK  Name = 
REMARK  10 active torsions:
REMARK  status: ('A' for Active; 'I' for Inactive)
REMARK    1  A    between atoms: C_2  and  C_23
REMARK    2  A    between atoms: N_3  and  C_4
REMARK    3  A    between atoms: C_4  and  C_5
REMARK    4  A    between atoms: C_9  and  C_10
REMARK    5  A    between atoms: C_10  and  N_11
REMARK    6  A    between atoms: N_11  and  C_12
REMARK    7  A    between atoms: N_11  and  C_15
REMARK    8  A    between atoms: C_12  and  C_13
REMARK    9  A    between atoms: C_13  and  O_14
REMARK   10  A    between atoms: C_15  and  C_16
REMARK                            x       y       z     vdW  Elec       q    Type
REMARK                         _______ _______ _______ _____ _____    ______ ____
ROOT
ATOM      1  C   UNL     1      47.653   7.429  12.172  0.00  0.00    +0.000 A 
ATOM      2  C   UNL     1      47.211   8.729  12.449  0.00  0.00    +0.000 A 
ATOM      3  C   UNL     1      45.853   9.042  12.386  0.00  0.00    +0.000 A 
ATOM      4  C   UNL     1      44.933   8.077  11.985  0.00  0.00    +0.000 A 
ATOM      5  C   UNL     1      45.370   6.803  11.599  0.00  0.00    +0.000 A 
ATOM      6  C   UNL     1      46.725   6.475  11.736  0.00  0.00    +0.000 A 
ENDROOT
BRANCH   1   7
ATOM      7  C   UNL     1      49.110   7.069  12.278  0.00  0.00    +0.000 C 
BRANCH   7  10
ATOM      8  O   UNL     1      50.940   9.051  13.085  0.00  0.00    +0.000 OA
ATOM      9  C   UNL     1      50.826   8.797  11.891  0.00  0.00    +0.000 C 
ATOM     10  N   UNL     1      49.911   7.896  11.412  0.00  0.00    +0.000 N 
ATOM     11  H   UNL     1      49.980   7.585  10.449  0.00  0.00    +0.000 HD
BRANCH   9  12
ATOM     12  C   UNL     1      51.640   9.484  10.883  0.00  0.00    +0.000 A 
ATOM     13  C   UNL     1      51.618  10.870  10.814  0.00  0.00    +0.000 A 
ATOM     14  S   UNL     1      52.630  11.515   9.601  0.00  0.00    +0.000 S 
ATOM     15  C   UNL     1      53.167   9.961   9.155  0.00  0.00    +0.000 A 
ATOM     16  N   UNL     1      54.102   9.803   8.182  0.00  0.00    +0.000 NA
ATOM     17  C   UNL     1      54.455   8.576   7.973  0.00  0.00    +0.000 A 
ATOM     18  N   UNL     1      53.943   7.495   8.639  0.00  0.00    +0.000 N 
ATOM     19  C   UNL     1      52.941   7.601   9.575  0.00  0.00    +0.000 A 
ATOM     20  O   UNL     1      52.407   6.603  10.048  0.00  0.00    +0.000 OA
ATOM     21  C   UNL     1      52.557   8.963   9.892  0.00  0.00    +0.000 A 
ATOM     22  H   UNL     1      54.228   6.558   8.398  0.00  0.00    +0.000 HD
ENDBRANCH   9  12
ENDBRANCH   7  10
ENDBRANCH   1   7
BRANCH   5  23
ATOM     23  C   UNL     1      44.411   5.821  10.962  0.00  0.00    +0.000 C 
BRANCH  23  24
ATOM     24  N   UNL     1      45.061   4.539  10.576  0.00  0.00    +0.000 NA
BRANCH  24  25
ATOM     25  C   UNL     1      44.857   3.514  11.630  0.00  0.00    +0.000 C 
BRANCH  25  26
ATOM     26  C   UNL     1      43.387   3.172  11.928  0.00  0.00    +0.000 C 
BRANCH  26  27
ATOM     27  O   UNL     1      43.131   1.792  11.673  0.00  0.00    +0.000 OA
ATOM     28  H   UNL     1      43.977   1.324  11.769  0.00  0.00    +0.000 HD
ENDBRANCH  26  27
ENDBRANCH  25  26
ENDBRANCH  24  25
BRANCH  24  29
ATOM     29  C   UNL     1      44.524   4.067   9.283  0.00  0.00    +0.000 C 
BRANCH  29  30
ATOM     30  C   UNL     1      45.493   3.213   8.499  0.00  0.00    +0.000 A 
ATOM     31  C   UNL     1      46.360   3.789   7.566  0.00  0.00    +0.000 A 
ATOM     32  C   UNL     1      47.195   2.959   6.837  0.00  0.00    +0.000 A 
ATOM     33  N   UNL     1      47.230   1.617   6.979  0.00  0.00    +0.000 NA
ATOM     34  C   UNL     1      46.395   1.082   7.894  0.00  0.00    +0.000 A 
ATOM     35  C   UNL     1      45.525   1.827   8.674  0.00  0.00    +0.000 A 
ENDBRANCH  29  30
ENDBRANCH  24  29
ENDBRANCH  23  24
ENDBRANCH   5  23
TORSDOF 10
ENDMDL
MODEL 9
REMARK VINA RESULT:    -6.880      3.727      8.501
REMARK INTER + INTRA:         -11.873
REMARK INTER:                 -10.096
REMARK INTRA:                  -1.776
REMARK UNBOUND:                -1.171
REMARK  Name = 
REMARK  10 active torsions:
REMARK  status: ('A' for Active; 'I' for Inactive)
REMARK    1  A    between atoms: C_2  and  C_23
REMARK    2  A    between atoms: N_3  and  C_4
REMARK    3  A    between atoms: C_4  and  C_5
REMARK    4  A    between atoms: C_9  and  C_10
REMARK    5  A    between atoms: C_10  and  N_11
REMARK    6  A    between atoms: N_11  and  C_12
REMARK    7  A    between atoms: N_11  and  C_15
REMARK    8  A    between atoms: C_12  and  C_13
REMARK    9  A    between atoms: C_13  and  O_14
REMARK   10  A    between atoms: C_15  and  C_16
REMARK                            x       y       z     vdW  Elec       q    Type
REMARK                         _______ _______ _______ _____ _____    ______ ____
ROOT
ATOM      1  C   UNL     1      48.632   3.548  17.098  0.00  0.00    +0.000 A 
ATOM      2  C   UNL     1      49.506   2.457  17.003  0.00  0.00    +0.000 A 
ATOM      3  C   UNL     1      50.853   2.599  17.337  0.00  0.00    +0.000 A 
ATOM      4  C   UNL     1      51.351   3.846  17.706  0.00  0.00    +0.000 A 
ATOM      5  C   UNL     1      50.515   4.970  17.701  0.00  0.00    +0.000 A 
ATOM      6  C   UNL     1      49.149   4.805  17.436  0.00  0.00    +0.000 A 
ENDROOT
BRANCH   1   7
ATOM      7  C   UNL     1      47.169   3.396  16.782  0.00  0.00    +0.000 C 
BRANCH   7  10
ATOM      8  O   UNL     1      47.239   3.119  13.982  0.00  0.00    +0.000 OA
ATOM      9  C   UNL     1      46.755   4.135  14.467  0.00  0.00    +0.000 C 
ATOM     10  N   UNL     1      46.745   4.376  15.816  0.00  0.00    +0.000 N 
ATOM     11  H   UNL     1      46.174   5.132  16.179  0.00  0.00    +0.000 HD
BRANCH   9  12
ATOM     12  C   UNL     1      46.190   5.192  13.621  0.00  0.00    +0.000 A 
ATOM     13  C   UNL     1      46.934   6.336  13.368  0.00  0.00    +0.000 A 
ATOM     14  S   UNL     1      46.145   7.459  12.355  0.00  0.00    +0.000 S 
ATOM     15  C   UNL     1      44.797   6.432  12.185  0.00  0.00    +0.000 A 
ATOM     16  N   UNL     1      43.752   6.784  11.389  0.00  0.00    +0.000 NA
ATOM     17  C   UNL     1      42.815   5.896  11.312  0.00  0.00    +0.000 A 
ATOM     18  N   UNL     1      42.824   4.696  11.972  0.00  0.00    +0.000 N 
ATOM     19  C   UNL     1      43.821   4.333  12.847  0.00  0.00    +0.000 A 
ATOM     20  O   UNL     1      43.728   3.318  13.529  0.00  0.00    +0.000 OA
ATOM     21  C   UNL     1      44.927   5.268  12.918  0.00  0.00    +0.000 A 
ATOM     22  H   UNL     1      42.041   4.064  11.905  0.00  0.00    +0.000 HD
ENDBRANCH   9  12
ENDBRANCH   7  10
ENDBRANCH   1   7
BRANCH   5  23
ATOM     23  C   UNL     1      51.090   6.358  17.890  0.00  0.00    +0.000 C 
BRANCH  23  24
ATOM     24  N   UNL     1      50.110   7.439  17.596  0.00  0.00    +0.000 NA
BRANCH  24  25
ATOM     25  C   UNL     1      49.492   7.938  18.850  0.00  0.00    +0.000 C 
BRANCH  25  26
ATOM     26  C   UNL     1      48.071   8.506  18.693  0.00  0.00    +0.000 C 
BRANCH  26  27
ATOM     27  O   UNL     1      47.109   7.454  18.673  0.00  0.00    +0.000 OA
ATOM     28  H   UNL     1      46.632   7.521  17.829  0.00  0.00    +0.000 HD
ENDBRANCH  26  27
ENDBRANCH  25  26
ENDBRANCH  24  25
BRANCH  24  29
ATOM     29  C   UNL     1      50.776   8.542  16.871  0.00  0.00    +0.000 C 
BRANCH  29  30
ATOM     30  C   UNL     1      50.249   8.750  15.470  0.00  0.00    +0.000 A 
ATOM     31  C   UNL     1      50.626   7.895  14.431  0.00  0.00    +0.000 A 
ATOM     32  C   UNL     1      50.157   8.157  13.154  0.00  0.00    +0.000 A 
ATOM     33  N   UNL     1      49.343   9.191  12.851  0.00  0.00    +0.000 NA
ATOM     34  C   UNL     1      48.981   9.997  13.871  0.00  0.00    +0.000 A 
ATOM     35  C   UNL     1      49.395   9.818  15.181  0.00  0.00    +0.000 A 
ENDBRANCH  29  30
ENDBRANCH  24  29
ENDBRANCH  23  24
ENDBRANCH   5  23
TORSDOF 10
ENDMDL
