MODEL 1
REMARK VINA RESULT:    -7.480      0.000      0.000
REMARK INTER + INTRA:         -11.218
REMARK INTER:                 -10.103
REMARK INTRA:                  -1.115
REMARK UNBOUND:                -1.115
REMARK  Name = 
REMARK  8 active torsions:
REMARK  status: ('A' for Active; 'I' for Inactive)
REMARK    1  A    between atoms: C_1  and  C_2
REMARK    2  A    between atoms: C_5  and  O_6
REMARK    3  A    between atoms: O_6  and  C_7
REMARK    4  A    between atoms: C_7  and  C_8
REMARK    5  A    between atoms: C_11  and  C_12
REMARK    6  A    between atoms: C_12  and  N_13
REMARK    7  A    between atoms: C_14  and  C_16
REMARK    8  A    between atoms: C_28  and  C_29
REMARK                            x       y       z     vdW  Elec       q    Type
REMARK                         _______ _______ _______ _____ _____    ______ ____
ROOT
ATOM      1  C   UNL     1      44.879   4.561  12.291  0.00  0.00    +0.000 A 
ATOM      2  C   UNL     1      44.765   5.955  12.204  0.00  0.00    +0.000 A 
ATOM      3  C   UNL     1      45.767   6.789  12.718  0.00  0.00    +0.000 A 
ATOM      4  C   UNL     1      46.915   6.245  13.309  0.00  0.00    +0.000 A 
ATOM      5  C   UNL     1      47.022   4.851  13.406  0.00  0.00    +0.000 A 
ATOM      6  C   UNL     1      46.023   4.018  12.892  0.00  0.00    +0.000 A 
ENDROOT
BRANCH   1   7
ATOM      7  C   UNL     1      43.805   3.660  11.726  0.00  0.00    +0.000 C 
BRANCH   7   8
ATOM      8  O   UNL     1      43.715   3.877  10.318  0.00  0.00    +0.000 OA
BRANCH   8  13
ATOM      9  C   UNL     1      47.465   1.413   6.914  0.00  0.00    +0.000 C 
ATOM     10  C   UNL     1      46.426   2.004   7.821  0.00  0.00    +0.000 A 
ATOM     11  C   UNL     1      45.480   1.206   8.450  0.00  0.00    +0.000 A 
ATOM     12  C   UNL     1      44.547   1.804   9.300  0.00  0.00    +0.000 A 
ATOM     13  C   UNL     1      44.571   3.183   9.506  0.00  0.00    +0.000 A 
ATOM     14  C   UNL     1      45.551   3.916   8.825  0.00  0.00    +0.000 A 
ATOM     15  C   UNL     1      45.670   5.407   8.956  0.00  0.00    +0.000 C 
ATOM     16  N   UNL     1      46.468   3.341   7.997  0.00  0.00    +0.000 NA
ENDBRANCH   8  13
ENDBRANCH   7   8
ENDBRANCH   1   7
BRANCH   4  17
ATOM     17  C   UNL     1      48.006   7.131  13.857  0.00  0.00    +0.000 C 
BRANCH  17  18
ATOM     18  N   UNL     1      47.963   7.184  15.297  0.00  0.00    +0.000 N 
ATOM     19  C   UNL     1      48.999   6.715  16.065  0.00  0.00    +0.000 C 
ATOM     20  O   UNL     1      50.025   6.259  15.572  0.00  0.00    +0.000 OA
ATOM     21  H   UNL     1      47.050   7.313  15.721  0.00  0.00    +0.000 HD
BRANCH  19  22
ATOM     22  C   UNL     1      48.840   6.848  17.520  0.00  0.00    +0.000 A 
ATOM     23  C   UNL     1      48.797   8.110  18.099  0.00  0.00    +0.000 A 
ATOM     24  S   UNL     1      48.553   8.080  19.787  0.00  0.00    +0.000 S 
ATOM     25  C   UNL     1      48.551   6.378  19.813  0.00  0.00    +0.000 A 
ATOM     26  N   UNL     1      48.413   5.694  20.980  0.00  0.00    +0.000 NA
ATOM     27  C   UNL     1      48.461   4.409  20.856  0.00  0.00    +0.000 A 
ATOM     28  N   UNL     1      48.630   3.747  19.668  0.00  0.00    +0.000 N 
ATOM     29  C   UNL     1      48.738   4.394  18.460  0.00  0.00    +0.000 A 
ATOM     30  O   UNL     1      48.831   3.767  17.412  0.00  0.00    +0.000 OA
ATOM     31  C   UNL     1      48.710   5.841  18.547  0.00  0.00    +0.000 A 
ATOM     32  H   UNL     1      48.646   2.738  19.636  0.00  0.00    +0.000 HD
ENDBRANCH  19  22
ENDBRANCH  17  18
ENDBRANCH   4  17
TORSDOF 6
ENDMDL
MODEL 2
REMARK VINA RESULT:    -7.443      3.637      8.662
REMARK INTER + INTRA:         -11.169
REMARK INTER:                  -9.947
REMARK INTRA:                  -1.222
REMARK UNBOUND:                -1.115
REMARK  Name = 
REMARK  8 active torsions:
REMARK  status: ('A' for Active; 'I' for Inactive)
REMARK    1  A    between atoms: C_1  and  C_2
REMARK    2  A    between atoms: C_5  and  O_6
REMARK    3  A    between atoms: O_6  and  C_7
REMARK    4  A    between atoms: C_7  and  C_8
REMARK    5  A    between atoms: C_11  and  C_12
REMARK    6  A    between atoms: C_12  and  N_13
REMARK    7  A    between atoms: C_14  and  C_16
REMARK    8  A    between atoms: C_28  and  C_29
REMARK                            x       y       z     vdW  Elec       q    Type
REMARK                         _______ _______ _______ _____ _____    ______ ____
ROOT
ATOM      1  C   UNL     1      49.878   6.648  16.210  0.00  0.00    +0.000 A 
ATOM      2  C   UNL     1      48.641   6.187  15.740  0.00  0.00    +0.000 A 
ATOM      3  C   UNL     1      48.174   6.556  14.472  0.00  0.00    +0.000 A 
ATOM      4  C   UNL     1      48.945   7.377  13.638  0.00  0.00    +0.000 A 
ATOM      5  C   UNL     1      50.176   7.847  14.114  0.00  0.00    +0.000 A 
ATOM      6  C   UNL     1      50.643   7.478  15.380  0.00  0.00    +0.000 A 
ENDROOT
BRANCH   1   7
ATOM      7  C   UNL     1      50.389   6.241  17.574  0.00  0.00    +0.000 C 
BRANCH   7   8
ATOM      8  O   UNL     1      49.879   4.946  17.888  0.00  0.00    +0.000 OA
BRANCH   8  13
ATOM      9  C   UNL     1      53.122   0.359  17.495  0.00  0.00    +0.000 C 
ATOM     10  C   UNL     1      52.312   1.612  17.644  0.00  0.00    +0.000 A 
ATOM     11  C   UNL     1      52.865   2.769  18.177  0.00  0.00    +0.000 A 
ATOM     12  C   UNL     1      52.072   3.915  18.276  0.00  0.00    +0.000 A 
ATOM     13  C   UNL     1      50.746   3.887  17.846  0.00  0.00    +0.000 A 
ATOM     14  C   UNL     1      50.263   2.678  17.332  0.00  0.00    +0.000 A 
ATOM     15  C   UNL     1      48.850   2.520  16.850  0.00  0.00    +0.000 C 
ATOM     16  N   UNL     1      51.029   1.555  17.228  0.00  0.00    +0.000 NA
ENDBRANCH   8  13
ENDBRANCH   7   8
ENDBRANCH   1   7
BRANCH   4  17
ATOM     17  C   UNL     1      48.459   7.774  12.266  0.00  0.00    +0.000 C 
BRANCH  17  18
ATOM     18  N   UNL     1      47.688   6.718  11.659  0.00  0.00    +0.000 N 
ATOM     19  C   UNL     1      46.336   6.839  11.458  0.00  0.00    +0.000 C 
ATOM     20  O   UNL     1      45.719   7.858  11.752  0.00  0.00    +0.000 OA
ATOM     21  H   UNL     1      48.111   5.796  11.643  0.00  0.00    +0.000 HD
BRANCH  19  22
ATOM     22  C   UNL     1      45.673   5.700  10.808  0.00  0.00    +0.000 A 
ATOM     23  C   UNL     1      45.770   5.535   9.433  0.00  0.00    +0.000 A 
ATOM     24  S   UNL     1      44.987   4.133   8.855  0.00  0.00    +0.000 S 
ATOM     25  C   UNL     1      44.443   3.727  10.415  0.00  0.00    +0.000 A 
ATOM     26  N   UNL     1      43.672   2.626  10.625  0.00  0.00    +0.000 NA
ATOM     27  C   UNL     1      43.304   2.456  11.852  0.00  0.00    +0.000 A 
ATOM     28  N   UNL     1      43.644   3.285  12.889  0.00  0.00    +0.000 N 
ATOM     29  C   UNL     1      44.450   4.387  12.732  0.00  0.00    +0.000 A 
ATOM     30  O   UNL     1      44.778   5.073  13.692  0.00  0.00    +0.000 OA
ATOM     31  C   UNL     1      44.874   4.635  11.367  0.00  0.00    +0.000 A 
ATOM     32  H   UNL     1      43.335   3.090  13.830  0.00  0.00    +0.000 HD
ENDBRANCH  19  22
ENDBRANCH  17  18
ENDBRANCH   4  17
TORSDOF 6
ENDMDL
MODEL 3
REMARK VINA RESULT:    -7.129      1.796      2.624
REMARK INTER + INTRA:         -10.745
REMARK INTER:                  -9.924
REMARK INTRA:                  -0.821
REMARK UNBOUND:                -1.115
REMARK  Name = 
REMARK  8 active torsions:
REMARK  status: ('A' for Active; 'I' for Inactive)
REMARK    1  A    between atoms: C_1  and  C_2
REMARK    2  A    between atoms: C_5  and  O_6
REMARK    3  A    between atoms: O_6  and  C_7
REMARK    4  A    between atoms: C_7  and  C_8
REMARK    5  A    between atoms: C_11  and  C_12
REMARK    6  A    between atoms: C_12  and  N_13
REMARK    7  A    between atoms: C_14  and  C_16
REMARK    8  A    between atoms: C_28  and  C_29
REMARK                            x       y       z     vdW  Elec       q    Type
REMARK                         _______ _______ _______ _____ _____    ______ ____
ROOT
ATOM      1  C   UNL     1      44.584   7.175  11.564  0.00  0.00    +0.000 A 
ATOM      2  C   UNL     1      45.472   6.296  12.200  0.00  0.00    +0.000 A 
ATOM      3  C   UNL     1      46.480   6.782  13.043  0.00  0.00    +0.000 A 
ATOM      4  C   UNL     1      46.608   8.156  13.284  0.00  0.00    +0.000 A 
ATOM      5  C   UNL     1      45.728   9.035  12.638  0.00  0.00    +0.000 A 
ATOM      6  C   UNL     1      44.720   8.550  11.798  0.00  0.00    +0.000 A 
ENDROOT
BRANCH   1   7
ATOM      7  C   UNL     1      43.488   6.651  10.665  0.00  0.00    +0.000 C 
BRANCH   7   8
ATOM      8  O   UNL     1      43.331   5.252  10.897  0.00  0.00    +0.000 OA
BRANCH   8  13
ATOM      9  C   UNL     1      46.272   1.367   8.073  0.00  0.00    +0.000 C 
ATOM     10  C   UNL     1      45.521   2.455   8.782  0.00  0.00    +0.000 A 
ATOM     11  C   UNL     1      45.472   3.746   8.273  0.00  0.00    +0.000 A 
ATOM     12  C   UNL     1      44.743   4.719   8.961  0.00  0.00    +0.000 A 
ATOM     13  C   UNL     1      44.079   4.388  10.143  0.00  0.00    +0.000 A 
ATOM     14  C   UNL     1      44.188   3.067  10.592  0.00  0.00    +0.000 A 
ATOM     15  C   UNL     1      43.529   2.594  11.856  0.00  0.00    +0.000 C 
ATOM     16  N   UNL     1      44.894   2.111   9.926  0.00  0.00    +0.000 NA
ENDBRANCH   8  13
ENDBRANCH   7   8
ENDBRANCH   1   7
BRANCH   4  17
ATOM     17  C   UNL     1      47.683   8.692  14.197  0.00  0.00    +0.000 C 
BRANCH  17  18
ATOM     18  N   UNL     1      47.955   7.778  15.277  0.00  0.00    +0.000 N 
ATOM     19  C   UNL     1      49.145   7.101  15.363  0.00  0.00    +0.000 C 
ATOM     20  O   UNL     1      50.050   7.260  14.550  0.00  0.00    +0.000 OA
ATOM     21  H   UNL     1      47.155   7.443  15.803  0.00  0.00    +0.000 HD
BRANCH  19  22
ATOM     22  C   UNL     1      49.306   6.217  16.527  0.00  0.00    +0.000 A 
ATOM     23  C   UNL     1      50.264   6.506  17.489  0.00  0.00    +0.000 A 
ATOM     24  S   UNL     1      50.275   5.408  18.795  0.00  0.00    +0.000 S 
ATOM     25  C   UNL     1      49.038   4.475  18.093  0.00  0.00    +0.000 A 
ATOM     26  N   UNL     1      48.583   3.345  18.697  0.00  0.00    +0.000 NA
ATOM     27  C   UNL     1      47.666   2.717  18.038  0.00  0.00    +0.000 A 
ATOM     28  N   UNL     1      47.158   3.123  16.832  0.00  0.00    +0.000 N 
ATOM     29  C   UNL     1      47.560   4.276  16.201  0.00  0.00    +0.000 A 
ATOM     30  O   UNL     1      47.044   4.636  15.151  0.00  0.00    +0.000 OA
ATOM     31  C   UNL     1      48.606   5.008  16.891  0.00  0.00    +0.000 A 
ATOM     32  H   UNL     1      46.430   2.595  16.372  0.00  0.00    +0.000 HD
ENDBRANCH  19  22
ENDBRANCH  17  18
ENDBRANCH   4  17
TORSDOF 6
ENDMDL
MODEL 4
REMARK VINA RESULT:    -7.045      1.578      2.466
REMARK INTER + INTRA:         -10.631
REMARK INTER:                 -10.304
REMARK INTRA:                  -0.327
REMARK UNBOUND:                -1.115
REMARK  Name = 
REMARK  8 active torsions:
REMARK  status: ('A' for Active; 'I' for Inactive)
REMARK    1  A    between atoms: C_1  and  C_2
REMARK    2  A    between atoms: C_5  and  O_6
REMARK    3  A    between atoms: O_6  and  C_7
REMARK    4  A    between atoms: C_7  and  C_8
REMARK    5  A    between atoms: C_11  and  C_12
REMARK    6  A    between atoms: C_12  and  N_13
REMARK    7  A    between atoms: C_14  and  C_16
REMARK    8  A    between atoms: C_28  and  C_29
REMARK                            x       y       z     vdW  Elec       q    Type
REMARK                         _______ _______ _______ _____ _____    ______ ____
ROOT
ATOM      1  C   UNL     1      45.079   4.817  11.709  0.00  0.00    +0.000 A 
ATOM      2  C   UNL     1      45.522   6.095  11.339  0.00  0.00    +0.000 A 
ATOM      3  C   UNL     1      46.543   6.735  12.054  0.00  0.00    +0.000 A 
ATOM      4  C   UNL     1      47.158   6.100  13.141  0.00  0.00    +0.000 A 
ATOM      5  C   UNL     1      46.708   4.828  13.517  0.00  0.00    +0.000 A 
ATOM      6  C   UNL     1      45.689   4.189  12.803  0.00  0.00    +0.000 A 
ENDROOT
BRANCH   1   7
ATOM      7  C   UNL     1      43.986   4.121  10.931  0.00  0.00    +0.000 C 
BRANCH   7   8
ATOM      8  O   UNL     1      44.074   4.514   9.561  0.00  0.00    +0.000 OA
BRANCH   8  13
ATOM      9  C   UNL     1      47.932   1.791   6.494  0.00  0.00    +0.000 C 
ATOM     10  C   UNL     1      46.945   2.580   7.301  0.00  0.00    +0.000 A 
ATOM     11  C   UNL     1      46.961   3.969   7.302  0.00  0.00    +0.000 A 
ATOM     12  C   UNL     1      46.007   4.657   8.055  0.00  0.00    +0.000 A 
ATOM     13  C   UNL     1      45.058   3.951   8.794  0.00  0.00    +0.000 A 
ATOM     14  C   UNL     1      45.118   2.553   8.747  0.00  0.00    +0.000 A 
ATOM     15  C   UNL     1      44.159   1.684   9.509  0.00  0.00    +0.000 C 
ATOM     16  N   UNL     1      46.043   1.873   8.012  0.00  0.00    +0.000 NA
ENDBRANCH   8  13
ENDBRANCH   7   8
ENDBRANCH   1   7
BRANCH   4  17
ATOM     17  C   UNL     1      48.266   6.773  13.913  0.00  0.00    +0.000 C 
BRANCH  17  18
ATOM     18  N   UNL     1      48.058   6.657  15.334  0.00  0.00    +0.000 N 
ATOM     19  C   UNL     1      49.099   6.425  16.197  0.00  0.00    +0.000 C 
ATOM     20  O   UNL     1      50.261   6.338  15.813  0.00  0.00    +0.000 OA
ATOM     21  H   UNL     1      47.109   6.473  15.642  0.00  0.00    +0.000 HD
BRANCH  19  22
ATOM     22  C   UNL     1      48.756   6.351  17.624  0.00  0.00    +0.000 A 
ATOM     23  C   UNL     1      48.919   5.158  18.315  0.00  0.00    +0.000 A 
ATOM     24  S   UNL     1      48.524   5.266  19.971  0.00  0.00    +0.000 S 
ATOM     25  C   UNL     1      48.068   6.898  19.812  0.00  0.00    +0.000 A 
ATOM     26  N   UNL     1      47.594   7.600  20.876  0.00  0.00    +0.000 NA
ATOM     27  C   UNL     1      47.255   8.817  20.605  0.00  0.00    +0.000 A 
ATOM     28  N   UNL     1      47.356   9.397  19.367  0.00  0.00    +0.000 N 
ATOM     29  C   UNL     1      47.862   8.739  18.273  0.00  0.00    +0.000 A 
ATOM     30  O   UNL     1      47.989   9.307  17.195  0.00  0.00    +0.000 OA
ATOM     31  C   UNL     1      48.238   7.360  18.519  0.00  0.00    +0.000 A 
ATOM     32  H   UNL     1      47.086  10.360  19.223  0.00  0.00    +0.000 HD
ENDBRANCH  19  22
ENDBRANCH  17  18
ENDBRANCH   4  17
TORSDOF 6
ENDMDL
MODEL 5
REMARK VINA RESULT:    -6.876      2.842      8.976
REMARK INTER + INTRA:         -10.403
REMARK INTER:                  -9.146
REMARK INTRA:                  -1.257
REMARK UNBOUND:                -1.115
REMARK  Name = 
REMARK  8 active torsions:
REMARK  status: ('A' for Active; 'I' for Inactive)
REMARK    1  A    between atoms: C_1  and  C_2
REMARK    2  A    between atoms: C_5  and  O_6
REMARK    3  A    between atoms: O_6  and  C_7
REMARK    4  A    between atoms: C_7  and  C_8
REMARK    5  A    between atoms: C_11  and  C_12
REMARK    6  A    between atoms: C_12  and  N_13
REMARK    7  A    between atoms: C_14  and  C_16
REMARK    8  A    between atoms: C_28  and  C_29
REMARK                            x       y       z     vdW  Elec       q    Type
REMARK                         _______ _______ _______ _____ _____    ______ ____
ROOT
ATOM      1  C   UNL     1      49.845   8.095  16.145  0.00  0.00    +0.000 A 
ATOM      2  C   UNL     1      50.495   7.527  15.041  0.00  0.00    +0.000 A 
ATOM      3  C   UNL     1      49.857   7.451  13.796  0.00  0.00    +0.000 A 
ATOM      4  C   UNL     1      48.565   7.964  13.623  0.00  0.00    +0.000 A 
ATOM      5  C   UNL     1      47.912   8.521  14.730  0.00  0.00    +0.000 A 
ATOM      6  C   UNL     1      48.548   8.598  15.974  0.00  0.00    +0.000 A 
ENDROOT
BRANCH   1   7
ATOM      7  C   UNL     1      50.536   8.188  17.487  0.00  0.00    +0.000 C 
BRANCH   7   8
ATOM      8  O   UNL     1      49.999   7.188  18.352  0.00  0.00    +0.000 OA
BRANCH   8  13
ATOM      9  C   UNL     1      50.896   1.738  17.253  0.00  0.00    +0.000 C 
ATOM     10  C   UNL     1      50.731   3.195  17.566  0.00  0.00    +0.000 A 
ATOM     11  C   UNL     1      51.830   4.019  17.767  0.00  0.00    +0.000 A 
ATOM     12  C   UNL     1      51.622   5.374  18.037  0.00  0.00    +0.000 A 
ATOM     13  C   UNL     1      50.325   5.882  18.102  0.00  0.00    +0.000 A 
ATOM     14  C   UNL     1      49.272   4.983  17.898  0.00  0.00    +0.000 A 
ATOM     15  C   UNL     1      47.833   5.407  17.956  0.00  0.00    +0.000 C 
ATOM     16  N   UNL     1      49.465   3.660  17.631  0.00  0.00    +0.000 NA
ENDBRANCH   8  13
ENDBRANCH   7   8
ENDBRANCH   1   7
BRANCH   4  17
ATOM     17  C   UNL     1      47.871   7.899  12.285  0.00  0.00    +0.000 C 
BRANCH  17  18
ATOM     18  N   UNL     1      47.102   6.687  12.153  0.00  0.00    +0.000 N 
ATOM     19  C   UNL     1      45.799   6.706  11.723  0.00  0.00    +0.000 C 
ATOM     20  O   UNL     1      45.232   7.744  11.397  0.00  0.00    +0.000 OA
ATOM     21  H   UNL     1      47.449   5.871  12.645  0.00  0.00    +0.000 HD
BRANCH  19  22
ATOM     22  C   UNL     1      45.134   5.400  11.611  0.00  0.00    +0.000 A 
ATOM     23  C   UNL     1      44.478   4.860  12.708  0.00  0.00    +0.000 A 
ATOM     24  S   UNL     1      43.716   3.368  12.385  0.00  0.00    +0.000 S 
ATOM     25  C   UNL     1      44.284   3.363  10.781  0.00  0.00    +0.000 A 
ATOM     26  N   UNL     1      44.010   2.328   9.943  0.00  0.00    +0.000 NA
ATOM     27  C   UNL     1      44.530   2.441   8.765  0.00  0.00    +0.000 A 
ATOM     28  N   UNL     1      45.294   3.499   8.349  0.00  0.00    +0.000 N 
ATOM     29  C   UNL     1      45.568   4.583   9.148  0.00  0.00    +0.000 A 
ATOM     30  O   UNL     1      46.208   5.537   8.723  0.00  0.00    +0.000 OA
ATOM     31  C   UNL     1      45.023   4.497  10.489  0.00  0.00    +0.000 A 
ATOM     32  H   UNL     1      45.662   3.534   7.409  0.00  0.00    +0.000 HD
ENDBRANCH  19  22
ENDBRANCH  17  18
ENDBRANCH   4  17
TORSDOF 6
ENDMDL
MODEL 6
REMARK VINA RESULT:    -6.832      5.232      8.448
REMARK INTER + INTRA:         -10.343
REMARK INTER:                  -9.308
REMARK INTRA:                  -1.036
REMARK UNBOUND:                -1.115
REMARK  Name = 
REMARK  8 active torsions:
REMARK  status: ('A' for Active; 'I' for Inactive)
REMARK    1  A    between atoms: C_1  and  C_2
REMARK    2  A    between atoms: C_5  and  O_6
REMARK    3  A    between atoms: O_6  and  C_7
REMARK    4  A    between atoms: C_7  and  C_8
REMARK    5  A    between atoms: C_11  and  C_12
REMARK    6  A    between atoms: C_12  and  N_13
REMARK    7  A    between atoms: C_14  and  C_16
REMARK    8  A    between atoms: C_28  and  C_29
REMARK                            x       y       z     vdW  Elec       q    Type
REMARK                         _______ _______ _______ _____ _____    ______ ____
ROOT
ATOM      1  C   UNL     1      51.131   8.668  11.046  0.00  0.00    +0.000 A 
ATOM      2  C   UNL     1      50.493   7.441  11.277  0.00  0.00    +0.000 A 
ATOM      3  C   UNL     1      49.144   7.395  11.650  0.00  0.00    +0.000 A 
ATOM      4  C   UNL     1      48.398   8.574  11.778  0.00  0.00    +0.000 A 
ATOM      5  C   UNL     1      49.039   9.800  11.558  0.00  0.00    +0.000 A 
ATOM      6  C   UNL     1      50.386   9.847  11.184  0.00  0.00    +0.000 A 
ENDROOT
BRANCH   1   7
ATOM      7  C   UNL     1      52.584   8.719  10.631  0.00  0.00    +0.000 C 
BRANCH   7   8
ATOM      8  O   UNL     1      52.655   8.756   9.206  0.00  0.00    +0.000 OA
BRANCH   8  13
ATOM      9  C   UNL     1      54.049   4.255   6.121  0.00  0.00    +0.000 C 
ATOM     10  C   UNL     1      53.678   5.409   7.005  0.00  0.00    +0.000 A 
ATOM     11  C   UNL     1      53.763   5.315   8.387  0.00  0.00    +0.000 A 
ATOM     12  C   UNL     1      53.424   6.425   9.164  0.00  0.00    +0.000 A 
ATOM     13  C   UNL     1      53.005   7.606   8.551  0.00  0.00    +0.000 A 
ATOM     14  C   UNL     1      52.937   7.614   7.153  0.00  0.00    +0.000 A 
ATOM     15  C   UNL     1      52.489   8.820   6.379  0.00  0.00    +0.000 C 
ATOM     16  N   UNL     1      53.269   6.537   6.386  0.00  0.00    +0.000 NA
ENDBRANCH   8  13
ENDBRANCH   7   8
ENDBRANCH   1   7
BRANCH   4  17
ATOM     17  C   UNL     1      46.941   8.537  12.169  0.00  0.00    +0.000 C 
BRANCH  17  18
ATOM     18  N   UNL     1      46.400   7.207  12.049  0.00  0.00    +0.000 N 
ATOM     19  C   UNL     1      45.095   6.992  11.683  0.00  0.00    +0.000 C 
ATOM     20  O   UNL     1      44.332   7.912  11.406  0.00  0.00    +0.000 OA
ATOM     21  H   UNL     1      46.915   6.463  12.506  0.00  0.00    +0.000 HD
BRANCH  19  22
ATOM     22  C   UNL     1      44.675   5.588  11.574  0.00  0.00    +0.000 A 
ATOM     23  C   UNL     1      43.971   4.993  12.613  0.00  0.00    +0.000 A 
ATOM     24  S   UNL     1      43.516   3.379  12.296  0.00  0.00    +0.000 S 
ATOM     25  C   UNL     1      44.292   3.400  10.782  0.00  0.00    +0.000 A 
ATOM     26  N   UNL     1      44.309   2.296   9.987  0.00  0.00    +0.000 NA
ATOM     27  C   UNL     1      44.961   2.443   8.882  0.00  0.00    +0.000 A 
ATOM     28  N   UNL     1      45.592   3.597   8.497  0.00  0.00    +0.000 N 
ATOM     29  C   UNL     1      45.572   4.747   9.248  0.00  0.00    +0.000 A 
ATOM     30  O   UNL     1      46.100   5.776   8.846  0.00  0.00    +0.000 OA
ATOM     31  C   UNL     1      44.869   4.629  10.512  0.00  0.00    +0.000 A 
ATOM     32  H   UNL     1      46.075   3.652   7.611  0.00  0.00    +0.000 HD
ENDBRANCH  19  22
ENDBRANCH  17  18
ENDBRANCH   4  17
TORSDOF 6
ENDMDL
MODEL 7
REMARK VINA RESULT:    -6.664      3.648      5.058
REMARK INTER + INTRA:         -10.116
REMARK INTER:                  -9.162
REMARK INTRA:                  -0.953
REMARK UNBOUND:                -1.115
REMARK  Name = 
REMARK  8 active torsions:
REMARK  status: ('A' for Active; 'I' for Inactive)
REMARK    1  A    between atoms: C_1  and  C_2
REMARK    2  A    between atoms: C_5  and  O_6
REMARK    3  A    between atoms: O_6  and  C_7
REMARK    4  A    between atoms: C_7  and  C_8
REMARK    5  A    between atoms: C_11  and  C_12
REMARK    6  A    between atoms: C_12  and  N_13
REMARK    7  A    between atoms: C_14  and  C_16
REMARK    8  A    between atoms: C_28  and  C_29
REMARK                            x       y       z     vdW  Elec       q    Type
REMARK                         _______ _______ _______ _____ _____    ______ ____
ROOT
ATOM      1  C   UNL     1      47.437   5.671  14.406  0.00  0.00    +0.000 A 
ATOM      2  C   UNL     1      48.286   6.217  15.379  0.00  0.00    +0.000 A 
ATOM      3  C   UNL     1      48.579   5.510  16.552  0.00  0.00    +0.000 A 
ATOM      4  C   UNL     1      48.048   4.231  16.766  0.00  0.00    +0.000 A 
ATOM      5  C   UNL     1      47.191   3.691  15.799  0.00  0.00    +0.000 A 
ATOM      6  C   UNL     1      46.898   4.396  14.627  0.00  0.00    +0.000 A 
ENDROOT
BRANCH   1   7
ATOM      7  C   UNL     1      47.129   6.428  13.134  0.00  0.00    +0.000 C 
BRANCH   7   8
ATOM      8  O   UNL     1      45.784   6.149  12.746  0.00  0.00    +0.000 OA
BRANCH   8  13
ATOM      9  C   UNL     1      44.617   3.450   7.944  0.00  0.00    +0.000 C 
ATOM     10  C   UNL     1      44.985   4.204   9.187  0.00  0.00    +0.000 A 
ATOM     11  C   UNL     1      45.868   5.275   9.146  0.00  0.00    +0.000 A 
ATOM     12  C   UNL     1      46.163   5.956  10.329  0.00  0.00    +0.000 A 
ATOM     13  C   UNL     1      45.577   5.557  11.530  0.00  0.00    +0.000 A 
ATOM     14  C   UNL     1      44.707   4.461  11.487  0.00  0.00    +0.000 A 
ATOM     15  C   UNL     1      44.025   3.931  12.714  0.00  0.00    +0.000 C 
ATOM     16  N   UNL     1      44.410   3.793  10.336  0.00  0.00    +0.000 NA
ENDBRANCH   8  13
ENDBRANCH   7   8
ENDBRANCH   1   7
BRANCH   4  17
ATOM     17  C   UNL     1      48.364   3.454  18.020  0.00  0.00    +0.000 C 
BRANCH  17  18
ATOM     18  N   UNL     1      49.780   3.221  18.148  0.00  0.00    +0.000 N 
ATOM     19  C   UNL     1      50.438   2.330  17.337  0.00  0.00    +0.000 C 
ATOM     20  O   UNL     1      49.868   1.714  16.443  0.00  0.00    +0.000 OA
ATOM     21  H   UNL     1      50.213   3.513  19.018  0.00  0.00    +0.000 HD
BRANCH  19  22
ATOM     22  C   UNL     1      51.886   2.202  17.555  0.00  0.00    +0.000 A 
ATOM     23  C   UNL     1      52.462   0.943  17.659  0.00  0.00    +0.000 A 
ATOM     24  S   UNL     1      54.157   0.980  17.854  0.00  0.00    +0.000 S 
ATOM     25  C   UNL     1      54.174   2.681  17.864  0.00  0.00    +0.000 A 
ATOM     26  N   UNL     1      55.335   3.370  18.030  0.00  0.00    +0.000 NA
ATOM     27  C   UNL     1      55.197   4.655  18.050  0.00  0.00    +0.000 A 
ATOM     28  N   UNL     1      54.003   5.312  17.911  0.00  0.00    +0.000 N 
ATOM     29  C   UNL     1      52.811   4.661  17.704  0.00  0.00    +0.000 A 
ATOM     30  O   UNL     1      51.771   5.284  17.528  0.00  0.00    +0.000 OA
ATOM     31  C   UNL     1      52.908   3.214  17.695  0.00  0.00    +0.000 A 
ATOM     32  H   UNL     1      53.963   6.321  17.921  0.00  0.00    +0.000 HD
ENDBRANCH  19  22
ENDBRANCH  17  18
ENDBRANCH   4  17
TORSDOF 6
ENDMDL
MODEL 8
REMARK VINA RESULT:    -6.330      6.114      8.973
REMARK INTER + INTRA:          -9.665
REMARK INTER:                  -8.643
REMARK INTRA:                  -1.022
REMARK UNBOUND:                -1.115
REMARK  Name = 
REMARK  8 active torsions:
REMARK  status: ('A' for Active; 'I' for Inactive)
REMARK    1  A    between atoms: C_1  and  C_2
REMARK    2  A    between atoms: C_5  and  O_6
REMARK    3  A    between atoms: O_6  and  C_7
REMARK    4  A    between atoms: C_7  and  C_8
REMARK    5  A    between atoms: C_11  and  C_12
REMARK    6  A    between atoms: C_12  and  N_13
REMARK    7  A    between atoms: C_14  and  C_16
REMARK    8  A    between atoms: C_28  and  C_29
REMARK                            x       y       z     vdW  Elec       q    Type
REMARK                         _______ _______ _______ _____ _____    ______ ____
ROOT
ATOM      1  C   UNL     1      47.788   8.558  12.095  0.00  0.00    +0.000 A 
ATOM      2  C   UNL     1      48.655   7.473  11.905  0.00  0.00    +0.000 A 
ATOM      3  C   UNL     1      49.995   7.679  11.554  0.00  0.00    +0.000 A 
ATOM      4  C   UNL     1      50.503   8.977  11.408  0.00  0.00    +0.000 A 
ATOM      5  C   UNL     1      49.633  10.061  11.587  0.00  0.00    +0.000 A 
ATOM      6  C   UNL     1      48.295   9.855  11.939  0.00  0.00    +0.000 A 
ENDROOT
BRANCH   1   7
ATOM      7  C   UNL     1      46.345   8.337  12.486  0.00  0.00    +0.000 C 
BRANCH   7   8
ATOM      8  O   UNL     1      46.261   7.164  13.294  0.00  0.00    +0.000 OA
BRANCH   8  13
ATOM      9  C   UNL     1      43.314   2.626  11.733  0.00  0.00    +0.000 C 
ATOM     10  C   UNL     1      44.068   3.872  12.090  0.00  0.00    +0.000 A 
ATOM     11  C   UNL     1      43.754   5.095  11.513  0.00  0.00    +0.000 A 
ATOM     12  C   UNL     1      44.475   6.229  11.894  0.00  0.00    +0.000 A 
ATOM     13  C   UNL     1      45.494   6.124  12.840  0.00  0.00    +0.000 A 
ATOM     14  C   UNL     1      45.754   4.854  13.365  0.00  0.00    +0.000 A 
ATOM     15  C   UNL     1      46.834   4.612  14.380  0.00  0.00    +0.000 C 
ATOM     16  N   UNL     1      45.055   3.741  13.002  0.00  0.00    +0.000 NA
ENDBRANCH   8  13
ENDBRANCH   7   8
ENDBRANCH   1   7
BRANCH   4  17
ATOM     17  C   UNL     1      51.947   9.214  11.041  0.00  0.00    +0.000 C 
BRANCH  17  18
ATOM     18  N   UNL     1      52.268   8.617   9.769  0.00  0.00    +0.000 N 
ATOM     19  C   UNL     1      53.500   8.780   9.189  0.00  0.00    +0.000 C 
ATOM     20  O   UNL     1      54.402   9.410   9.732  0.00  0.00    +0.000 OA
ATOM     21  H   UNL     1      51.486   8.318   9.196  0.00  0.00    +0.000 HD
BRANCH  19  22
ATOM     22  C   UNL     1      53.707   8.099   7.902  0.00  0.00    +0.000 A 
ATOM     23  C   UNL     1      53.857   8.845   6.741  0.00  0.00    +0.000 A 
ATOM     24  S   UNL     1      54.142   7.897   5.351  0.00  0.00    +0.000 S 
ATOM     25  C   UNL     1      54.020   6.453   6.243  0.00  0.00    +0.000 A 
ATOM     26  N   UNL     1      54.138   5.242   5.637  0.00  0.00    +0.000 NA
ATOM     27  C   UNL     1      53.992   4.231   6.428  0.00  0.00    +0.000 A 
ATOM     28  N   UNL     1      53.744   4.324   7.772  0.00  0.00    +0.000 N 
ATOM     29  C   UNL     1      53.652   5.524   8.435  0.00  0.00    +0.000 A 
ATOM     30  O   UNL     1      53.486   5.567   9.647  0.00  0.00    +0.000 OA
ATOM     31  C   UNL     1      53.789   6.693   7.587  0.00  0.00    +0.000 A 
ATOM     32  H   UNL     1      53.653   3.493   8.340  0.00  0.00    +0.000 HD
ENDBRANCH  19  22
ENDBRANCH  17  18
ENDBRANCH   4  17
TORSDOF 6
ENDMDL
MODEL 9
REMARK VINA RESULT:    -5.945      3.968      6.015
REMARK INTER + INTRA:          -9.145
REMARK INTER:                  -7.857
REMARK INTRA:                  -1.288
REMARK UNBOUND:                -1.115
REMARK  Name = 
REMARK  8 active torsions:
REMARK  status: ('A' for Active; 'I' for Inactive)
REMARK    1  A    between atoms: C_1  and  C_2
REMARK    2  A    between atoms: C_5  and  O_6
REMARK    3  A    between atoms: O_6  and  C_7
REMARK    4  A    between atoms: C_7  and  C_8
REMARK    5  A    between atoms: C_11  and  C_12
REMARK    6  A    between atoms: C_12  and  N_13
REMARK    7  A    between atoms: C_14  and  C_16
REMARK    8  A    between atoms: C_28  and  C_29
REMARK                            x       y       z     vdW  Elec       q    Type
REMARK                         _______ _______ _______ _____ _____    ______ ____
ROOT
ATOM      1  C   UNL     1      47.540   4.291  15.606  0.00  0.00    +0.000 A 
ATOM      2  C   UNL     1      48.064   5.542  15.960  0.00  0.00    +0.000 A 
ATOM      3  C   UNL     1      48.734   5.720  17.177  0.00  0.00    +0.000 A 
ATOM      4  C   UNL     1      48.915   4.645  18.056  0.00  0.00    +0.000 A 
ATOM      5  C   UNL     1      48.381   3.397  17.708  0.00  0.00    +0.000 A 
ATOM      6  C   UNL     1      47.713   3.218  16.492  0.00  0.00    +0.000 A 
ENDROOT
BRANCH   1   7
ATOM      7  C   UNL     1      46.828   4.094  14.288  0.00  0.00    +0.000 C 
BRANCH   7   8
ATOM      8  O   UNL     1      47.370   5.004  13.331  0.00  0.00    +0.000 OA
BRANCH   8  13
ATOM      9  C   UNL     1      44.250   9.102  11.054  0.00  0.00    +0.000 C 
ATOM     10  C   UNL     1      45.017   7.968  11.666  0.00  0.00    +0.000 A 
ATOM     11  C   UNL     1      44.459   6.704  11.791  0.00  0.00    +0.000 A 
ATOM     12  C   UNL     1      45.223   5.677  12.350  0.00  0.00    +0.000 A 
ATOM     13  C   UNL     1      46.527   5.929  12.776  0.00  0.00    +0.000 A 
ATOM     14  C   UNL     1      47.011   7.233  12.624  0.00  0.00    +0.000 A 
ATOM     15  C   UNL     1      48.393   7.630  13.056  0.00  0.00    +0.000 C 
ATOM     16  N   UNL     1      46.274   8.241  12.077  0.00  0.00    +0.000 NA
ENDBRANCH   8  13
ENDBRANCH   7   8
ENDBRANCH   1   7
BRANCH   4  17
ATOM     17  C   UNL     1      49.644   4.821  19.366  0.00  0.00    +0.000 C 
BRANCH  17  18
ATOM     18  N   UNL     1      50.823   3.994  19.423  0.00  0.00    +0.000 N 
ATOM     19  C   UNL     1      52.022   4.416  18.906  0.00  0.00    +0.000 C 
ATOM     20  O   UNL     1      52.164   5.525  18.400  0.00  0.00    +0.000 OA
ATOM     21  H   UNL     1      50.678   3.005  19.597  0.00  0.00    +0.000 HD
BRANCH  19  22
ATOM     22  C   UNL     1      53.153   3.488  19.050  0.00  0.00    +0.000 A 
ATOM     23  C   UNL     1      54.278   3.873  19.765  0.00  0.00    +0.000 A 
ATOM     24  S   UNL     1      55.468   2.655  19.878  0.00  0.00    +0.000 S 
ATOM     25  C   UNL     1      54.544   1.588  18.926  0.00  0.00    +0.000 A 
ATOM     26  N   UNL     1      55.009   0.351  18.608  0.00  0.00    +0.000 NA
ATOM     27  C   UNL     1      54.220  -0.340  17.855  0.00  0.00    +0.000 A 
ATOM     28  N   UNL     1      53.003   0.093  17.396  0.00  0.00    +0.000 N 
ATOM     29  C   UNL     1      52.476   1.320  17.721  0.00  0.00    +0.000 A 
ATOM     30  O   UNL     1      51.361   1.652  17.338  0.00  0.00    +0.000 OA
ATOM     31  C   UNL     1      53.334   2.145  18.549  0.00  0.00    +0.000 A 
ATOM     32  H   UNL     1      52.425  -0.501  16.820  0.00  0.00    +0.000 HD
ENDBRANCH  19  22
ENDBRANCH  17  18
ENDBRANCH   4  17
TORSDOF 6
ENDMDL
