MODEL 1
REMARK VINA RESULT:    -8.120      0.000      0.000
REMARK INTER + INTRA:         -13.137
REMARK INTER:                 -11.918
REMARK INTRA:                  -1.220
REMARK UNBOUND:                -1.220
REMARK  Name = 
REMARK  9 active torsions:
REMARK  status: ('A' for Active; 'I' for Inactive)
REMARK    1  A    between atoms: C_1  and  O_2
REMARK    2  A    between atoms: O_2  and  C_3
REMARK    3  A    between atoms: C_5  and  C_6
REMARK    4  A    between atoms: C_6  and  N_7
REMARK    5  A    between atoms: N_7  and  C_8
REMARK    6  A    between atoms: C_8  and  C_9
REMARK    7  A    between atoms: C_17  and  C_18
REMARK    8  A    between atoms: C_18  and  N_19
REMARK    9  A    between atoms: C_20  and  C_22
REMARK                            x       y       z     vdW  Elec       q    Type
REMARK                         _______ _______ _______ _____ _____    ______ ____
ROOT
ATOM      1  C   UNL     1      45.119   7.755  12.089  0.00  0.00    +0.000 A 
ATOM      2  C   UNL     1      44.185   6.932  11.444  0.00  0.00    +0.000 A 
ATOM      3  C   UNL     1      44.449   5.573  11.224  0.00  0.00    +0.000 A 
ATOM      4  C   UNL     1      45.677   5.047  11.645  0.00  0.00    +0.000 A 
ATOM      5  C   UNL     1      46.613   5.859  12.289  0.00  0.00    +0.000 A 
ATOM      6  C   UNL     1      46.349   7.221  12.510  0.00  0.00    +0.000 A 
ENDROOT
BRANCH   1   8
ATOM      7  C   UNL     1      44.562   9.902  11.224  0.00  0.00    +0.000 C 
ATOM      8  O   UNL     1      44.929   9.090  12.331  0.00  0.00    +0.000 OA
ENDBRANCH   1   8
BRANCH   3   9
ATOM      9  C   UNL     1      43.416   4.683  10.570  0.00  0.00    +0.000 C 
BRANCH   9  10
ATOM     10  N   UNL     1      44.080   3.599   9.853  0.00  0.00    +0.000 NA
ATOM     11  H   UNL     1      43.418   2.833   9.732  0.00  0.00    +0.000 HD
BRANCH  10  12
ATOM     12  C   UNL     1      44.591   4.019   8.554  0.00  0.00    +0.000 C 
BRANCH  12  13
ATOM     13  C   UNL     1      45.629   3.055   8.067  0.00  0.00    +0.000 A 
ATOM     14  C   UNL     1      45.658   1.729   8.445  0.00  0.00    +0.000 A 
ATOM     15  N   UNL     1      46.599   0.853   8.034  0.00  0.00    +0.000 NA
ATOM     16  C   UNL     1      47.539   1.350   7.214  0.00  0.00    +0.000 A 
ATOM     17  N   UNL     1      47.615   2.613   6.772  0.00  0.00    +0.000 NA
ATOM     18  C   UNL     1      46.648   3.442   7.217  0.00  0.00    +0.000 A 
ENDBRANCH  12  13
ENDBRANCH  10  12
ENDBRANCH   9  10
ENDBRANCH   3   9
BRANCH   6  19
ATOM     19  C   UNL     1      47.355   8.065  13.257  0.00  0.00    +0.000 C 
BRANCH  19  20
ATOM     20  N   UNL     1      47.574   7.562  14.593  0.00  0.00    +0.000 N 
ATOM     21  C   UNL     1      48.771   6.999  14.957  0.00  0.00    +0.000 C 
ATOM     22  O   UNL     1      49.702   6.889  14.163  0.00  0.00    +0.000 OA
ATOM     23  H   UNL     1      46.950   7.911  15.316  0.00  0.00    +0.000 HD
BRANCH  21  24
ATOM     24  C   UNL     1      48.855   6.440  16.315  0.00  0.00    +0.000 A 
ATOM     25  C   UNL     1      49.565   7.109  17.303  0.00  0.00    +0.000 A 
ATOM     26  S   UNL     1      49.813   6.174  18.711  0.00  0.00    +0.000 S 
ATOM     27  C   UNL     1      48.931   4.872  18.063  0.00  0.00    +0.000 A 
ATOM     28  N   UNL     1      48.841   3.682  18.716  0.00  0.00    +0.000 NA
ATOM     29  C   UNL     1      48.104   2.803  18.120  0.00  0.00    +0.000 A 
ATOM     30  N   UNL     1      47.407   3.025  16.960  0.00  0.00    +0.000 N 
ATOM     31  C   UNL     1      47.431   4.228  16.297  0.00  0.00    +0.000 A 
ATOM     32  O   UNL     1      46.693   4.450  15.342  0.00  0.00    +0.000 OA
ATOM     33  C   UNL     1      48.353   5.198  16.851  0.00  0.00    +0.000 A 
ATOM     34  H   UNL     1      46.780   2.325  16.591  0.00  0.00    +0.000 HD
ENDBRANCH  21  24
ENDBRANCH  19  20
ENDBRANCH   6  19
TORSDOF 8
ENDMDL
MODEL 2
REMARK VINA RESULT:    -8.003      1.692      2.640
REMARK INTER + INTRA:         -12.966
REMARK INTER:                 -11.602
REMARK INTRA:                  -1.364
REMARK UNBOUND:                -1.220
REMARK  Name = 
REMARK  9 active torsions:
REMARK  status: ('A' for Active; 'I' for Inactive)
REMARK    1  A    between atoms: C_1  and  O_2
REMARK    2  A    between atoms: O_2  and  C_3
REMARK    3  A    between atoms: C_5  and  C_6
REMARK    4  A    between atoms: C_6  and  N_7
REMARK    5  A    between atoms: N_7  and  C_8
REMARK    6  A    between atoms: C_8  and  C_9
REMARK    7  A    between atoms: C_17  and  C_18
REMARK    8  A    between atoms: C_18  and  N_19
REMARK    9  A    between atoms: C_20  and  C_22
REMARK                            x       y       z     vdW  Elec       q    Type
REMARK                         _______ _______ _______ _____ _____    ______ ____
ROOT
ATOM      1  C   UNL     1      46.648   5.181  12.990  0.00  0.00    +0.000 A 
ATOM      2  C   UNL     1      45.549   4.557  12.382  0.00  0.00    +0.000 A 
ATOM      3  C   UNL     1      44.667   5.282  11.568  0.00  0.00    +0.000 A 
ATOM      4  C   UNL     1      44.890   6.652  11.382  0.00  0.00    +0.000 A 
ATOM      5  C   UNL     1      45.983   7.281  11.984  0.00  0.00    +0.000 A 
ATOM      6  C   UNL     1      46.868   6.555  12.799  0.00  0.00    +0.000 A 
ENDROOT
BRANCH   1   8
ATOM      7  C   UNL     1      47.041   3.976  15.006  0.00  0.00    +0.000 C 
ATOM      8  O   UNL     1      47.545   4.536  13.801  0.00  0.00    +0.000 OA
ENDBRANCH   1   8
BRANCH   3   9
ATOM      9  C   UNL     1      43.512   4.592  10.878  0.00  0.00    +0.000 C 
BRANCH   9  10
ATOM     10  N   UNL     1      44.016   3.533  10.010  0.00  0.00    +0.000 NA
ATOM     11  H   UNL     1      43.258   2.877   9.820  0.00  0.00    +0.000 HD
BRANCH  10  12
ATOM     12  C   UNL     1      44.549   4.047   8.753  0.00  0.00    +0.000 C 
BRANCH  12  13
ATOM     13  C   UNL     1      45.580   3.109   8.204  0.00  0.00    +0.000 A 
ATOM     14  C   UNL     1      46.547   3.501   7.304  0.00  0.00    +0.000 A 
ATOM     15  N   UNL     1      47.470   2.665   6.782  0.00  0.00    +0.000 NA
ATOM     16  C   UNL     1      47.396   1.388   7.193  0.00  0.00    +0.000 A 
ATOM     17  N   UNL     1      46.511   0.888   8.066  0.00  0.00    +0.000 NA
ATOM     18  C   UNL     1      45.614   1.771   8.553  0.00  0.00    +0.000 A 
ENDBRANCH  12  13
ENDBRANCH  10  12
ENDBRANCH   9  10
ENDBRANCH   3   9
BRANCH   6  19
ATOM     19  C   UNL     1      48.072   7.246  13.394  0.00  0.00    +0.000 C 
BRANCH  19  20
ATOM     20  N   UNL     1      47.979   7.320  14.834  0.00  0.00    +0.000 N 
ATOM     21  C   UNL     1      49.066   7.078  15.634  0.00  0.00    +0.000 C 
ATOM     22  O   UNL     1      50.162   6.781  15.164  0.00  0.00    +0.000 OA
ATOM     23  H   UNL     1      47.193   7.844  15.209  0.00  0.00    +0.000 HD
BRANCH  21  24
ATOM     24  C   UNL     1      48.837   7.093  17.087  0.00  0.00    +0.000 A 
ATOM     25  C   UNL     1      48.192   8.171  17.681  0.00  0.00    +0.000 A 
ATOM     26  S   UNL     1      48.289   8.162  19.387  0.00  0.00    +0.000 S 
ATOM     27  C   UNL     1      49.144   6.691  19.381  0.00  0.00    +0.000 A 
ATOM     28  N   UNL     1      49.643   6.157  20.528  0.00  0.00    +0.000 NA
ATOM     29  C   UNL     1      50.232   5.018  20.371  0.00  0.00    +0.000 A 
ATOM     30  N   UNL     1      50.319   4.340  19.182  0.00  0.00    +0.000 N 
ATOM     31  C   UNL     1      49.785   4.821  18.012  0.00  0.00    +0.000 A 
ATOM     32  O   UNL     1      49.751   4.138  16.993  0.00  0.00    +0.000 OA
ATOM     33  C   UNL     1      49.237   6.158  18.110  0.00  0.00    +0.000 A 
ATOM     34  H   UNL     1      50.717   3.413  19.143  0.00  0.00    +0.000 HD
ENDBRANCH  21  24
ENDBRANCH  19  20
ENDBRANCH   6  19
TORSDOF 8
ENDMDL
MODEL 3
REMARK VINA RESULT:    -7.754      1.524      1.802
REMARK INTER + INTRA:         -12.599
REMARK INTER:                 -11.544
REMARK INTRA:                  -1.055
REMARK UNBOUND:                -1.220
REMARK  Name = 
REMARK  9 active torsions:
REMARK  status: ('A' for Active; 'I' for Inactive)
REMARK    1  A    between atoms: C_1  and  O_2
REMARK    2  A    between atoms: O_2  and  C_3
REMARK    3  A    between atoms: C_5  and  C_6
REMARK    4  A    between atoms: C_6  and  N_7
REMARK    5  A    between atoms: N_7  and  C_8
REMARK    6  A    between atoms: C_8  and  C_9
REMARK    7  A    between atoms: C_17  and  C_18
REMARK    8  A    between atoms: C_18  and  N_19
REMARK    9  A    between atoms: C_20  and  C_22
REMARK                            x       y       z     vdW  Elec       q    Type
REMARK                         _______ _______ _______ _____ _____    ______ ____
ROOT
ATOM      1  C   UNL     1      46.150   6.476  12.226  0.00  0.00    +0.000 A 
ATOM      2  C   UNL     1      45.144   5.636  11.727  0.00  0.00    +0.000 A 
ATOM      3  C   UNL     1      45.046   4.300  12.143  0.00  0.00    +0.000 A 
ATOM      4  C   UNL     1      45.985   3.808  13.058  0.00  0.00    +0.000 A 
ATOM      5  C   UNL     1      46.989   4.638  13.560  0.00  0.00    +0.000 A 
ATOM      6  C   UNL     1      47.088   5.976  13.145  0.00  0.00    +0.000 A 
ENDROOT
BRANCH   1   8
ATOM      7  C   UNL     1      45.331   8.710  12.323  0.00  0.00    +0.000 C 
ATOM      8  O   UNL     1      46.307   7.787  11.859  0.00  0.00    +0.000 OA
ENDBRANCH   1   8
BRANCH   3   9
ATOM      9  C   UNL     1      43.930   3.415  11.636  0.00  0.00    +0.000 C 
BRANCH   9  10
ATOM     10  N   UNL     1      44.418   2.581  10.543  0.00  0.00    +0.000 NA
ATOM     11  H   UNL     1      43.819   1.759  10.466  0.00  0.00    +0.000 HD
BRANCH  10  12
ATOM     12  C   UNL     1      44.449   3.289   9.269  0.00  0.00    +0.000 C 
BRANCH  12  13
ATOM     13  C   UNL     1      45.534   2.739   8.395  0.00  0.00    +0.000 A 
ATOM     14  C   UNL     1      45.898   1.410   8.397  0.00  0.00    +0.000 A 
ATOM     15  N   UNL     1      46.888   0.902   7.633  0.00  0.00    +0.000 NA
ATOM     16  C   UNL     1      47.526   1.783   6.845  0.00  0.00    +0.000 A 
ATOM     17  N   UNL     1      47.260   3.093   6.748  0.00  0.00    +0.000 NA
ATOM     18  C   UNL     1      46.262   3.542   7.537  0.00  0.00    +0.000 A 
ENDBRANCH  12  13
ENDBRANCH  10  12
ENDBRANCH   9  10
ENDBRANCH   3   9
BRANCH   6  19
ATOM     19  C   UNL     1      48.150   6.868  13.744  0.00  0.00    +0.000 C 
BRANCH  19  20
ATOM     20  N   UNL     1      47.948   7.045  15.163  0.00  0.00    +0.000 N 
ATOM     21  C   UNL     1      48.916   6.699  16.071  0.00  0.00    +0.000 C 
ATOM     22  O   UNL     1      49.990   6.218  15.719  0.00  0.00    +0.000 OA
ATOM     23  H   UNL     1      47.221   7.700  15.438  0.00  0.00    +0.000 HD
BRANCH  21  24
ATOM     24  C   UNL     1      48.571   6.839  17.494  0.00  0.00    +0.000 A 
ATOM     25  C   UNL     1      48.391   8.100  18.049  0.00  0.00    +0.000 A 
ATOM     26  S   UNL     1      48.304   8.083  19.755  0.00  0.00    +0.000 S 
ATOM     27  C   UNL     1      48.446   6.389  19.797  0.00  0.00    +0.000 A 
ATOM     28  N   UNL     1      48.554   5.715  20.974  0.00  0.00    +0.000 NA
ATOM     29  C   UNL     1      48.614   4.431  20.847  0.00  0.00    +0.000 A 
ATOM     30  N   UNL     1      48.523   3.757  19.656  0.00  0.00    +0.000 N 
ATOM     31  C   UNL     1      48.364   4.397  18.451  0.00  0.00    +0.000 A 
ATOM     32  O   UNL     1      48.144   3.774  17.417  0.00  0.00    +0.000 OA
ATOM     33  C   UNL     1      48.430   5.842  18.528  0.00  0.00    +0.000 A 
ATOM     34  H   UNL     1      48.489   2.748  19.632  0.00  0.00    +0.000 HD
ENDBRANCH  21  24
ENDBRANCH  19  20
ENDBRANCH   6  19
TORSDOF 8
ENDMDL
MODEL 4
REMARK VINA RESULT:    -7.657      2.391      3.911
REMARK INTER + INTRA:         -12.457
REMARK INTER:                 -11.107
REMARK INTRA:                  -1.350
REMARK UNBOUND:                -1.220
REMARK  Name = 
REMARK  9 active torsions:
REMARK  status: ('A' for Active; 'I' for Inactive)
REMARK    1  A    between atoms: C_1  and  O_2
REMARK    2  A    between atoms: O_2  and  C_3
REMARK    3  A    between atoms: C_5  and  C_6
REMARK    4  A    between atoms: C_6  and  N_7
REMARK    5  A    between atoms: N_7  and  C_8
REMARK    6  A    between atoms: C_8  and  C_9
REMARK    7  A    between atoms: C_17  and  C_18
REMARK    8  A    between atoms: C_18  and  N_19
REMARK    9  A    between atoms: C_20  and  C_22
REMARK                            x       y       z     vdW  Elec       q    Type
REMARK                         _______ _______ _______ _____ _____    ______ ____
ROOT
ATOM      1  C   UNL     1      47.002   4.856  13.608  0.00  0.00    +0.000 A 
ATOM      2  C   UNL     1      46.019   4.029  13.047  0.00  0.00    +0.000 A 
ATOM      3  C   UNL     1      45.267   4.449  11.940  0.00  0.00    +0.000 A 
ATOM      4  C   UNL     1      45.502   5.724  11.409  0.00  0.00    +0.000 A 
ATOM      5  C   UNL     1      46.481   6.553  11.961  0.00  0.00    +0.000 A 
ATOM      6  C   UNL     1      47.234   6.133  13.070  0.00  0.00    +0.000 A 
ENDROOT
BRANCH   1   8
ATOM      7  C   UNL     1      47.080   4.112  15.868  0.00  0.00    +0.000 C 
ATOM      8  O   UNL     1      47.768   4.512  14.691  0.00  0.00    +0.000 OA
ENDBRANCH   1   8
BRANCH   3   9
ATOM      9  C   UNL     1      44.241   3.532  11.313  0.00  0.00    +0.000 C 
BRANCH   9  10
ATOM     10  N   UNL     1      44.914   2.482  10.555  0.00  0.00    +0.000 NA
ATOM     11  H   UNL     1      44.718   1.584  10.996  0.00  0.00    +0.000 HD
BRANCH  10  12
ATOM     12  C   UNL     1      44.500   2.447   9.158  0.00  0.00    +0.000 C 
BRANCH  12  13
ATOM     13  C   UNL     1      45.697   2.337   8.264  0.00  0.00    +0.000 A 
ATOM     14  C   UNL     1      46.333   1.142   8.005  0.00  0.00    +0.000 A 
ATOM     15  N   UNL     1      47.425   1.028   7.221  0.00  0.00    +0.000 NA
ATOM     16  C   UNL     1      47.881   2.173   6.687  0.00  0.00    +0.000 A 
ATOM     17  N   UNL     1      47.348   3.391   6.857  0.00  0.00    +0.000 NA
ATOM     18  C   UNL     1      46.259   3.442   7.652  0.00  0.00    +0.000 A 
ENDBRANCH  12  13
ENDBRANCH  10  12
ENDBRANCH   9  10
ENDBRANCH   3   9
BRANCH   6  19
ATOM     19  C   UNL     1      48.324   7.027  13.614  0.00  0.00    +0.000 C 
BRANCH  19  20
ATOM     20  N   UNL     1      48.044   7.429  14.973  0.00  0.00    +0.000 N 
ATOM     21  C   UNL     1      49.049   7.593  15.891  0.00  0.00    +0.000 C 
ATOM     22  O   UNL     1      50.227   7.398  15.603  0.00  0.00    +0.000 OA
ATOM     23  H   UNL     1      47.145   7.874  15.136  0.00  0.00    +0.000 HD
BRANCH  21  24
ATOM     24  C   UNL     1      48.643   7.918  17.268  0.00  0.00    +0.000 A 
ATOM     25  C   UNL     1      48.560   6.916  18.226  0.00  0.00    +0.000 A 
ATOM     26  S   UNL     1      47.785   7.417  19.664  0.00  0.00    +0.000 S 
ATOM     27  C   UNL     1      47.591   8.998  19.069  0.00  0.00    +0.000 A 
ATOM     28  N   UNL     1      46.892   9.936  19.764  0.00  0.00    +0.000 NA
ATOM     29  C   UNL     1      46.865  11.101  19.205  0.00  0.00    +0.000 A 
ATOM     30  N   UNL     1      47.518  11.425  18.043  0.00  0.00    +0.000 N 
ATOM     31  C   UNL     1      48.274  10.522  17.339  0.00  0.00    +0.000 A 
ATOM     32  O   UNL     1      48.961  10.866  16.382  0.00  0.00    +0.000 OA
ATOM     33  C   UNL     1      48.221   9.168  17.851  0.00  0.00    +0.000 A 
ATOM     34  H   UNL     1      47.529  12.376  17.703  0.00  0.00    +0.000 HD
ENDBRANCH  21  24
ENDBRANCH  19  20
ENDBRANCH   6  19
TORSDOF 8
ENDMDL
MODEL 5
REMARK VINA RESULT:    -7.278      1.871      3.198
REMARK INTER + INTRA:         -11.901
REMARK INTER:                 -10.497
REMARK INTRA:                  -1.404
REMARK UNBOUND:                -1.220
REMARK  Name = 
REMARK  9 active torsions:
REMARK  status: ('A' for Active; 'I' for Inactive)
REMARK    1  A    between atoms: C_1  and  O_2
REMARK    2  A    between atoms: O_2  and  C_3
REMARK    3  A    between atoms: C_5  and  C_6
REMARK    4  A    between atoms: C_6  and  N_7
REMARK    5  A    between atoms: N_7  and  C_8
REMARK    6  A    between atoms: C_8  and  C_9
REMARK    7  A    between atoms: C_17  and  C_18
REMARK    8  A    between atoms: C_18  and  N_19
REMARK    9  A    between atoms: C_20  and  C_22
REMARK                            x       y       z     vdW  Elec       q    Type
REMARK                         _______ _______ _______ _____ _____    ______ ____
ROOT
ATOM      1  C   UNL     1      46.569   5.460  12.876  0.00  0.00    +0.000 A 
ATOM      2  C   UNL     1      45.618   5.745  11.886  0.00  0.00    +0.000 A 
ATOM      3  C   UNL     1      44.717   4.765  11.445  0.00  0.00    +0.000 A 
ATOM      4  C   UNL     1      44.790   3.481  12.001  0.00  0.00    +0.000 A 
ATOM      5  C   UNL     1      45.733   3.189  12.989  0.00  0.00    +0.000 A 
ATOM      6  C   UNL     1      46.637   4.170  13.431  0.00  0.00    +0.000 A 
ENDROOT
BRANCH   1   8
ATOM      7  C   UNL     1      47.124   7.740  13.280  0.00  0.00    +0.000 C 
ATOM      8  O   UNL     1      47.481   6.366  13.348  0.00  0.00    +0.000 OA
ENDBRANCH   1   8
BRANCH   3   9
ATOM      9  C   UNL     1      43.664   5.095  10.410  0.00  0.00    +0.000 C 
BRANCH   9  10
ATOM     10  N   UNL     1      43.854   4.260   9.229  0.00  0.00    +0.000 NA
ATOM     11  H   UNL     1      43.079   4.422   8.586  0.00  0.00    +0.000 HD
BRANCH  10  12
ATOM     12  C   UNL     1      45.118   4.525   8.554  0.00  0.00    +0.000 C 
BRANCH  12  13
ATOM     13  C   UNL     1      45.755   3.240   8.119  0.00  0.00    +0.000 A 
ATOM     14  C   UNL     1      45.412   2.015   8.650  0.00  0.00    +0.000 A 
ATOM     15  N   UNL     1      45.991   0.851   8.287  0.00  0.00    +0.000 NA
ATOM     16  C   UNL     1      46.953   0.946   7.354  0.00  0.00    +0.000 A 
ATOM     17  N   UNL     1      47.369   2.072   6.759  0.00  0.00    +0.000 NA
ATOM     18  C   UNL     1      46.754   3.203   7.164  0.00  0.00    +0.000 A 
ENDBRANCH  12  13
ENDBRANCH  10  12
ENDBRANCH   9  10
ENDBRANCH   3   9
BRANCH   6  19
ATOM     19  C   UNL     1      47.611   3.845  14.539  0.00  0.00    +0.000 C 
BRANCH  19  20
ATOM     20  N   UNL     1      47.569   4.841  15.584  0.00  0.00    +0.000 N 
ATOM     21  C   UNL     1      48.419   4.783  16.659  0.00  0.00    +0.000 C 
ATOM     22  O   UNL     1      49.244   3.881  16.785  0.00  0.00    +0.000 OA
ATOM     23  H   UNL     1      47.125   5.724  15.350  0.00  0.00    +0.000 HD
BRANCH  21  24
ATOM     24  C   UNL     1      48.231   5.798  17.708  0.00  0.00    +0.000 A 
ATOM     25  C   UNL     1      47.806   5.422  18.976  0.00  0.00    +0.000 A 
ATOM     26  S   UNL     1      47.349   6.743  19.957  0.00  0.00    +0.000 S 
ATOM     27  C   UNL     1      47.758   7.856  18.738  0.00  0.00    +0.000 A 
ATOM     28  N   UNL     1      47.509   9.186  18.879  0.00  0.00    +0.000 NA
ATOM     29  C   UNL     1      47.912   9.910  17.888  0.00  0.00    +0.000 A 
ATOM     30  N   UNL     1      48.589   9.432  16.795  0.00  0.00    +0.000 N 
ATOM     31  C   UNL     1      48.905   8.105  16.639  0.00  0.00    +0.000 A 
ATOM     32  O   UNL     1      49.630   7.720  15.727  0.00  0.00    +0.000 OA
ATOM     33  C   UNL     1      48.352   7.235  17.656  0.00  0.00    +0.000 A 
ATOM     34  H   UNL     1      48.954  10.063  16.096  0.00  0.00    +0.000 HD
ENDBRANCH  21  24
ENDBRANCH  19  20
ENDBRANCH   6  19
TORSDOF 8
ENDMDL
MODEL 6
REMARK VINA RESULT:    -7.194      2.379      3.263
REMARK INTER + INTRA:         -11.779
REMARK INTER:                 -10.710
REMARK INTRA:                  -1.069
REMARK UNBOUND:                -1.220
REMARK  Name = 
REMARK  9 active torsions:
REMARK  status: ('A' for Active; 'I' for Inactive)
REMARK    1  A    between atoms: C_1  and  O_2
REMARK    2  A    between atoms: O_2  and  C_3
REMARK    3  A    between atoms: C_5  and  C_6
REMARK    4  A    between atoms: C_6  and  N_7
REMARK    5  A    between atoms: N_7  and  C_8
REMARK    6  A    between atoms: C_8  and  C_9
REMARK    7  A    between atoms: C_17  and  C_18
REMARK    8  A    between atoms: C_18  and  N_19
REMARK    9  A    between atoms: C_20  and  C_22
REMARK                            x       y       z     vdW  Elec       q    Type
REMARK                         _______ _______ _______ _____ _____    ______ ____
ROOT
ATOM      1  C   UNL     1      45.107   4.227  12.617  0.00  0.00    +0.000 A 
ATOM      2  C   UNL     1      45.111   4.648  11.279  0.00  0.00    +0.000 A 
ATOM      3  C   UNL     1      45.994   5.644  10.837  0.00  0.00    +0.000 A 
ATOM      4  C   UNL     1      46.869   6.229  11.762  0.00  0.00    +0.000 A 
ATOM      5  C   UNL     1      46.872   5.815  13.096  0.00  0.00    +0.000 A 
ATOM      6  C   UNL     1      45.988   4.817  13.539  0.00  0.00    +0.000 A 
ENDROOT
BRANCH   1   8
ATOM      7  C   UNL     1      43.410   2.612  12.192  0.00  0.00    +0.000 C 
ATOM      8  O   UNL     1      44.269   3.266  13.117  0.00  0.00    +0.000 OA
ENDBRANCH   1   8
BRANCH   3   9
ATOM      9  C   UNL     1      46.024   6.058   9.383  0.00  0.00    +0.000 C 
BRANCH   9  10
ATOM     10  N   UNL     1      45.551   4.960   8.547  0.00  0.00    +0.000 NA
ATOM     11  H   UNL     1      44.697   5.254   8.073  0.00  0.00    +0.000 HD
BRANCH  10  12
ATOM     12  C   UNL     1      46.541   4.541   7.562  0.00  0.00    +0.000 C 
BRANCH  12  13
ATOM     13  C   UNL     1      46.657   3.047   7.546  0.00  0.00    +0.000 A 
ATOM     14  C   UNL     1      45.859   2.224   8.311  0.00  0.00    +0.000 A 
ATOM     15  N   UNL     1      45.966   0.878   8.325  0.00  0.00    +0.000 NA
ATOM     16  C   UNL     1      46.920   0.361   7.534  0.00  0.00    +0.000 A 
ATOM     17  N   UNL     1      47.750   1.053   6.742  0.00  0.00    +0.000 NA
ATOM     18  C   UNL     1      47.596   2.393   6.770  0.00  0.00    +0.000 A 
ENDBRANCH  12  13
ENDBRANCH  10  12
ENDBRANCH   9  10
ENDBRANCH   3   9
BRANCH   6  19
ATOM     19  C   UNL     1      46.049   4.349  14.974  0.00  0.00    +0.000 C 
BRANCH  19  20
ATOM     20  N   UNL     1      47.185   4.915  15.664  0.00  0.00    +0.000 N 
ATOM     21  C   UNL     1      47.502   4.540  16.945  0.00  0.00    +0.000 C 
ATOM     22  O   UNL     1      46.832   3.717  17.563  0.00  0.00    +0.000 OA
ATOM     23  H   UNL     1      47.897   5.347  15.083  0.00  0.00    +0.000 HD
BRANCH  21  24
ATOM     24  C   UNL     1      48.625   5.245  17.583  0.00  0.00    +0.000 A 
ATOM     25  C   UNL     1      48.465   6.549  18.036  0.00  0.00    +0.000 A 
ATOM     26  S   UNL     1      49.937   7.305  18.459  0.00  0.00    +0.000 S 
ATOM     27  C   UNL     1      50.821   5.896  18.103  0.00  0.00    +0.000 A 
ATOM     28  N   UNL     1      52.181   5.883  18.145  0.00  0.00    +0.000 NA
ATOM     29  C   UNL     1      52.709   4.731  17.890  0.00  0.00    +0.000 A 
ATOM     30  N   UNL     1      52.001   3.582  17.651  0.00  0.00    +0.000 N 
ATOM     31  C   UNL     1      50.628   3.542  17.651  0.00  0.00    +0.000 A 
ATOM     32  O   UNL     1      50.016   2.481  17.574  0.00  0.00    +0.000 OA
ATOM     33  C   UNL     1      49.992   4.835  17.793  0.00  0.00    +0.000 A 
ATOM     34  H   UNL     1      52.472   2.695  17.545  0.00  0.00    +0.000 HD
ENDBRANCH  21  24
ENDBRANCH  19  20
ENDBRANCH   6  19
TORSDOF 8
ENDMDL
MODEL 7
REMARK VINA RESULT:    -7.118      2.158      2.935
REMARK INTER + INTRA:         -11.666
REMARK INTER:                 -10.324
REMARK INTRA:                  -1.342
REMARK UNBOUND:                -1.220
REMARK  Name = 
REMARK  9 active torsions:
REMARK  status: ('A' for Active; 'I' for Inactive)
REMARK    1  A    between atoms: C_1  and  O_2
REMARK    2  A    between atoms: O_2  and  C_3
REMARK    3  A    between atoms: C_5  and  C_6
REMARK    4  A    between atoms: C_6  and  N_7
REMARK    5  A    between atoms: N_7  and  C_8
REMARK    6  A    between atoms: C_8  and  C_9
REMARK    7  A    between atoms: C_17  and  C_18
REMARK    8  A    between atoms: C_18  and  N_19
REMARK    9  A    between atoms: C_20  and  C_22
REMARK                            x       y       z     vdW  Elec       q    Type
REMARK                         _______ _______ _______ _____ _____    ______ ____
ROOT
ATOM      1  C   UNL     1      46.723   5.581  12.720  0.00  0.00    +0.000 A 
ATOM      2  C   UNL     1      45.835   5.715  11.643  0.00  0.00    +0.000 A 
ATOM      3  C   UNL     1      44.865   4.737  11.379  0.00  0.00    +0.000 A 
ATOM      4  C   UNL     1      44.806   3.606  12.204  0.00  0.00    +0.000 A 
ATOM      5  C   UNL     1      45.686   3.465  13.279  0.00  0.00    +0.000 A 
ATOM      6  C   UNL     1      46.658   4.445  13.544  0.00  0.00    +0.000 A 
ENDROOT
BRANCH   1   8
ATOM      7  C   UNL     1      47.444   7.850  12.689  0.00  0.00    +0.000 C 
ATOM      8  O   UNL     1      47.697   6.493  13.030  0.00  0.00    +0.000 OA
ENDBRANCH   1   8
BRANCH   3   9
ATOM      9  C   UNL     1      43.881   4.913  10.245  0.00  0.00    +0.000 C 
BRANCH   9  10
ATOM     10  N   UNL     1      44.148   3.927   9.202  0.00  0.00    +0.000 NA
ATOM     11  H   UNL     1      43.307   3.814   8.636  0.00  0.00    +0.000 HD
BRANCH  10  12
ATOM     12  C   UNL     1      45.269   4.303   8.351  0.00  0.00    +0.000 C 
BRANCH  12  13
ATOM     13  C   UNL     1      46.021   3.083   7.913  0.00  0.00    +0.000 A 
ATOM     14  C   UNL     1      46.999   3.113   6.941  0.00  0.00    +0.000 A 
ATOM     15  N   UNL     1      47.670   2.020   6.519  0.00  0.00    +0.000 NA
ATOM     16  C   UNL     1      47.326   0.863   7.108  0.00  0.00    +0.000 A 
ATOM     17  N   UNL     1      46.402   0.707   8.065  0.00  0.00    +0.000 NA
ATOM     18  C   UNL     1      45.765   1.834   8.445  0.00  0.00    +0.000 A 
ENDBRANCH  12  13
ENDBRANCH  10  12
ENDBRANCH   9  10
ENDBRANCH   3   9
BRANCH   6  19
ATOM     19  C   UNL     1      47.561   4.295  14.745  0.00  0.00    +0.000 C 
BRANCH  19  20
ATOM     20  N   UNL     1      47.534   5.478  15.574  0.00  0.00    +0.000 N 
ATOM     21  C   UNL     1      48.635   5.876  16.287  0.00  0.00    +0.000 C 
ATOM     22  O   UNL     1      49.688   5.243  16.261  0.00  0.00    +0.000 OA
ATOM     23  H   UNL     1      46.802   6.154  15.373  0.00  0.00    +0.000 HD
BRANCH  21  24
ATOM     24  C   UNL     1      48.469   7.044  17.167  0.00  0.00    +0.000 A 
ATOM     25  C   UNL     1      48.926   8.293  16.764  0.00  0.00    +0.000 A 
ATOM     26  S   UNL     1      48.930   9.450  18.020  0.00  0.00    +0.000 S 
ATOM     27  C   UNL     1      48.268   8.334  19.120  0.00  0.00    +0.000 A 
ATOM     28  N   UNL     1      48.109   8.643  20.435  0.00  0.00    +0.000 NA
ATOM     29  C   UNL     1      47.557   7.710  21.137  0.00  0.00    +0.000 A 
ATOM     30  N   UNL     1      47.101   6.519  20.634  0.00  0.00    +0.000 N 
ATOM     31  C   UNL     1      47.197   6.189  19.305  0.00  0.00    +0.000 A 
ATOM     32  O   UNL     1      46.660   5.183  18.852  0.00  0.00    +0.000 OA
ATOM     33  C   UNL     1      47.933   7.144  18.502  0.00  0.00    +0.000 A 
ATOM     34  H   UNL     1      46.600   5.867  21.220  0.00  0.00    +0.000 HD
ENDBRANCH  21  24
ENDBRANCH  19  20
ENDBRANCH   6  19
TORSDOF 8
ENDMDL
MODEL 8
REMARK VINA RESULT:    -6.735      2.668      7.977
REMARK INTER + INTRA:         -11.104
REMARK INTER:                  -9.830
REMARK INTRA:                  -1.274
REMARK UNBOUND:                -1.220
REMARK  Name = 
REMARK  9 active torsions:
REMARK  status: ('A' for Active; 'I' for Inactive)
REMARK    1  A    between atoms: C_1  and  O_2
REMARK    2  A    between atoms: O_2  and  C_3
REMARK    3  A    between atoms: C_5  and  C_6
REMARK    4  A    between atoms: C_6  and  N_7
REMARK    5  A    between atoms: N_7  and  C_8
REMARK    6  A    between atoms: C_8  and  C_9
REMARK    7  A    between atoms: C_17  and  C_18
REMARK    8  A    between atoms: C_18  and  N_19
REMARK    9  A    between atoms: C_20  and  C_22
REMARK                            x       y       z     vdW  Elec       q    Type
REMARK                         _______ _______ _______ _____ _____    ______ ____
ROOT
ATOM      1  C   UNL     1      50.313   7.968  13.928  0.00  0.00    +0.000 A 
ATOM      2  C   UNL     1      50.829   7.866  15.228  0.00  0.00    +0.000 A 
ATOM      3  C   UNL     1      50.118   7.200  16.237  0.00  0.00    +0.000 A 
ATOM      4  C   UNL     1      48.868   6.648  15.930  0.00  0.00    +0.000 A 
ATOM      5  C   UNL     1      48.348   6.744  14.637  0.00  0.00    +0.000 A 
ATOM      6  C   UNL     1      49.059   7.411  13.626  0.00  0.00    +0.000 A 
ENDROOT
BRANCH   1   8
ATOM      7  C   UNL     1      52.369   8.528  12.865  0.00  0.00    +0.000 C 
ATOM      8  O   UNL     1      50.950   8.609  12.899  0.00  0.00    +0.000 OA
ENDBRANCH   1   8
BRANCH   3   9
ATOM      9  C   UNL     1      50.702   7.054  17.624  0.00  0.00    +0.000 C 
BRANCH   9  10
ATOM     10  N   UNL     1      49.759   6.350  18.487  0.00  0.00    +0.000 NA
ATOM     11  H   UNL     1      48.887   6.214  17.975  0.00  0.00    +0.000 HD
BRANCH  10  12
ATOM     12  C   UNL     1      50.270   5.062  18.940  0.00  0.00    +0.000 C 
BRANCH  12  13
ATOM     13  C   UNL     1      49.735   3.958  18.081  0.00  0.00    +0.000 A 
ATOM     14  C   UNL     1      50.546   3.078  17.398  0.00  0.00    +0.000 A 
ATOM     15  N   UNL     1      50.081   2.092  16.601  0.00  0.00    +0.000 NA
ATOM     16  C   UNL     1      48.745   2.008  16.499  0.00  0.00    +0.000 A 
ATOM     17  N   UNL     1      47.854   2.796  17.117  0.00  0.00    +0.000 NA
ATOM     18  C   UNL     1      48.378   3.763  17.898  0.00  0.00    +0.000 A 
ENDBRANCH  12  13
ENDBRANCH  10  12
ENDBRANCH   9  10
ENDBRANCH   3   9
BRANCH   6  19
ATOM     19  C   UNL     1      48.500   7.454  12.224  0.00  0.00    +0.000 C 
BRANCH  19  20
ATOM     20  N   UNL     1      47.423   6.507  12.058  0.00  0.00    +0.000 N 
ATOM     21  C   UNL     1      46.140   6.921  11.807  0.00  0.00    +0.000 C 
ATOM     22  O   UNL     1      45.849   8.112  11.721  0.00  0.00    +0.000 OA
ATOM     23  H   UNL     1      47.690   5.554  11.828  0.00  0.00    +0.000 HD
BRANCH  21  24
ATOM     24  C   UNL     1      45.106   5.876  11.744  0.00  0.00    +0.000 A 
ATOM     25  C   UNL     1      44.192   5.734  12.780  0.00  0.00    +0.000 A 
ATOM     26  S   UNL     1      43.277   4.295  12.685  0.00  0.00    +0.000 S 
ATOM     27  C   UNL     1      44.034   3.850  11.228  0.00  0.00    +0.000 A 
ATOM     28  N   UNL     1      43.793   2.646  10.643  0.00  0.00    +0.000 NA
ATOM     29  C   UNL     1      44.410   2.468   9.521  0.00  0.00    +0.000 A 
ATOM     30  N   UNL     1      45.202   3.404   8.907  0.00  0.00    +0.000 N 
ATOM     31  C   UNL     1      45.430   4.649   9.440  0.00  0.00    +0.000 A 
ATOM     32  O   UNL     1      46.024   5.518   8.810  0.00  0.00    +0.000 OA
ATOM     33  C   UNL     1      44.873   4.845  10.763  0.00  0.00    +0.000 A 
ATOM     34  H   UNL     1      45.586   3.235   7.989  0.00  0.00    +0.000 HD
ENDBRANCH  21  24
ENDBRANCH  19  20
ENDBRANCH   6  19
TORSDOF 8
ENDMDL
MODEL 9
REMARK VINA RESULT:    -6.650      2.157      3.137
REMARK INTER + INTRA:         -10.979
REMARK INTER:                  -9.882
REMARK INTRA:                  -1.097
REMARK UNBOUND:                -1.220
REMARK  Name = 
REMARK  9 active torsions:
REMARK  status: ('A' for Active; 'I' for Inactive)
REMARK    1  A    between atoms: C_1  and  O_2
REMARK    2  A    between atoms: O_2  and  C_3
REMARK    3  A    between atoms: C_5  and  C_6
REMARK    4  A    between atoms: C_6  and  N_7
REMARK    5  A    between atoms: N_7  and  C_8
REMARK    6  A    between atoms: C_8  and  C_9
REMARK    7  A    between atoms: C_17  and  C_18
REMARK    8  A    between atoms: C_18  and  N_19
REMARK    9  A    between atoms: C_20  and  C_22
REMARK                            x       y       z     vdW  Elec       q    Type
REMARK                         _______ _______ _______ _____ _____    ______ ____
ROOT
ATOM      1  C   UNL     1      44.977   7.534  12.009  0.00  0.00    +0.000 A 
ATOM      2  C   UNL     1      44.149   6.601  11.369  0.00  0.00    +0.000 A 
ATOM      3  C   UNL     1      44.290   5.227  11.607  0.00  0.00    +0.000 A 
ATOM      4  C   UNL     1      45.288   4.793  12.489  0.00  0.00    +0.000 A 
ATOM      5  C   UNL     1      46.116   5.716  13.132  0.00  0.00    +0.000 A 
ATOM      6  C   UNL     1      45.976   7.093  12.894  0.00  0.00    +0.000 A 
ENDROOT
BRANCH   1   8
ATOM      7  C   UNL     1      43.933   9.356  10.886  0.00  0.00    +0.000 C 
ATOM      8  O   UNL     1      44.898   8.889  11.818  0.00  0.00    +0.000 OA
ENDBRANCH   1   8
BRANCH   3   9
ATOM      9  C   UNL     1      43.362   4.231  10.948  0.00  0.00    +0.000 C 
BRANCH   9  10
ATOM     10  N   UNL     1      44.137   3.289  10.147  0.00  0.00    +0.000 NA
ATOM     11  H   UNL     1      43.568   2.459   9.976  0.00  0.00    +0.000 HD
BRANCH  10  12
ATOM     12  C   UNL     1      44.570   3.860   8.877  0.00  0.00    +0.000 C 
BRANCH  12  13
ATOM     13  C   UNL     1      45.601   2.981   8.237  0.00  0.00    +0.000 A 
ATOM     14  C   UNL     1      45.698   1.630   8.491  0.00  0.00    +0.000 A 
ATOM     15  N   UNL     1      46.635   0.829   7.942  0.00  0.00    +0.000 NA
ATOM     16  C   UNL     1      47.501   1.431   7.110  0.00  0.00    +0.000 A 
ATOM     17  N   UNL     1      47.506   2.730   6.779  0.00  0.00    +0.000 NA
ATOM     18  C   UNL     1      46.546   3.480   7.360  0.00  0.00    +0.000 A 
ENDBRANCH  12  13
ENDBRANCH  10  12
ENDBRANCH   9  10
ENDBRANCH   3   9
BRANCH   6  19
ATOM     19  C   UNL     1      46.847   8.074  13.643  0.00  0.00    +0.000 C 
BRANCH  19  20
ATOM     20  N   UNL     1      48.020   7.428  14.184  0.00  0.00    +0.000 N 
ATOM     21  C   UNL     1      48.574   7.831  15.372  0.00  0.00    +0.000 C 
ATOM     22  O   UNL     1      48.105   8.761  16.023  0.00  0.00    +0.000 OA
ATOM     23  H   UNL     1      48.228   6.498  13.830  0.00  0.00    +0.000 HD
BRANCH  21  24
ATOM     24  C   UNL     1      49.818   7.162  15.784  0.00  0.00    +0.000 A 
ATOM     25  C   UNL     1      49.794   6.194  16.780  0.00  0.00    +0.000 A 
ATOM     26  S   UNL     1      51.348   5.756  17.338  0.00  0.00    +0.000 S 
ATOM     27  C   UNL     1      52.097   6.804  16.228  0.00  0.00    +0.000 A 
ATOM     28  N   UNL     1      53.443   7.005  16.239  0.00  0.00    +0.000 NA
ATOM     29  C   UNL     1      53.870   7.795  15.311  0.00  0.00    +0.000 A 
ATOM     30  N   UNL     1      53.082   8.360  14.341  0.00  0.00    +0.000 N 
ATOM     31  C   UNL     1      51.728   8.143  14.264  0.00  0.00    +0.000 A 
ATOM     32  O   UNL     1      51.066   8.542  13.311  0.00  0.00    +0.000 OA
ATOM     33  C   UNL     1      51.182   7.376  15.365  0.00  0.00    +0.000 A 
ATOM     34  H   UNL     1      53.489   8.900  13.591  0.00  0.00    +0.000 HD
ENDBRANCH  21  24
ENDBRANCH  19  20
ENDBRANCH   6  19
TORSDOF 8
ENDMDL
