MODEL 1
REMARK VINA RESULT:    -8.016      0.000      0.000
REMARK INTER + INTRA:          -9.936
REMARK INTER:                 -10.125
REMARK INTRA:                   0.189
REMARK UNBOUND:                 0.189
REMARK  Name = 
REMARK  5 active torsions:
REMARK  status: ('A' for Active; 'I' for Inactive)
REMARK    1  A    between atoms: N_1  and  C_2
REMARK    2  A    between atoms: C_2  and  C_3
REMARK    3  A    between atoms: C_6  and  C_7
REMARK    4  A    between atoms: C_7  and  N_8
REMARK    5  A    between atoms: C_12  and  C_13
REMARK                            x       y       z     vdW  Elec       q    Type
REMARK                         _______ _______ _______ _____ _____    ______ ____
ROOT
ATOM      1  N   UNL     1      44.001   4.962   9.625  0.00  0.00    +0.000 N 
ATOM      2  C   UNL     1      44.855   4.058   9.053  0.00  0.00    +0.000 A 
ATOM      3  C   UNL     1      44.847   2.676   9.273  0.00  0.00    +0.000 A 
ATOM      4  N   UNL     1      45.647   1.790   8.617  0.00  0.00    +0.000 NA
ATOM      5  C   UNL     1      46.465   2.358   7.693  0.00  0.00    +0.000 A 
ATOM      6  C   UNL     1      46.495   3.725   7.466  0.00  0.00    +0.000 A 
ATOM      7  N   UNL     1      45.702   4.593   8.148  0.00  0.00    +0.000 NA
ATOM      8  H   UNL     1      44.339   5.902   9.430  0.00  0.00    +0.000 HD
ENDROOT
BRANCH   5   9
ATOM      9  C   UNL     1      47.333   1.467   6.876  0.00  0.00    +0.000 C 
ATOM     10  N   UNL     1      48.458   2.038   6.344  0.00  0.00    +0.000 N 
ATOM     11  O   UNL     1      47.068   0.289   6.695  0.00  0.00    +0.000 OA
ATOM     12  H   UNL     1      48.688   3.005   6.535  0.00  0.00    +0.000 HD
ATOM     13  H   UNL     1      49.100   1.453   5.825  0.00  0.00    +0.000 HD
ENDBRANCH   5   9
BRANCH   1  14
ATOM     14  C   UNL     1      43.315   4.754  10.884  0.00  0.00    +0.000 C 
BRANCH  14  18
ATOM     15  C   UNL     1      46.748   5.552  12.486  0.00  0.00    +0.000 C 
ATOM     16  C   UNL     1      45.707   4.604  13.107  0.00  0.00    +0.000 C 
ATOM     17  C   UNL     1      44.311   5.217  13.216  0.00  0.00    +0.000 C 
ATOM     18  C   UNL     1      43.783   5.818  11.902  0.00  0.00    +0.000 C 
ATOM     19  C   UNL     1      44.810   6.771  11.283  0.00  0.00    +0.000 C 
ATOM     20  C   UNL     1      46.219   6.190  11.188  0.00  0.00    +0.000 C 
BRANCH  15  21
ATOM     21  C   UNL     1      47.236   6.557  13.551  0.00  0.00    +0.000 C 
BRANCH  21  22
ATOM     22  N   UNL     1      47.813   5.920  14.730  0.00  0.00    +0.000 NA
ATOM     23  H   UNL     1      48.339   5.096  14.437  0.00  0.00    +0.000 HD
ATOM     24  H   UNL     1      47.069   5.569  15.330  0.00  0.00    +0.000 HD
ENDBRANCH  21  22
ENDBRANCH  15  21
ENDBRANCH  14  18
ENDBRANCH   1  14
TORSDOF 5
ENDMDL
MODEL 2
REMARK VINA RESULT:    -6.962      3.131      6.741
REMARK INTER + INTRA:          -8.604
REMARK INTER:                  -8.195
REMARK INTRA:                  -0.409
REMARK UNBOUND:                 0.189
REMARK  Name = 
REMARK  5 active torsions:
REMARK  status: ('A' for Active; 'I' for Inactive)
REMARK    1  A    between atoms: N_1  and  C_2
REMARK    2  A    between atoms: C_2  and  C_3
REMARK    3  A    between atoms: C_6  and  C_7
REMARK    4  A    between atoms: C_7  and  N_8
REMARK    5  A    between atoms: C_12  and  C_13
REMARK                            x       y       z     vdW  Elec       q    Type
REMARK                         _______ _______ _______ _____ _____    ______ ____
ROOT
ATOM      1  N   UNL     1      44.048   4.023  10.695  0.00  0.00    +0.000 N 
ATOM      2  C   UNL     1      44.607   5.131  11.270  0.00  0.00    +0.000 A 
ATOM      3  C   UNL     1      45.936   5.545  11.123  0.00  0.00    +0.000 A 
ATOM      4  N   UNL     1      46.440   6.704  11.630  0.00  0.00    +0.000 NA
ATOM      5  C   UNL     1      45.528   7.463  12.293  0.00  0.00    +0.000 A 
ATOM      6  C   UNL     1      44.210   7.069  12.457  0.00  0.00    +0.000 A 
ATOM      7  N   UNL     1      43.735   5.896  11.960  0.00  0.00    +0.000 NA
ATOM      8  H   UNL     1      43.130   3.867  11.106  0.00  0.00    +0.000 HD
ENDROOT
BRANCH   5   9
ATOM      9  C   UNL     1      45.964   8.782  12.829  0.00  0.00    +0.000 C 
ATOM     10  N   UNL     1      46.689   8.754  13.990  0.00  0.00    +0.000 N 
ATOM     11  O   UNL     1      45.704   9.832  12.263  0.00  0.00    +0.000 OA
ATOM     12  H   UNL     1      46.934   7.875  14.428  0.00  0.00    +0.000 HD
ATOM     13  H   UNL     1      47.047   9.626  14.360  0.00  0.00    +0.000 HD
ENDBRANCH   5   9
BRANCH   1  14
ATOM     14  C   UNL     1      44.795   2.852  10.283  0.00  0.00    +0.000 C 
BRANCH  14  18
ATOM     15  C   UNL     1      47.135   2.848   7.199  0.00  0.00    +0.000 C 
ATOM     16  C   UNL     1      46.355   4.082   7.687  0.00  0.00    +0.000 C 
ATOM     17  C   UNL     1      44.863   3.818   7.895  0.00  0.00    +0.000 C 
ATOM     18  C   UNL     1      44.556   2.597   8.778  0.00  0.00    +0.000 C 
ATOM     19  C   UNL     1      45.322   1.362   8.291  0.00  0.00    +0.000 C 
ATOM     20  C   UNL     1      46.809   1.608   8.051  0.00  0.00    +0.000 C 
BRANCH  15  21
ATOM     21  C   UNL     1      46.922   2.666   5.681  0.00  0.00    +0.000 C 
BRANCH  21  22
ATOM     22  N   UNL     1      48.162   2.467   4.939  0.00  0.00    +0.000 NA
ATOM     23  H   UNL     1      48.688   3.341   4.934  0.00  0.00    +0.000 HD
ATOM     24  H   UNL     1      47.952   2.270   3.962  0.00  0.00    +0.000 HD
ENDBRANCH  21  22
ENDBRANCH  15  21
ENDBRANCH  14  18
ENDBRANCH   1  14
TORSDOF 5
ENDMDL
MODEL 3
REMARK VINA RESULT:    -6.935      1.293      1.709
REMARK INTER + INTRA:          -8.571
REMARK INTER:                  -8.402
REMARK INTRA:                  -0.169
REMARK UNBOUND:                 0.189
REMARK  Name = 
REMARK  5 active torsions:
REMARK  status: ('A' for Active; 'I' for Inactive)
REMARK    1  A    between atoms: N_1  and  C_2
REMARK    2  A    between atoms: C_2  and  C_3
REMARK    3  A    between atoms: C_6  and  C_7
REMARK    4  A    between atoms: C_7  and  N_8
REMARK    5  A    between atoms: C_12  and  C_13
REMARK                            x       y       z     vdW  Elec       q    Type
REMARK                         _______ _______ _______ _____ _____    ______ ____
ROOT
ATOM      1  N   UNL     1      44.432   4.247  10.913  0.00  0.00    +0.000 N 
ATOM      2  C   UNL     1      45.015   3.815   9.753  0.00  0.00    +0.000 A 
ATOM      3  C   UNL     1      45.656   4.629   8.811  0.00  0.00    +0.000 A 
ATOM      4  N   UNL     1      46.310   4.160   7.712  0.00  0.00    +0.000 NA
ATOM      5  C   UNL     1      46.314   2.806   7.602  0.00  0.00    +0.000 A 
ATOM      6  C   UNL     1      45.679   1.983   8.519  0.00  0.00    +0.000 A 
ATOM      7  N   UNL     1      45.013   2.475   9.597  0.00  0.00    +0.000 NA
ATOM      8  H   UNL     1      43.895   3.481  11.315  0.00  0.00    +0.000 HD
ENDROOT
BRANCH   5   9
ATOM      9  C   UNL     1      47.061   2.192   6.470  0.00  0.00    +0.000 C 
ATOM     10  N   UNL     1      47.273   2.992   5.379  0.00  0.00    +0.000 N 
ATOM     11  O   UNL     1      47.473   1.044   6.510  0.00  0.00    +0.000 OA
ATOM     12  H   UNL     1      46.962   3.956   5.375  0.00  0.00    +0.000 HD
ATOM     13  H   UNL     1      47.820   2.629   4.610  0.00  0.00    +0.000 HD
ENDBRANCH   5   9
BRANCH   1  14
ATOM     14  C   UNL     1      43.929   5.589  11.125  0.00  0.00    +0.000 C 
BRANCH  14  18
ATOM     15  C   UNL     1      47.223   7.050  12.539  0.00  0.00    +0.000 C 
ATOM     16  C   UNL     1      46.870   5.552  12.550  0.00  0.00    +0.000 C 
ATOM     17  C   UNL     1      45.494   5.253  13.145  0.00  0.00    +0.000 C 
ATOM     18  C   UNL     1      44.350   6.076  12.529  0.00  0.00    +0.000 C 
ATOM     19  C   UNL     1      44.690   7.570  12.525  0.00  0.00    +0.000 C 
ATOM     20  C   UNL     1      46.071   7.891  11.959  0.00  0.00    +0.000 C 
BRANCH  15  21
ATOM     21  C   UNL     1      47.700   7.482  13.942  0.00  0.00    +0.000 C 
BRANCH  21  22
ATOM     22  N   UNL     1      47.242   8.812  14.328  0.00  0.00    +0.000 NA
ATOM     23  H   UNL     1      46.450   9.073  13.741  0.00  0.00    +0.000 HD
ATOM     24  H   UNL     1      47.968   9.498  14.127  0.00  0.00    +0.000 HD
ENDBRANCH  21  22
ENDBRANCH  15  21
ENDBRANCH  14  18
ENDBRANCH   1  14
TORSDOF 5
ENDMDL
MODEL 4
REMARK VINA RESULT:    -6.167      4.202      7.773
REMARK INTER + INTRA:          -7.601
REMARK INTER:                  -7.235
REMARK INTRA:                  -0.366
REMARK UNBOUND:                 0.189
REMARK  Name = 
REMARK  5 active torsions:
REMARK  status: ('A' for Active; 'I' for Inactive)
REMARK    1  A    between atoms: N_1  and  C_2
REMARK    2  A    between atoms: C_2  and  C_3
REMARK    3  A    between atoms: C_6  and  C_7
REMARK    4  A    between atoms: C_7  and  N_8
REMARK    5  A    between atoms: C_12  and  C_13
REMARK                            x       y       z     vdW  Elec       q    Type
REMARK                         _______ _______ _______ _____ _____    ______ ____
ROOT
ATOM      1  N   UNL     1      46.156   4.495  14.968  0.00  0.00    +0.000 N 
ATOM      2  C   UNL     1      47.311   4.397  15.695  0.00  0.00    +0.000 A 
ATOM      3  C   UNL     1      48.253   5.418  15.872  0.00  0.00    +0.000 A 
ATOM      4  N   UNL     1      49.346   5.320  16.678  0.00  0.00    +0.000 NA
ATOM      5  C   UNL     1      49.452   4.135  17.333  0.00  0.00    +0.000 A 
ATOM      6  C   UNL     1      48.535   3.109  17.166  0.00  0.00    +0.000 A 
ATOM      7  N   UNL     1      47.462   3.220  16.339  0.00  0.00    +0.000 NA
ATOM      8  H   UNL     1      45.754   3.566  14.863  0.00  0.00    +0.000 HD
ENDROOT
BRANCH   5   9
ATOM      9  C   UNL     1      50.577   3.954  18.290  0.00  0.00    +0.000 C 
ATOM     10  N   UNL     1      50.331   4.309  19.589  0.00  0.00    +0.000 N 
ATOM     11  O   UNL     1      51.658   3.504  17.945  0.00  0.00    +0.000 OA
ATOM     12  H   UNL     1      49.418   4.642  19.871  0.00  0.00    +0.000 HD
ATOM     13  H   UNL     1      51.054   4.154  20.281  0.00  0.00    +0.000 HD
ENDBRANCH   5   9
BRANCH   1  14
ATOM     14  C   UNL     1      45.952   5.431  13.882  0.00  0.00    +0.000 C 
BRANCH  14  18
ATOM     15  C   UNL     1      43.827   4.036  10.962  0.00  0.00    +0.000 C 
ATOM     16  C   UNL     1      44.296   3.197  12.164  0.00  0.00    +0.000 C 
ATOM     17  C   UNL     1      45.796   3.304  12.434  0.00  0.00    +0.000 C 
ATOM     18  C   UNL     1      46.316   4.747  12.544  0.00  0.00    +0.000 C 
ATOM     19  C   UNL     1      45.861   5.586  11.345  0.00  0.00    +0.000 C 
ATOM     20  C   UNL     1      44.370   5.475  11.039  0.00  0.00    +0.000 C 
BRANCH  15  21
ATOM     21  C   UNL     1      44.149   3.290   9.650  0.00  0.00    +0.000 C 
BRANCH  21  22
ATOM     22  N   UNL     1      44.210   4.164   8.484  0.00  0.00    +0.000 NA
ATOM     23  H   UNL     1      43.798   5.066   8.725  0.00  0.00    +0.000 HD
ATOM     24  H   UNL     1      43.624   3.787   7.740  0.00  0.00    +0.000 HD
ENDBRANCH  21  22
ENDBRANCH  15  21
ENDBRANCH  14  18
ENDBRANCH   1  14
TORSDOF 5
ENDMDL
MODEL 5
REMARK VINA RESULT:    -6.120      3.326      5.040
REMARK INTER + INTRA:          -7.542
REMARK INTER:                  -7.093
REMARK INTRA:                  -0.448
REMARK UNBOUND:                 0.189
REMARK  Name = 
REMARK  5 active torsions:
REMARK  status: ('A' for Active; 'I' for Inactive)
REMARK    1  A    between atoms: N_1  and  C_2
REMARK    2  A    between atoms: C_2  and  C_3
REMARK    3  A    between atoms: C_6  and  C_7
REMARK    4  A    between atoms: C_7  and  N_8
REMARK    5  A    between atoms: C_12  and  C_13
REMARK                            x       y       z     vdW  Elec       q    Type
REMARK                         _______ _______ _______ _____ _____    ______ ____
ROOT
ATOM      1  N   UNL     1      45.553   7.605  13.205  0.00  0.00    +0.000 N 
ATOM      2  C   UNL     1      45.112   6.479  12.564  0.00  0.00    +0.000 A 
ATOM      3  C   UNL     1      45.621   5.971  11.363  0.00  0.00    +0.000 A 
ATOM      4  N   UNL     1      45.226   4.797  10.798  0.00  0.00    +0.000 NA
ATOM      5  C   UNL     1      44.289   4.122  11.515  0.00  0.00    +0.000 A 
ATOM      6  C   UNL     1      43.766   4.610  12.702  0.00  0.00    +0.000 A 
ATOM      7  N   UNL     1      44.160   5.797  13.236  0.00  0.00    +0.000 NA
ATOM      8  H   UNL     1      44.900   7.835  13.951  0.00  0.00    +0.000 HD
ENDROOT
BRANCH   5   9
ATOM      9  C   UNL     1      43.839   2.794  11.015  0.00  0.00    +0.000 C 
ATOM     10  N   UNL     1      44.544   2.272   9.964  0.00  0.00    +0.000 N 
ATOM     11  O   UNL     1      42.902   2.194  11.517  0.00  0.00    +0.000 OA
ATOM     12  H   UNL     1      45.345   2.761   9.583  0.00  0.00    +0.000 HD
ATOM     13  H   UNL     1      44.302   1.348   9.628  0.00  0.00    +0.000 HD
ENDBRANCH   5   9
BRANCH   1  14
ATOM     14  C   UNL     1      46.223   8.708  12.548  0.00  0.00    +0.000 C 
BRANCH  14  18
ATOM     15  C   UNL     1      49.955   8.623  11.522  0.00  0.00    +0.000 C 
ATOM     16  C   UNL     1      49.213   7.442  12.174  0.00  0.00    +0.000 C 
ATOM     17  C   UNL     1      48.467   7.821  13.453  0.00  0.00    +0.000 C 
ATOM     18  C   UNL     1      47.532   9.033  13.302  0.00  0.00    +0.000 C 
ATOM     19  C   UNL     1      48.267  10.216  12.663  0.00  0.00    +0.000 C 
ATOM     20  C   UNL     1      49.042   9.856  11.397  0.00  0.00    +0.000 C 
BRANCH  15  21
ATOM     21  C   UNL     1      51.286   8.872  12.263  0.00  0.00    +0.000 C 
BRANCH  21  22
ATOM     22  N   UNL     1      52.284   7.835  12.031  0.00  0.00    +0.000 NA
ATOM     23  H   UNL     1      52.560   7.856  11.049  0.00  0.00    +0.000 HD
ATOM     24  H   UNL     1      51.868   6.917  12.177  0.00  0.00    +0.000 HD
ENDBRANCH  21  22
ENDBRANCH  15  21
ENDBRANCH  14  18
ENDBRANCH   1  14
TORSDOF 5
ENDMDL
MODEL 6
REMARK VINA RESULT:    -6.112      4.090      6.026
REMARK INTER + INTRA:          -7.532
REMARK INTER:                  -7.175
REMARK INTRA:                  -0.357
REMARK UNBOUND:                 0.189
REMARK  Name = 
REMARK  5 active torsions:
REMARK  status: ('A' for Active; 'I' for Inactive)
REMARK    1  A    between atoms: N_1  and  C_2
REMARK    2  A    between atoms: C_2  and  C_3
REMARK    3  A    between atoms: C_6  and  C_7
REMARK    4  A    between atoms: C_7  and  N_8
REMARK    5  A    between atoms: C_12  and  C_13
REMARK                            x       y       z     vdW  Elec       q    Type
REMARK                         _______ _______ _______ _____ _____    ______ ____
ROOT
ATOM      1  N   UNL     1      47.393   6.274  14.428  0.00  0.00    +0.000 N 
ATOM      2  C   UNL     1      46.716   5.416  13.605  0.00  0.00    +0.000 A 
ATOM      3  C   UNL     1      46.699   4.021  13.717  0.00  0.00    +0.000 A 
ATOM      4  N   UNL     1      45.940   3.199  12.941  0.00  0.00    +0.000 NA
ATOM      5  C   UNL     1      45.162   3.849  12.037  0.00  0.00    +0.000 A 
ATOM      6  C   UNL     1      45.169   5.228  11.904  0.00  0.00    +0.000 A 
ATOM      7  N   UNL     1      45.952   6.028  12.676  0.00  0.00    +0.000 NA
ATOM      8  H   UNL     1      47.374   7.206  14.018  0.00  0.00    +0.000 HD
ENDROOT
BRANCH   5   9
ATOM      9  C   UNL     1      44.245   3.042  11.186  0.00  0.00    +0.000 C 
ATOM     10  N   UNL     1      44.818   2.390  10.127  0.00  0.00    +0.000 N 
ATOM     11  O   UNL     1      43.050   2.954  11.420  0.00  0.00    +0.000 OA
ATOM     12  H   UNL     1      45.816   2.438   9.968  0.00  0.00    +0.000 HD
ATOM     13  H   UNL     1      44.237   1.790   9.554  0.00  0.00    +0.000 HD
ENDBRANCH   5   9
BRANCH   1  14
ATOM     14  C   UNL     1      48.568   5.913  15.195  0.00  0.00    +0.000 C 
BRANCH  14  18
ATOM     15  C   UNL     1      49.754   4.260  18.488  0.00  0.00    +0.000 C 
ATOM     16  C   UNL     1      48.439   3.905  17.771  0.00  0.00    +0.000 C 
ATOM     17  C   UNL     1      47.577   5.122  17.439  0.00  0.00    +0.000 C 
ATOM     18  C   UNL     1      48.323   6.237  16.686  0.00  0.00    +0.000 C 
ATOM     19  C   UNL     1      49.628   6.602  17.401  0.00  0.00    +0.000 C 
ATOM     20  C   UNL     1      50.495   5.400  17.766  0.00  0.00    +0.000 C 
BRANCH  15  21
ATOM     21  C   UNL     1      49.477   4.511  19.986  0.00  0.00    +0.000 C 
BRANCH  21  22
ATOM     22  N   UNL     1      48.440   3.647  20.539  0.00  0.00    +0.000 NA
ATOM     23  H   UNL     1      48.287   2.865  19.902  0.00  0.00    +0.000 HD
ATOM     24  H   UNL     1      47.554   4.149  20.572  0.00  0.00    +0.000 HD
ENDBRANCH  21  22
ENDBRANCH  15  21
ENDBRANCH  14  18
ENDBRANCH   1  14
TORSDOF 5
ENDMDL
MODEL 7
REMARK VINA RESULT:    -5.959      4.069      6.321
REMARK INTER + INTRA:          -7.338
REMARK INTER:                  -7.160
REMARK INTRA:                  -0.178
REMARK UNBOUND:                 0.189
REMARK  Name = 
REMARK  5 active torsions:
REMARK  status: ('A' for Active; 'I' for Inactive)
REMARK    1  A    between atoms: N_1  and  C_2
REMARK    2  A    between atoms: C_2  and  C_3
REMARK    3  A    between atoms: C_6  and  C_7
REMARK    4  A    between atoms: C_7  and  N_8
REMARK    5  A    between atoms: C_12  and  C_13
REMARK                            x       y       z     vdW  Elec       q    Type
REMARK                         _______ _______ _______ _____ _____    ______ ____
ROOT
ATOM      1  N   UNL     1      47.526   5.155  14.914  0.00  0.00    +0.000 N 
ATOM      2  C   UNL     1      46.696   5.226  13.829  0.00  0.00    +0.000 A 
ATOM      3  C   UNL     1      46.771   6.178  12.805  0.00  0.00    +0.000 A 
ATOM      4  N   UNL     1      45.990   6.166  11.689  0.00  0.00    +0.000 NA
ATOM      5  C   UNL     1      45.121   5.124  11.628  0.00  0.00    +0.000 A 
ATOM      6  C   UNL     1      45.025   4.175  12.634  0.00  0.00    +0.000 A 
ATOM      7  N   UNL     1      45.800   4.219  13.750  0.00  0.00    +0.000 NA
ATOM      8  H   UNL     1      47.142   4.486  15.578  0.00  0.00    +0.000 HD
ENDROOT
BRANCH   5   9
ATOM      9  C   UNL     1      44.269   4.985  10.415  0.00  0.00    +0.000 C 
ATOM     10  N   UNL     1      44.925   4.734   9.240  0.00  0.00    +0.000 N 
ATOM     11  O   UNL     1      43.053   5.077  10.461  0.00  0.00    +0.000 OA
ATOM     12  H   UNL     1      45.930   4.618   9.222  0.00  0.00    +0.000 HD
ATOM     13  H   UNL     1      44.378   4.582   8.402  0.00  0.00    +0.000 HD
ENDBRANCH   5   9
BRANCH   1  14
ATOM     14  C   UNL     1      48.258   6.281  15.457  0.00  0.00    +0.000 C 
BRANCH  14  18
ATOM     15  C   UNL     1      47.548   5.734  19.223  0.00  0.00    +0.000 C 
ATOM     16  C   UNL     1      48.084   7.049  18.630  0.00  0.00    +0.000 C 
ATOM     17  C   UNL     1      49.311   6.860  17.738  0.00  0.00    +0.000 C 
ATOM     18  C   UNL     1      49.132   5.801  16.637  0.00  0.00    +0.000 C 
ATOM     19  C   UNL     1      48.609   4.485  17.223  0.00  0.00    +0.000 C 
ATOM     20  C   UNL     1      47.399   4.651  18.139  0.00  0.00    +0.000 C 
BRANCH  15  21
ATOM     21  C   UNL     1      48.408   5.323  20.437  0.00  0.00    +0.000 C 
BRANCH  21  22
ATOM     22  N   UNL     1      48.353   3.896  20.733  0.00  0.00    +0.000 NA
ATOM     23  H   UNL     1      49.284   3.497  20.611  0.00  0.00    +0.000 HD
ATOM     24  H   UNL     1      47.764   3.424  20.048  0.00  0.00    +0.000 HD
ENDBRANCH  21  22
ENDBRANCH  15  21
ENDBRANCH  14  18
ENDBRANCH   1  14
TORSDOF 5
ENDMDL
MODEL 8
REMARK VINA RESULT:    -5.619      4.712      8.364
REMARK INTER + INTRA:          -6.908
REMARK INTER:                  -6.524
REMARK INTRA:                  -0.384
REMARK UNBOUND:                 0.189
REMARK  Name = 
REMARK  5 active torsions:
REMARK  status: ('A' for Active; 'I' for Inactive)
REMARK    1  A    between atoms: N_1  and  C_2
REMARK    2  A    between atoms: C_2  and  C_3
REMARK    3  A    between atoms: C_6  and  C_7
REMARK    4  A    between atoms: C_7  and  N_8
REMARK    5  A    between atoms: C_12  and  C_13
REMARK                            x       y       z     vdW  Elec       q    Type
REMARK                         _______ _______ _______ _____ _____    ______ ____
ROOT
ATOM      1  N   UNL     1      48.472   6.651  14.396  0.00  0.00    +0.000 N 
ATOM      2  C   UNL     1      48.446   6.187  15.683  0.00  0.00    +0.000 A 
ATOM      3  C   UNL     1      48.328   4.846  16.066  0.00  0.00    +0.000 A 
ATOM      4  N   UNL     1      48.401   4.406  17.352  0.00  0.00    +0.000 NA
ATOM      5  C   UNL     1      48.622   5.388  18.265  0.00  0.00    +0.000 A 
ATOM      6  C   UNL     1      48.734   6.722  17.909  0.00  0.00    +0.000 A 
ATOM      7  N   UNL     1      48.637   7.142  16.619  0.00  0.00    +0.000 NA
ATOM      8  H   UNL     1      48.388   7.665  14.411  0.00  0.00    +0.000 HD
ENDROOT
BRANCH   5   9
ATOM      9  C   UNL     1      48.784   5.001  19.693  0.00  0.00    +0.000 C 
ATOM     10  N   UNL     1      48.513   3.695  20.001  0.00  0.00    +0.000 N 
ATOM     11  O   UNL     1      49.148   5.796  20.545  0.00  0.00    +0.000 OA
ATOM     12  H   UNL     1      48.252   3.035  19.279  0.00  0.00    +0.000 HD
ATOM     13  H   UNL     1      48.660   3.380  20.952  0.00  0.00    +0.000 HD
ENDBRANCH   5   9
BRANCH   1  14
ATOM     14  C   UNL     1      47.890   5.955  13.266  0.00  0.00    +0.000 C 
BRANCH  14  18
ATOM     15  C   UNL     1      45.025   4.584  11.053  0.00  0.00    +0.000 C 
ATOM     16  C   UNL     1      45.786   5.891  10.766  0.00  0.00    +0.000 C 
ATOM     17  C   UNL     1      45.848   6.837  11.965  0.00  0.00    +0.000 C 
ATOM     18  C   UNL     1      46.362   6.183  13.258  0.00  0.00    +0.000 C 
ATOM     19  C   UNL     1      45.601   4.886  13.556  0.00  0.00    +0.000 C 
ATOM     20  C   UNL     1      45.503   3.936  12.365  0.00  0.00    +0.000 C 
BRANCH  15  21
ATOM     21  C   UNL     1      43.505   4.839  10.972  0.00  0.00    +0.000 C 
BRANCH  21  22
ATOM     22  N   UNL     1      42.700   3.701  11.401  0.00  0.00    +0.000 NA
ATOM     23  H   UNL     1      41.869   3.643  10.811  0.00  0.00    +0.000 HD
ATOM     24  H   UNL     1      42.353   3.861  12.345  0.00  0.00    +0.000 HD
ENDBRANCH  21  22
ENDBRANCH  15  21
ENDBRANCH  14  18
ENDBRANCH   1  14
TORSDOF 5
ENDMDL
MODEL 9
REMARK VINA RESULT:    -5.228      3.694      5.931
REMARK INTER + INTRA:          -6.415
REMARK INTER:                  -6.105
REMARK INTRA:                  -0.310
REMARK UNBOUND:                 0.189
REMARK  Name = 
REMARK  5 active torsions:
REMARK  status: ('A' for Active; 'I' for Inactive)
REMARK    1  A    between atoms: N_1  and  C_2
REMARK    2  A    between atoms: C_2  and  C_3
REMARK    3  A    between atoms: C_6  and  C_7
REMARK    4  A    between atoms: C_7  and  N_8
REMARK    5  A    between atoms: C_12  and  C_13
REMARK                            x       y       z     vdW  Elec       q    Type
REMARK                         _______ _______ _______ _____ _____    ______ ____
ROOT
ATOM      1  N   UNL     1      47.230   6.586  13.987  0.00  0.00    +0.000 N 
ATOM      2  C   UNL     1      46.542   5.652  13.262  0.00  0.00    +0.000 A 
ATOM      3  C   UNL     1      46.387   4.304  13.606  0.00  0.00    +0.000 A 
ATOM      4  N   UNL     1      45.617   3.420  12.913  0.00  0.00    +0.000 NA
ATOM      5  C   UNL     1      44.975   3.959  11.844  0.00  0.00    +0.000 A 
ATOM      6  C   UNL     1      45.120   5.288  11.482  0.00  0.00    +0.000 A 
ATOM      7  N   UNL     1      45.912   6.148  12.176  0.00  0.00    +0.000 NA
ATOM      8  H   UNL     1      47.329   7.430  13.426  0.00  0.00    +0.000 HD
ENDROOT
BRANCH   5   9
ATOM      9  C   UNL     1      44.056   3.089  11.061  0.00  0.00    +0.000 C 
ATOM     10  N   UNL     1      43.385   2.126  11.766  0.00  0.00    +0.000 N 
ATOM     11  O   UNL     1      43.895   3.228   9.859  0.00  0.00    +0.000 OA
ATOM     12  H   UNL     1      43.495   2.047  12.769  0.00  0.00    +0.000 HD
ATOM     13  H   UNL     1      42.713   1.547  11.279  0.00  0.00    +0.000 HD
ENDBRANCH   5   9
BRANCH   1  14
ATOM     14  C   UNL     1      48.303   6.276  14.909  0.00  0.00    +0.000 C 
BRANCH  14  18
ATOM     15  C   UNL     1      49.344   8.933  17.525  0.00  0.00    +0.000 C 
ATOM     16  C   UNL     1      48.252   9.152  16.462  0.00  0.00    +0.000 C 
ATOM     17  C   UNL     1      48.708   8.818  15.042  0.00  0.00    +0.000 C 
ATOM     18  C   UNL     1      49.338   7.423  14.894  0.00  0.00    +0.000 C 
ATOM     19  C   UNL     1      50.434   7.203  15.942  0.00  0.00    +0.000 C 
ATOM     20  C   UNL     1      50.011   7.554  17.366  0.00  0.00    +0.000 C 
BRANCH  15  21
ATOM     21  C   UNL     1      50.319  10.129  17.522  0.00  0.00    +0.000 C 
BRANCH  21  22
ATOM     22  N   UNL     1      49.671  11.409  17.789  0.00  0.00    +0.000 NA
ATOM     23  H   UNL     1      48.877  11.253  18.410  0.00  0.00    +0.000 HD
ATOM     24  H   UNL     1      49.274  11.780  16.928  0.00  0.00    +0.000 HD
ENDBRANCH  21  22
ENDBRANCH  15  21
ENDBRANCH  14  18
ENDBRANCH   1  14
TORSDOF 5
ENDMDL
