MODEL 1
REMARK VINA RESULT:    -7.993      0.000      0.000
REMARK INTER + INTRA:         -10.054
REMARK INTER:                 -10.096
REMARK INTRA:                   0.042
REMARK UNBOUND:                 0.042
REMARK  Name = 
REMARK  6 active torsions:
REMARK  status: ('A' for Active; 'I' for Inactive)
REMARK    1  A    between atoms: C_1  and  O_2
REMARK    2  A    between atoms: O_2  and  C_3
REMARK    3  A    between atoms: C_3  and  C_5
REMARK    4  A    between atoms: N_9  and  C_10
REMARK    5  A    between atoms: C_10  and  C_11
REMARK    6  A    between atoms: C_14  and  O_15
REMARK                            x       y       z     vdW  Elec       q    Type
REMARK                         _______ _______ _______ _____ _____    ______ ____
ROOT
ATOM      1  C   UNL     1      46.266   2.177   7.876  0.00  0.00    +0.000 A 
ATOM      2  C   UNL     1      45.284   1.784   8.751  0.00  0.00    +0.000 A 
ATOM      3  N   UNL     1      44.473   2.650   9.393  0.00  0.00    +0.000 NA
ATOM      4  C   UNL     1      44.646   3.958   9.149  0.00  0.00    +0.000 A 
ATOM      5  N   UNL     1      43.828   4.888   9.764  0.00  0.00    +0.000 N 
ATOM      6  N   UNL     1      45.569   4.440   8.308  0.00  0.00    +0.000 NA
ATOM      7  C   UNL     1      46.360   3.536   7.683  0.00  0.00    +0.000 A 
ATOM      8  H   UNL     1      44.262   5.797   9.653  0.00  0.00    +0.000 HD
ENDROOT
BRANCH   1   9
ATOM      9  C   UNL     1      47.141   1.182   7.242  0.00  0.00    +0.000 C 
ATOM     10  O   UNL     1      46.940  -0.019   7.287  0.00  0.00    +0.000 OA
BRANCH   9  12
ATOM     11  C   UNL     1      47.935   2.242   5.310  0.00  0.00    +0.000 C 
ATOM     12  O   UNL     1      48.188   1.804   6.644  0.00  0.00    +0.000 OA
ENDBRANCH   9  12
ENDBRANCH   1   9
BRANCH   5  13
ATOM     13  C   UNL     1      43.405   4.547  11.106  0.00  0.00    +0.000 C 
BRANCH  13  14
ATOM     14  C   UNL     1      44.549   4.743  12.048  0.00  0.00    +0.000 A 
ATOM     15  C   UNL     1      45.148   3.676  12.695  0.00  0.00    +0.000 A 
ATOM     16  N   UNL     1      46.203   3.795  13.525  0.00  0.00    +0.000 NA
ATOM     17  C   UNL     1      46.644   5.044  13.686  0.00  0.00    +0.000 A 
ATOM     18  N   UNL     1      46.168   6.157  13.123  0.00  0.00    +0.000 NA
ATOM     19  C   UNL     1      45.116   5.975  12.302  0.00  0.00    +0.000 A 
BRANCH  17  20
ATOM     20  O   UNL     1      47.699   5.163  14.530  0.00  0.00    +0.000 OA
ATOM     21  H   UNL     1      48.389   4.809  13.945  0.00  0.00    +0.000 HD
ENDBRANCH  17  20
ENDBRANCH  13  14
ENDBRANCH   5  13
TORSDOF 5
ENDMDL
MODEL 2
REMARK VINA RESULT:    -7.604      1.595      6.456
REMARK INTER + INTRA:          -9.562
REMARK INTER:                  -9.098
REMARK INTRA:                  -0.464
REMARK UNBOUND:                 0.042
REMARK  Name = 
REMARK  6 active torsions:
REMARK  status: ('A' for Active; 'I' for Inactive)
REMARK    1  A    between atoms: C_1  and  O_2
REMARK    2  A    between atoms: O_2  and  C_3
REMARK    3  A    between atoms: C_3  and  C_5
REMARK    4  A    between atoms: N_9  and  C_10
REMARK    5  A    between atoms: C_10  and  C_11
REMARK    6  A    between atoms: C_14  and  O_15
REMARK                            x       y       z     vdW  Elec       q    Type
REMARK                         _______ _______ _______ _____ _____    ______ ____
ROOT
ATOM      1  C   UNL     1      46.813   5.192  13.417  0.00  0.00    +0.000 A 
ATOM      2  C   UNL     1      46.187   5.880  12.407  0.00  0.00    +0.000 A 
ATOM      3  N   UNL     1      45.332   5.306  11.536  0.00  0.00    +0.000 NA
ATOM      4  C   UNL     1      45.088   3.995  11.681  0.00  0.00    +0.000 A 
ATOM      5  N   UNL     1      44.203   3.360  10.829  0.00  0.00    +0.000 N 
ATOM      6  N   UNL     1      45.641   3.239  12.637  0.00  0.00    +0.000 NA
ATOM      7  C   UNL     1      46.492   3.856  13.491  0.00  0.00    +0.000 A 
ATOM      8  H   UNL     1      44.341   2.361  10.934  0.00  0.00    +0.000 HD
ENDROOT
BRANCH   1   9
ATOM      9  C   UNL     1      47.764   5.872  14.305  0.00  0.00    +0.000 C 
ATOM     10  O   UNL     1      48.233   5.364  15.308  0.00  0.00    +0.000 OA
BRANCH   9  12
ATOM     11  C   UNL     1      49.379   7.483  13.770  0.00  0.00    +0.000 C 
ATOM     12  O   UNL     1      47.999   7.129  13.851  0.00  0.00    +0.000 OA
ENDBRANCH   9  12
ENDBRANCH   1   9
BRANCH   5  13
ATOM     13  C   UNL     1      44.190   3.858   9.469  0.00  0.00    +0.000 C 
BRANCH  13  14
ATOM     14  C   UNL     1      45.236   3.145   8.673  0.00  0.00    +0.000 A 
ATOM     15  C   UNL     1      46.073   3.822   7.803  0.00  0.00    +0.000 A 
ATOM     16  N   UNL     1      47.053   3.232   7.090  0.00  0.00    +0.000 NA
ATOM     17  C   UNL     1      47.165   1.917   7.284  0.00  0.00    +0.000 A 
ATOM     18  N   UNL     1      46.434   1.145   8.092  0.00  0.00    +0.000 NA
ATOM     19  C   UNL     1      45.473   1.790   8.780  0.00  0.00    +0.000 A 
BRANCH  17  20
ATOM     20  O   UNL     1      48.145   1.324   6.558  0.00  0.00    +0.000 OA
ATOM     21  H   UNL     1      47.708   0.471   6.400  0.00  0.00    +0.000 HD
ENDBRANCH  17  20
ENDBRANCH  13  14
ENDBRANCH   5  13
TORSDOF 5
ENDMDL
MODEL 3
REMARK VINA RESULT:    -7.318      2.336      6.643
REMARK INTER + INTRA:          -9.201
REMARK INTER:                  -8.778
REMARK INTRA:                  -0.423
REMARK UNBOUND:                 0.042
REMARK  Name = 
REMARK  6 active torsions:
REMARK  status: ('A' for Active; 'I' for Inactive)
REMARK    1  A    between atoms: C_1  and  O_2
REMARK    2  A    between atoms: O_2  and  C_3
REMARK    3  A    between atoms: C_3  and  C_5
REMARK    4  A    between atoms: N_9  and  C_10
REMARK    5  A    between atoms: C_10  and  C_11
REMARK    6  A    between atoms: C_14  and  O_15
REMARK                            x       y       z     vdW  Elec       q    Type
REMARK                         _______ _______ _______ _____ _____    ______ ____
ROOT
ATOM      1  C   UNL     1      45.334   6.778  12.137  0.00  0.00    +0.000 A 
ATOM      2  C   UNL     1      44.329   6.442  11.264  0.00  0.00    +0.000 A 
ATOM      3  N   UNL     1      44.139   5.191  10.797  0.00  0.00    +0.000 NA
ATOM      4  C   UNL     1      44.984   4.238  11.219  0.00  0.00    +0.000 A 
ATOM      5  N   UNL     1      44.822   2.933  10.788  0.00  0.00    +0.000 N 
ATOM      6  N   UNL     1      45.989   4.463  12.074  0.00  0.00    +0.000 NA
ATOM      7  C   UNL     1      46.142   5.732  12.520  0.00  0.00    +0.000 A 
ATOM      8  H   UNL     1      45.676   2.431  11.008  0.00  0.00    +0.000 HD
ENDROOT
BRANCH   1   9
ATOM      9  C   UNL     1      45.506   8.169  12.574  0.00  0.00    +0.000 C 
ATOM     10  O   UNL     1      46.257   8.507  13.473  0.00  0.00    +0.000 OA
BRANCH   9  12
ATOM     11  C   UNL     1      45.180  10.315  11.690  0.00  0.00    +0.000 C 
ATOM     12  O   UNL     1      44.694   8.982  11.852  0.00  0.00    +0.000 OA
ENDBRANCH   9  12
ENDBRANCH   1   9
BRANCH   5  13
ATOM     13  C   UNL     1      44.332   2.787   9.434  0.00  0.00    +0.000 C 
BRANCH  13  14
ATOM     14  C   UNL     1      45.486   2.547   8.515  0.00  0.00    +0.000 A 
ATOM     15  C   UNL     1      46.022   1.283   8.335  0.00  0.00    +0.000 A 
ATOM     16  N   UNL     1      47.037   1.010   7.493  0.00  0.00    +0.000 NA
ATOM     17  C   UNL     1      47.504   2.066   6.825  0.00  0.00    +0.000 A 
ATOM     18  N   UNL     1      47.080   3.330   6.896  0.00  0.00    +0.000 NA
ATOM     19  C   UNL     1      46.063   3.542   7.752  0.00  0.00    +0.000 A 
BRANCH  17  20
ATOM     20  O   UNL     1      48.533   1.790   5.985  0.00  0.00    +0.000 OA
ATOM     21  H   UNL     1      48.199   0.954   5.622  0.00  0.00    +0.000 HD
ENDBRANCH  17  20
ENDBRANCH  13  14
ENDBRANCH   5  13
TORSDOF 5
ENDMDL
MODEL 4
REMARK VINA RESULT:    -5.851      4.880      8.366
REMARK INTER + INTRA:          -7.349
REMARK INTER:                  -6.996
REMARK INTRA:                  -0.352
REMARK UNBOUND:                 0.042
REMARK  Name = 
REMARK  6 active torsions:
REMARK  status: ('A' for Active; 'I' for Inactive)
REMARK    1  A    between atoms: C_1  and  O_2
REMARK    2  A    between atoms: O_2  and  C_3
REMARK    3  A    between atoms: C_3  and  C_5
REMARK    4  A    between atoms: N_9  and  C_10
REMARK    5  A    between atoms: C_10  and  C_11
REMARK    6  A    between atoms: C_14  and  O_15
REMARK                            x       y       z     vdW  Elec       q    Type
REMARK                         _______ _______ _______ _____ _____    ______ ____
ROOT
ATOM      1  C   UNL     1      49.047   4.545  17.869  0.00  0.00    +0.000 A 
ATOM      2  C   UNL     1      48.975   5.426  16.818  0.00  0.00    +0.000 A 
ATOM      3  N   UNL     1      48.124   5.276  15.781  0.00  0.00    +0.000 NA
ATOM      4  C   UNL     1      47.313   4.208  15.795  0.00  0.00    +0.000 A 
ATOM      5  N   UNL     1      46.407   4.018  14.768  0.00  0.00    +0.000 N 
ATOM      6  N   UNL     1      47.301   3.298  16.776  0.00  0.00    +0.000 NA
ATOM      7  C   UNL     1      48.169   3.487  17.799  0.00  0.00    +0.000 A 
ATOM      8  H   UNL     1      46.074   3.062  14.827  0.00  0.00    +0.000 HD
ENDROOT
BRANCH   1   9
ATOM      9  C   UNL     1      50.025   4.748  18.945  0.00  0.00    +0.000 C 
ATOM     10  O   UNL     1      49.738   4.734  20.129  0.00  0.00    +0.000 OA
BRANCH   9  12
ATOM     11  C   UNL     1      52.102   3.829  18.371  0.00  0.00    +0.000 C 
ATOM     12  O   UNL     1      51.253   4.975  18.414  0.00  0.00    +0.000 OA
ENDBRANCH   9  12
ENDBRANCH   1   9
BRANCH   5  13
ATOM     13  C   UNL     1      46.853   4.453  13.462  0.00  0.00    +0.000 C 
BRANCH  13  14
ATOM     14  C   UNL     1      45.732   5.155  12.765  0.00  0.00    +0.000 A 
ATOM     15  C   UNL     1      44.409   4.829  13.008  0.00  0.00    +0.000 A 
ATOM     16  N   UNL     1      43.363   5.455  12.434  0.00  0.00    +0.000 NA
ATOM     17  C   UNL     1      43.696   6.435  11.594  0.00  0.00    +0.000 A 
ATOM     18  N   UNL     1      44.922   6.857  11.274  0.00  0.00    +0.000 NA
ATOM     19  C   UNL     1      45.927   6.196  11.881  0.00  0.00    +0.000 A 
BRANCH  17  20
ATOM     20  O   UNL     1      42.642   7.057  11.009  0.00  0.00    +0.000 OA
ATOM     21  H   UNL     1      42.766   7.940  11.394  0.00  0.00    +0.000 HD
ENDBRANCH  17  20
ENDBRANCH  13  14
ENDBRANCH   5  13
TORSDOF 5
ENDMDL
MODEL 5
REMARK VINA RESULT:    -5.845      4.195      6.539
REMARK INTER + INTRA:          -7.341
REMARK INTER:                  -7.010
REMARK INTRA:                  -0.331
REMARK UNBOUND:                 0.042
REMARK  Name = 
REMARK  6 active torsions:
REMARK  status: ('A' for Active; 'I' for Inactive)
REMARK    1  A    between atoms: C_1  and  O_2
REMARK    2  A    between atoms: O_2  and  C_3
REMARK    3  A    between atoms: C_3  and  C_5
REMARK    4  A    between atoms: N_9  and  C_10
REMARK    5  A    between atoms: C_10  and  C_11
REMARK    6  A    between atoms: C_14  and  O_15
REMARK                            x       y       z     vdW  Elec       q    Type
REMARK                         _______ _______ _______ _____ _____    ______ ____
ROOT
ATOM      1  C   UNL     1      46.102   5.378  12.290  0.00  0.00    +0.000 A 
ATOM      2  C   UNL     1      45.573   4.519  13.221  0.00  0.00    +0.000 A 
ATOM      3  N   UNL     1      46.087   4.355  14.457  0.00  0.00    +0.000 NA
ATOM      4  C   UNL     1      47.171   5.078  14.777  0.00  0.00    +0.000 A 
ATOM      5  N   UNL     1      47.727   4.965  16.038  0.00  0.00    +0.000 N 
ATOM      6  N   UNL     1      47.755   5.948  13.944  0.00  0.00    +0.000 NA
ATOM      7  C   UNL     1      47.205   6.083  12.714  0.00  0.00    +0.000 A 
ATOM      8  H   UNL     1      48.650   5.384  16.004  0.00  0.00    +0.000 HD
ENDROOT
BRANCH   1   9
ATOM      9  C   UNL     1      45.513   5.477  10.948  0.00  0.00    +0.000 C 
ATOM     10  O   UNL     1      46.125   5.868   9.970  0.00  0.00    +0.000 OA
BRANCH   9  12
ATOM     11  C   UNL     1      43.838   4.145   9.996  0.00  0.00    +0.000 C 
ATOM     12  O   UNL     1      44.210   5.101  10.989  0.00  0.00    +0.000 OA
ENDBRANCH   9  12
ENDBRANCH   1   9
BRANCH   5  13
ATOM     13  C   UNL     1      47.653   3.646  16.630  0.00  0.00    +0.000 C 
BRANCH  13  14
ATOM     14  C   UNL     1      49.033   3.169  16.947  0.00  0.00    +0.000 A 
ATOM     15  C   UNL     1      49.938   3.966  17.627  0.00  0.00    +0.000 A 
ATOM     16  N   UNL     1      51.181   3.570  17.969  0.00  0.00    +0.000 NA
ATOM     17  C   UNL     1      51.488   2.327  17.597  0.00  0.00    +0.000 A 
ATOM     18  N   UNL     1      50.716   1.453  16.947  0.00  0.00    +0.000 NA
ATOM     19  C   UNL     1      49.485   1.903  16.636  0.00  0.00    +0.000 A 
BRANCH  17  20
ATOM     20  O   UNL     1      52.743   1.934  17.932  0.00  0.00    +0.000 OA
ATOM     21  H   UNL     1      52.777   1.113  17.416  0.00  0.00    +0.000 HD
ENDBRANCH  17  20
ENDBRANCH  13  14
ENDBRANCH   5  13
TORSDOF 5
ENDMDL
MODEL 6
REMARK VINA RESULT:    -5.831      3.531      5.446
REMARK INTER + INTRA:          -7.324
REMARK INTER:                  -7.021
REMARK INTRA:                  -0.303
REMARK UNBOUND:                 0.042
REMARK  Name = 
REMARK  6 active torsions:
REMARK  status: ('A' for Active; 'I' for Inactive)
REMARK    1  A    between atoms: C_1  and  O_2
REMARK    2  A    between atoms: O_2  and  C_3
REMARK    3  A    between atoms: C_3  and  C_5
REMARK    4  A    between atoms: N_9  and  C_10
REMARK    5  A    between atoms: C_10  and  C_11
REMARK    6  A    between atoms: C_14  and  O_15
REMARK                            x       y       z     vdW  Elec       q    Type
REMARK                         _______ _______ _______ _____ _____    ______ ____
ROOT
ATOM      1  C   UNL     1      44.575   3.792  11.952  0.00  0.00    +0.000 A 
ATOM      2  C   UNL     1      45.466   3.162  12.785  0.00  0.00    +0.000 A 
ATOM      3  N   UNL     1      46.256   3.819  13.660  0.00  0.00    +0.000 NA
ATOM      4  C   UNL     1      46.150   5.156  13.706  0.00  0.00    +0.000 A 
ATOM      5  N   UNL     1      46.921   5.878  14.599  0.00  0.00    +0.000 N 
ATOM      6  N   UNL     1      45.307   5.860  12.942  0.00  0.00    +0.000 NA
ATOM      7  C   UNL     1      44.531   5.161  12.081  0.00  0.00    +0.000 A 
ATOM      8  H   UNL     1      46.884   6.851  14.318  0.00  0.00    +0.000 HD
ENDROOT
BRANCH   1   9
ATOM      9  C   UNL     1      43.774   3.017  10.996  0.00  0.00    +0.000 C 
ATOM     10  O   UNL     1      42.910   2.224  11.326  0.00  0.00    +0.000 OA
BRANCH   9  12
ATOM     11  C   UNL     1      44.945   2.282   9.105  0.00  0.00    +0.000 C 
ATOM     12  O   UNL     1      44.167   3.302   9.729  0.00  0.00    +0.000 OA
ENDBRANCH   9  12
ENDBRANCH   1   9
BRANCH   5  13
ATOM     13  C   UNL     1      48.242   5.341  14.849  0.00  0.00    +0.000 C 
BRANCH  13  14
ATOM     14  C   UNL     1      48.324   4.871  16.266  0.00  0.00    +0.000 A 
ATOM     15  C   UNL     1      48.745   5.708  17.285  0.00  0.00    +0.000 A 
ATOM     16  N   UNL     1      48.803   5.345  18.582  0.00  0.00    +0.000 NA
ATOM     17  C   UNL     1      48.418   4.091  18.823  0.00  0.00    +0.000 A 
ATOM     18  N   UNL     1      47.987   3.184  17.943  0.00  0.00    +0.000 NA
ATOM     19  C   UNL     1      47.948   3.605  16.665  0.00  0.00    +0.000 A 
BRANCH  17  20
ATOM     20  O   UNL     1      48.487   3.723  20.127  0.00  0.00    +0.000 OA
ATOM     21  H   UNL     1      48.676   2.779  19.999  0.00  0.00    +0.000 HD
ENDBRANCH  17  20
ENDBRANCH  13  14
ENDBRANCH   5  13
TORSDOF 5
ENDMDL
MODEL 7
REMARK VINA RESULT:    -5.724      2.232      6.192
REMARK INTER + INTRA:          -7.189
REMARK INTER:                  -6.930
REMARK INTRA:                  -0.259
REMARK UNBOUND:                 0.042
REMARK  Name = 
REMARK  6 active torsions:
REMARK  status: ('A' for Active; 'I' for Inactive)
REMARK    1  A    between atoms: C_1  and  O_2
REMARK    2  A    between atoms: O_2  and  C_3
REMARK    3  A    between atoms: C_3  and  C_5
REMARK    4  A    between atoms: N_9  and  C_10
REMARK    5  A    between atoms: C_10  and  C_11
REMARK    6  A    between atoms: C_14  and  O_15
REMARK                            x       y       z     vdW  Elec       q    Type
REMARK                         _______ _______ _______ _____ _____    ______ ____
ROOT
ATOM      1  C   UNL     1      47.330   6.754  12.889  0.00  0.00    +0.000 A 
ATOM      2  C   UNL     1      46.436   7.230  11.962  0.00  0.00    +0.000 A 
ATOM      3  N   UNL     1      45.152   6.822  11.892  0.00  0.00    +0.000 NA
ATOM      4  C   UNL     1      44.744   5.906  12.783  0.00  0.00    +0.000 A 
ATOM      5  N   UNL     1      43.432   5.468  12.769  0.00  0.00    +0.000 N 
ATOM      6  N   UNL     1      45.535   5.387  13.729  0.00  0.00    +0.000 NA
ATOM      7  C   UNL     1      46.816   5.827  13.766  0.00  0.00    +0.000 A 
ATOM      8  H   UNL     1      43.386   4.625  13.331  0.00  0.00    +0.000 HD
ENDROOT
BRANCH   1   9
ATOM      9  C   UNL     1      48.724   7.214  12.883  0.00  0.00    +0.000 C 
ATOM     10  O   UNL     1      49.166   8.021  12.085  0.00  0.00    +0.000 OA
BRANCH   9  12
ATOM     11  C   UNL     1      50.008   7.461  14.828  0.00  0.00    +0.000 C 
ATOM     12  O   UNL     1      49.420   6.587  13.866  0.00  0.00    +0.000 OA
ENDBRANCH   9  12
ENDBRANCH   1   9
BRANCH   5  13
ATOM     13  C   UNL     1      42.821   5.389  11.459  0.00  0.00    +0.000 C 
BRANCH  13  14
ATOM     14  C   UNL     1      43.501   4.324  10.660  0.00  0.00    +0.000 A 
ATOM     15  C   UNL     1      43.628   3.030  11.135  0.00  0.00    +0.000 A 
ATOM     16  N   UNL     1      44.200   2.026  10.440  0.00  0.00    +0.000 NA
ATOM     17  C   UNL     1      44.647   2.373   9.233  0.00  0.00    +0.000 A 
ATOM     18  N   UNL     1      44.585   3.574   8.651  0.00  0.00    +0.000 NA
ATOM     19  C   UNL     1      44.001   4.535   9.392  0.00  0.00    +0.000 A 
BRANCH  17  20
ATOM     20  O   UNL     1      45.232   1.364   8.539  0.00  0.00    +0.000 OA
ATOM     21  H   UNL     1      44.666   1.387   7.751  0.00  0.00    +0.000 HD
ENDBRANCH  17  20
ENDBRANCH  13  14
ENDBRANCH   5  13
TORSDOF 5
ENDMDL
MODEL 8
REMARK VINA RESULT:    -5.650      4.207      6.589
REMARK INTER + INTRA:          -7.095
REMARK INTER:                  -6.756
REMARK INTRA:                  -0.339
REMARK UNBOUND:                 0.042
REMARK  Name = 
REMARK  6 active torsions:
REMARK  status: ('A' for Active; 'I' for Inactive)
REMARK    1  A    between atoms: C_1  and  O_2
REMARK    2  A    between atoms: O_2  and  C_3
REMARK    3  A    between atoms: C_3  and  C_5
REMARK    4  A    between atoms: N_9  and  C_10
REMARK    5  A    between atoms: C_10  and  C_11
REMARK    6  A    between atoms: C_14  and  O_15
REMARK                            x       y       z     vdW  Elec       q    Type
REMARK                         _______ _______ _______ _____ _____    ______ ____
ROOT
ATOM      1  C   UNL     1      49.703   8.370  12.127  0.00  0.00    +0.000 A 
ATOM      2  C   UNL     1      48.496   8.882  11.717  0.00  0.00    +0.000 A 
ATOM      3  N   UNL     1      47.306   8.380  12.106  0.00  0.00    +0.000 NA
ATOM      4  C   UNL     1      47.320   7.328  12.939  0.00  0.00    +0.000 A 
ATOM      5  N   UNL     1      46.129   6.787  13.386  0.00  0.00    +0.000 N 
ATOM      6  N   UNL     1      48.442   6.763  13.402  0.00  0.00    +0.000 NA
ATOM      7  C   UNL     1      49.615   7.300  12.988  0.00  0.00    +0.000 A 
ATOM      8  H   UNL     1      46.337   5.880  13.788  0.00  0.00    +0.000 HD
ENDROOT
BRANCH   1   9
ATOM      9  C   UNL     1      50.961   8.942  11.633  0.00  0.00    +0.000 C 
ATOM     10  O   UNL     1      51.228  10.129  11.681  0.00  0.00    +0.000 OA
BRANCH   9  12
ATOM     11  C   UNL     1      52.430   8.329   9.914  0.00  0.00    +0.000 C 
ATOM     12  O   UNL     1      51.736   7.961  11.105  0.00  0.00    +0.000 OA
ENDBRANCH   9  12
ENDBRANCH   1   9
BRANCH   5  13
ATOM     13  C   UNL     1      45.039   6.823  12.435  0.00  0.00    +0.000 C 
BRANCH  13  14
ATOM     14  C   UNL     1      44.483   5.445  12.269  0.00  0.00    +0.000 A 
ATOM     15  C   UNL     1      43.451   5.180  11.386  0.00  0.00    +0.000 A 
ATOM     16  N   UNL     1      42.939   3.951  11.174  0.00  0.00    +0.000 NA
ATOM     17  C   UNL     1      43.509   2.982  11.891  0.00  0.00    +0.000 A 
ATOM     18  N   UNL     1      44.510   3.094  12.768  0.00  0.00    +0.000 NA
ATOM     19  C   UNL     1      44.981   4.344  12.935  0.00  0.00    +0.000 A 
BRANCH  17  20
ATOM     20  O   UNL     1      42.986   1.747  11.684  0.00  0.00    +0.000 OA
ATOM     21  H   UNL     1      42.288   1.993  11.055  0.00  0.00    +0.000 HD
ENDBRANCH  17  20
ENDBRANCH  13  14
ENDBRANCH   5  13
TORSDOF 5
ENDMDL
MODEL 9
REMARK VINA RESULT:    -5.517      3.767      7.277
REMARK INTER + INTRA:          -6.926
REMARK INTER:                  -6.574
REMARK INTRA:                  -0.352
REMARK UNBOUND:                 0.042
REMARK  Name = 
REMARK  6 active torsions:
REMARK  status: ('A' for Active; 'I' for Inactive)
REMARK    1  A    between atoms: C_1  and  O_2
REMARK    2  A    between atoms: O_2  and  C_3
REMARK    3  A    between atoms: C_3  and  C_5
REMARK    4  A    between atoms: N_9  and  C_10
REMARK    5  A    between atoms: C_10  and  C_11
REMARK    6  A    between atoms: C_14  and  O_15
REMARK                            x       y       z     vdW  Elec       q    Type
REMARK                         _______ _______ _______ _____ _____    ______ ____
ROOT
ATOM      1  C   UNL     1      49.684   7.675  13.929  0.00  0.00    +0.000 A 
ATOM      2  C   UNL     1      48.562   7.035  14.395  0.00  0.00    +0.000 A 
ATOM      3  N   UNL     1      47.549   6.638  13.598  0.00  0.00    +0.000 NA
ATOM      4  C   UNL     1      47.660   6.887  12.285  0.00  0.00    +0.000 A 
ATOM      5  N   UNL     1      46.660   6.484  11.419  0.00  0.00    +0.000 N 
ATOM      6  N   UNL     1      48.716   7.497  11.732  0.00  0.00    +0.000 NA
ATOM      7  C   UNL     1      49.712   7.876  12.568  0.00  0.00    +0.000 A 
ATOM      8  H   UNL     1      46.804   6.967  10.539  0.00  0.00    +0.000 HD
ENDROOT
BRANCH   1   9
ATOM      9  C   UNL     1      50.731   8.114  14.859  0.00  0.00    +0.000 C 
ATOM     10  O   UNL     1      51.893   7.752  14.788  0.00  0.00    +0.000 OA
BRANCH   9  12
ATOM     11  C   UNL     1      50.868  10.193  15.931  0.00  0.00    +0.000 C 
ATOM     12  O   UNL     1      50.199   8.939  15.795  0.00  0.00    +0.000 OA
ENDBRANCH   9  12
ENDBRANCH   1   9
BRANCH   5  13
ATOM     13  C   UNL     1      45.318   6.536  11.959  0.00  0.00    +0.000 C 
BRANCH  13  14
ATOM     14  C   UNL     1      44.688   5.185  11.848  0.00  0.00    +0.000 A 
ATOM     15  C   UNL     1      44.340   4.452  12.969  0.00  0.00    +0.000 A 
ATOM     16  N   UNL     1      43.738   3.247  12.923  0.00  0.00    +0.000 NA
ATOM     17  C   UNL     1      43.495   2.796  11.692  0.00  0.00    +0.000 A 
ATOM     18  N   UNL     1      43.769   3.397  10.532  0.00  0.00    +0.000 NA
ATOM     19  C   UNL     1      44.367   4.598  10.641  0.00  0.00    +0.000 A 
BRANCH  17  20
ATOM     20  O   UNL     1      42.899   1.578  11.648  0.00  0.00    +0.000 OA
ATOM     21  H   UNL     1      43.620   1.053  12.031  0.00  0.00    +0.000 HD
ENDBRANCH  17  20
ENDBRANCH  13  14
ENDBRANCH   5  13
TORSDOF 5
ENDMDL
