MODEL 1
REMARK VINA RESULT:    -8.519      0.000      0.000
REMARK INTER + INTRA:         -12.501
REMARK INTER:                 -11.507
REMARK INTRA:                  -0.994
REMARK UNBOUND:                -0.994
REMARK  Name = 
REMARK  10 active torsions:
REMARK  status: ('A' for Active; 'I' for Inactive)
REMARK    1  A    between atoms: C_1  and  C_2
REMARK    2  A    between atoms: C_2  and  C_3
REMARK    3  A    between atoms: C_5  and  N_6
REMARK    4  A    between atoms: C_9  and  C_10
REMARK    5  A    between atoms: C_10  and  C_11
REMARK    6  A    between atoms: C_10  and  C_12
REMARK    7  A    between atoms: C_10  and  C_13
REMARK    8  A    between atoms: C_13  and  N_14
REMARK    9  A    between atoms: N_14  and  C_15
REMARK   10  A    between atoms: C_18  and  C_19
REMARK                            x       y       z     vdW  Elec       q    Type
REMARK                         _______ _______ _______ _____ _____    ______ ____
ROOT
ATOM      1  C   UNL     1      44.090   4.577  12.289  0.00  0.00    +0.000 C 
ATOM      2  C   UNL     1      44.000   3.035  12.407  0.00  0.00    +0.000 C 
ATOM      3  C   UNL     1      42.998   5.188  13.199  0.00  0.00    +0.000 C 
ENDROOT
BRANCH   1   7
ATOM      4  N   UNL     1      48.156   7.389  11.720  0.00  0.00    +0.000 N 
ATOM      5  C   UNL     1      47.475   6.402  12.467  0.00  0.00    +0.000 A 
ATOM      6  C   UNL     1      46.244   5.939  11.991  0.00  0.00    +0.000 A 
ATOM      7  C   UNL     1      45.482   5.034  12.755  0.00  0.00    +0.000 A 
ATOM      8  C   UNL     1      46.054   4.616  13.963  0.00  0.00    +0.000 A 
ATOM      9  C   UNL     1      47.307   5.080  14.331  0.00  0.00    +0.000 A 
ATOM     10  N   UNL     1      48.015   5.969  13.614  0.00  0.00    +0.000 NA
ATOM     11  H   UNL     1      48.532   6.937  10.892  0.00  0.00    +0.000 HD
BRANCH   4  16
ATOM     12  C   UNL     1      51.108  10.460  12.989  0.00  0.00    +0.000 C 
ATOM     13  C   UNL     1      50.225  10.028  11.820  0.00  0.00    +0.000 C 
ATOM     14  C   UNL     1      50.371  10.968  10.628  0.00  0.00    +0.000 C 
ATOM     15  C   UNL     1      48.751   9.748  12.220  0.00  0.00    +0.000 C 
ATOM     16  C   UNL     1      49.115   8.246  12.357  0.00  0.00    +0.000 C 
ATOM     17  C   UNL     1      50.335   8.519  11.451  0.00  0.00    +0.000 C 
ENDBRANCH   4  16
ENDBRANCH   1   7
BRANCH   1  18
ATOM     18  C   UNL     1      43.752   4.918  10.797  0.00  0.00    +0.000 C 
BRANCH  18  19
ATOM     19  N   UNL     1      43.622   3.730   9.956  0.00  0.00    +0.000 N 
ATOM     20  H   UNL     1      43.010   2.995  10.293  0.00  0.00    +0.000 HD
BRANCH  19  21
ATOM     21  C   UNL     1      44.599   3.324   9.064  0.00  0.00    +0.000 A 
ATOM     22  C   UNL     1      45.024   1.998   8.931  0.00  0.00    +0.000 A 
ATOM     23  C   UNL     1      46.071   1.658   8.068  0.00  0.00    +0.000 A 
ATOM     24  C   UNL     1      46.729   2.644   7.336  0.00  0.00    +0.000 A 
ATOM     25  C   UNL     1      46.351   3.979   7.488  0.00  0.00    +0.000 A 
ATOM     26  C   UNL     1      45.298   4.309   8.350  0.00  0.00    +0.000 A 
BRANCH  24  27
ATOM     27  C   UNL     1      47.847   2.232   6.457  0.00  0.00    +0.000 C 
ATOM     28  N   UNL     1      47.941   2.831   5.226  0.00  0.00    +0.000 N 
ATOM     29  O   UNL     1      48.644   1.363   6.783  0.00  0.00    +0.000 OA
ATOM     30  H   UNL     1      47.206   3.399   4.831  0.00  0.00    +0.000 HD
ATOM     31  H   UNL     1      48.654   2.472   4.602  0.00  0.00    +0.000 HD
ENDBRANCH  24  27
ENDBRANCH  19  21
ENDBRANCH  18  19
ENDBRANCH   1  18
TORSDOF 6
ENDMDL
MODEL 2
REMARK VINA RESULT:    -8.340      2.970      4.462
REMARK INTER + INTRA:         -12.259
REMARK INTER:                 -11.267
REMARK INTRA:                  -0.992
REMARK UNBOUND:                -0.994
REMARK  Name = 
REMARK  10 active torsions:
REMARK  status: ('A' for Active; 'I' for Inactive)
REMARK    1  A    between atoms: C_1  and  C_2
REMARK    2  A    between atoms: C_2  and  C_3
REMARK    3  A    between atoms: C_5  and  N_6
REMARK    4  A    between atoms: C_9  and  C_10
REMARK    5  A    between atoms: C_10  and  C_11
REMARK    6  A    between atoms: C_10  and  C_12
REMARK    7  A    between atoms: C_10  and  C_13
REMARK    8  A    between atoms: C_13  and  N_14
REMARK    9  A    between atoms: N_14  and  C_15
REMARK   10  A    between atoms: C_18  and  C_19
REMARK                            x       y       z     vdW  Elec       q    Type
REMARK                         _______ _______ _______ _____ _____    ______ ____
ROOT
ATOM      1  C   UNL     1      45.008   6.341  12.073  0.00  0.00    +0.000 C 
ATOM      2  C   UNL     1      43.540   5.869  12.226  0.00  0.00    +0.000 C 
ATOM      3  C   UNL     1      45.076   7.826  12.502  0.00  0.00    +0.000 C 
ENDROOT
BRANCH   1   7
ATOM      4  N   UNL     1      48.161   5.909  15.897  0.00  0.00    +0.000 N 
ATOM      5  C   UNL     1      47.458   5.280  14.846  0.00  0.00    +0.000 A 
ATOM      6  C   UNL     1      46.705   6.078  13.979  0.00  0.00    +0.000 A 
ATOM      7  C   UNL     1      45.905   5.486  12.982  0.00  0.00    +0.000 A 
ATOM      8  C   UNL     1      45.957   4.089  12.902  0.00  0.00    +0.000 A 
ATOM      9  C   UNL     1      46.777   3.379  13.765  0.00  0.00    +0.000 A 
ATOM     10  N   UNL     1      47.513   3.946  14.736  0.00  0.00    +0.000 NA
ATOM     11  H   UNL     1      48.957   6.389  15.486  0.00  0.00    +0.000 HD
BRANCH   4  16
ATOM     12  C   UNL     1      48.839   4.187  19.938  0.00  0.00    +0.000 C 
ATOM     13  C   UNL     1      48.156   5.339  19.203  0.00  0.00    +0.000 C 
ATOM     14  C   UNL     1      47.418   6.261  20.167  0.00  0.00    +0.000 C 
ATOM     15  C   UNL     1      47.300   4.886  17.990  0.00  0.00    +0.000 C 
ATOM     16  C   UNL     1      48.519   5.169  17.074  0.00  0.00    +0.000 C 
ATOM     17  C   UNL     1      49.069   6.087  18.187  0.00  0.00    +0.000 C 
ENDBRANCH   4  16
ENDBRANCH   1   7
BRANCH   1  18
ATOM     18  C   UNL     1      45.337   6.242  10.544  0.00  0.00    +0.000 C 
BRANCH  18  19
ATOM     19  N   UNL     1      44.532   5.239   9.850  0.00  0.00    +0.000 N 
ATOM     20  H   UNL     1      43.585   5.101  10.184  0.00  0.00    +0.000 HD
BRANCH  19  21
ATOM     21  C   UNL     1      45.082   4.168   9.169  0.00  0.00    +0.000 A 
ATOM     22  C   UNL     1      44.888   2.833   9.539  0.00  0.00    +0.000 A 
ATOM     23  C   UNL     1      45.532   1.794   8.859  0.00  0.00    +0.000 A 
ATOM     24  C   UNL     1      46.403   2.072   7.808  0.00  0.00    +0.000 A 
ATOM     25  C   UNL     1      46.646   3.400   7.452  0.00  0.00    +0.000 A 
ATOM     26  C   UNL     1      45.992   4.433   8.134  0.00  0.00    +0.000 A 
BRANCH  24  27
ATOM     27  C   UNL     1      47.078   0.936   7.140  0.00  0.00    +0.000 C 
ATOM     28  N   UNL     1      46.751  -0.330   7.556  0.00  0.00    +0.000 N 
ATOM     29  O   UNL     1      47.928   1.102   6.275  0.00  0.00    +0.000 OA
ATOM     30  H   UNL     1      46.214  -0.516   8.391  0.00  0.00    +0.000 HD
ATOM     31  H   UNL     1      47.288  -1.090   7.157  0.00  0.00    +0.000 HD
ENDBRANCH  24  27
ENDBRANCH  19  21
ENDBRANCH  18  19
ENDBRANCH   1  18
TORSDOF 6
ENDMDL
MODEL 3
REMARK VINA RESULT:    -8.292      2.275      4.300
REMARK INTER + INTRA:         -12.194
REMARK INTER:                 -11.315
REMARK INTRA:                  -0.879
REMARK UNBOUND:                -0.994
REMARK  Name = 
REMARK  10 active torsions:
REMARK  status: ('A' for Active; 'I' for Inactive)
REMARK    1  A    between atoms: C_1  and  C_2
REMARK    2  A    between atoms: C_2  and  C_3
REMARK    3  A    between atoms: C_5  and  N_6
REMARK    4  A    between atoms: C_9  and  C_10
REMARK    5  A    between atoms: C_10  and  C_11
REMARK    6  A    between atoms: C_10  and  C_12
REMARK    7  A    between atoms: C_10  and  C_13
REMARK    8  A    between atoms: C_13  and  N_14
REMARK    9  A    between atoms: N_14  and  C_15
REMARK   10  A    between atoms: C_18  and  C_19
REMARK                            x       y       z     vdW  Elec       q    Type
REMARK                         _______ _______ _______ _____ _____    ______ ____
ROOT
ATOM      1  C   UNL     1      44.016   4.868  12.174  0.00  0.00    +0.000 C 
ATOM      2  C   UNL     1      42.921   4.902  13.270  0.00  0.00    +0.000 C 
ATOM      3  C   UNL     1      43.658   5.936  11.112  0.00  0.00    +0.000 C 
ENDROOT
BRANCH   1   7
ATOM      4  N   UNL     1      47.204   4.585  15.983  0.00  0.00    +0.000 N 
ATOM      5  C   UNL     1      46.928   5.064  14.683  0.00  0.00    +0.000 A 
ATOM      6  C   UNL     1      45.660   4.827  14.143  0.00  0.00    +0.000 A 
ATOM      7  C   UNL     1      45.375   5.193  12.813  0.00  0.00    +0.000 A 
ATOM      8  C   UNL     1      46.409   5.831  12.116  0.00  0.00    +0.000 A 
ATOM      9  C   UNL     1      47.617   6.080  12.749  0.00  0.00    +0.000 A 
ATOM     10  N   UNL     1      47.895   5.699  14.007  0.00  0.00    +0.000 NA
ATOM     11  H   UNL     1      46.702   5.179  16.638  0.00  0.00    +0.000 HD
BRANCH   4  16
ATOM     12  C   UNL     1      51.116   3.987  18.006  0.00  0.00    +0.000 C 
ATOM     13  C   UNL     1      49.653   4.341  18.264  0.00  0.00    +0.000 C 
ATOM     14  C   UNL     1      49.385   4.582  19.745  0.00  0.00    +0.000 C 
ATOM     15  C   UNL     1      48.647   3.366  17.596  0.00  0.00    +0.000 C 
ATOM     16  C   UNL     1      48.557   4.342  16.394  0.00  0.00    +0.000 C 
ATOM     17  C   UNL     1      49.084   5.451  17.330  0.00  0.00    +0.000 C 
ENDBRANCH   4  16
ENDBRANCH   1   7
BRANCH   1  18
ATOM     18  C   UNL     1      43.923   3.450  11.513  0.00  0.00    +0.000 C 
BRANCH  18  19
ATOM     19  N   UNL     1      43.777   3.507  10.060  0.00  0.00    +0.000 N 
ATOM     20  H   UNL     1      42.848   3.346   9.686  0.00  0.00    +0.000 HD
BRANCH  19  21
ATOM     21  C   UNL     1      44.818   3.256   9.185  0.00  0.00    +0.000 A 
ATOM     22  C   UNL     1      45.412   4.239   8.386  0.00  0.00    +0.000 A 
ATOM     23  C   UNL     1      46.410   3.913   7.461  0.00  0.00    +0.000 A 
ATOM     24  C   UNL     1      46.818   2.590   7.301  0.00  0.00    +0.000 A 
ATOM     25  C   UNL     1      46.207   1.587   8.056  0.00  0.00    +0.000 A 
ATOM     26  C   UNL     1      45.213   1.924   8.983  0.00  0.00    +0.000 A 
BRANCH  24  27
ATOM     27  C   UNL     1      47.860   2.298   6.290  0.00  0.00    +0.000 C 
ATOM     28  N   UNL     1      47.776   2.951   5.086  0.00  0.00    +0.000 N 
ATOM     29  O   UNL     1      48.746   1.478   6.488  0.00  0.00    +0.000 OA
ATOM     30  H   UNL     1      46.964   3.478   4.798  0.00  0.00    +0.000 HD
ATOM     31  H   UNL     1      48.439   2.671   4.373  0.00  0.00    +0.000 HD
ENDBRANCH  24  27
ENDBRANCH  19  21
ENDBRANCH  18  19
ENDBRANCH   1  18
TORSDOF 6
ENDMDL
MODEL 4
REMARK VINA RESULT:    -7.597      2.531      3.039
REMARK INTER + INTRA:         -11.255
REMARK INTER:                 -10.320
REMARK INTRA:                  -0.934
REMARK UNBOUND:                -0.994
REMARK  Name = 
REMARK  10 active torsions:
REMARK  status: ('A' for Active; 'I' for Inactive)
REMARK    1  A    between atoms: C_1  and  C_2
REMARK    2  A    between atoms: C_2  and  C_3
REMARK    3  A    between atoms: C_5  and  N_6
REMARK    4  A    between atoms: C_9  and  C_10
REMARK    5  A    between atoms: C_10  and  C_11
REMARK    6  A    between atoms: C_10  and  C_12
REMARK    7  A    between atoms: C_10  and  C_13
REMARK    8  A    between atoms: C_13  and  N_14
REMARK    9  A    between atoms: N_14  and  C_15
REMARK   10  A    between atoms: C_18  and  C_19
REMARK                            x       y       z     vdW  Elec       q    Type
REMARK                         _______ _______ _______ _____ _____    ______ ____
ROOT
ATOM      1  C   UNL     1      44.774   6.546  11.909  0.00  0.00    +0.000 C 
ATOM      2  C   UNL     1      43.436   5.838  12.244  0.00  0.00    +0.000 C 
ATOM      3  C   UNL     1      44.573   8.066  12.124  0.00  0.00    +0.000 C 
ENDROOT
BRANCH   1   7
ATOM      4  N   UNL     1      49.019   7.188  14.423  0.00  0.00    +0.000 N 
ATOM      5  C   UNL     1      47.952   6.333  14.071  0.00  0.00    +0.000 A 
ATOM      6  C   UNL     1      47.004   6.796  13.153  0.00  0.00    +0.000 A 
ATOM      7  C   UNL     1      45.868   6.020  12.852  0.00  0.00    +0.000 A 
ATOM      8  C   UNL     1      45.789   4.774  13.486  0.00  0.00    +0.000 A 
ATOM      9  C   UNL     1      46.805   4.368  14.337  0.00  0.00    +0.000 A 
ATOM     10  N   UNL     1      47.870   5.126  14.647  0.00  0.00    +0.000 NA
ATOM     11  H   UNL     1      49.654   7.223  13.631  0.00  0.00    +0.000 HD
BRANCH   4  16
ATOM     12  C   UNL     1      51.135   7.450  18.323  0.00  0.00    +0.000 C 
ATOM     13  C   UNL     1      50.493   8.297  17.226  0.00  0.00    +0.000 C 
ATOM     14  C   UNL     1      50.580   9.786  17.542  0.00  0.00    +0.000 C 
ATOM     15  C   UNL     1      49.070   7.824  16.824  0.00  0.00    +0.000 C 
ATOM     16  C   UNL     1      49.709   7.010  15.669  0.00  0.00    +0.000 C 
ATOM     17  C   UNL     1      50.944   7.930  15.781  0.00  0.00    +0.000 C 
ENDBRANCH   4  16
ENDBRANCH   1   7
BRANCH   1  18
ATOM     18  C   UNL     1      45.034   6.282  10.387  0.00  0.00    +0.000 C 
BRANCH  18  19
ATOM     19  N   UNL     1      44.300   5.128   9.874  0.00  0.00    +0.000 N 
ATOM     20  H   UNL     1      43.431   4.893  10.342  0.00  0.00    +0.000 HD
BRANCH  19  21
ATOM     21  C   UNL     1      44.906   4.087   9.194  0.00  0.00    +0.000 A 
ATOM     22  C   UNL     1      44.710   2.738   9.508  0.00  0.00    +0.000 A 
ATOM     23  C   UNL     1      45.410   1.730   8.837  0.00  0.00    +0.000 A 
ATOM     24  C   UNL     1      46.340   2.054   7.851  0.00  0.00    +0.000 A 
ATOM     25  C   UNL     1      46.585   3.396   7.554  0.00  0.00    +0.000 A 
ATOM     26  C   UNL     1      45.875   4.398   8.227  0.00  0.00    +0.000 A 
BRANCH  24  27
ATOM     27  C   UNL     1      47.072   0.950   7.191  0.00  0.00    +0.000 C 
ATOM     28  N   UNL     1      46.815  -0.328   7.620  0.00  0.00    +0.000 N 
ATOM     29  O   UNL     1      47.908   1.152   6.321  0.00  0.00    +0.000 OA
ATOM     30  H   UNL     1      46.292  -0.534   8.459  0.00  0.00    +0.000 HD
ATOM     31  H   UNL     1      47.390  -1.062   7.225  0.00  0.00    +0.000 HD
ENDBRANCH  24  27
ENDBRANCH  19  21
ENDBRANCH  18  19
ENDBRANCH   1  18
TORSDOF 6
ENDMDL
MODEL 5
REMARK VINA RESULT:    -6.599      4.514      8.833
REMARK INTER + INTRA:          -9.908
REMARK INTER:                  -8.388
REMARK INTRA:                  -1.520
REMARK UNBOUND:                -0.994
REMARK  Name = 
REMARK  10 active torsions:
REMARK  status: ('A' for Active; 'I' for Inactive)
REMARK    1  A    between atoms: C_1  and  C_2
REMARK    2  A    between atoms: C_2  and  C_3
REMARK    3  A    between atoms: C_5  and  N_6
REMARK    4  A    between atoms: C_9  and  C_10
REMARK    5  A    between atoms: C_10  and  C_11
REMARK    6  A    between atoms: C_10  and  C_12
REMARK    7  A    between atoms: C_10  and  C_13
REMARK    8  A    between atoms: C_13  and  N_14
REMARK    9  A    between atoms: N_14  and  C_15
REMARK   10  A    between atoms: C_18  and  C_19
REMARK                            x       y       z     vdW  Elec       q    Type
REMARK                         _______ _______ _______ _____ _____    ______ ____
ROOT
ATOM      1  C   UNL     1      49.730   8.781  17.782  0.00  0.00    +0.000 C 
ATOM      2  C   UNL     1      50.020  10.289  17.578  0.00  0.00    +0.000 C 
ATOM      3  C   UNL     1      48.394   8.653  18.552  0.00  0.00    +0.000 C 
ENDROOT
BRANCH   1   7
ATOM      4  N   UNL     1      47.375   5.746  14.619  0.00  0.00    +0.000 N 
ATOM      5  C   UNL     1      48.466   6.609  14.866  0.00  0.00    +0.000 A 
ATOM      6  C   UNL     1      48.603   7.158  16.144  0.00  0.00    +0.000 A 
ATOM      7  C   UNL     1      49.613   8.103  16.406  0.00  0.00    +0.000 A 
ATOM      8  C   UNL     1      50.467   8.404  15.338  0.00  0.00    +0.000 A 
ATOM      9  C   UNL     1      50.295   7.767  14.118  0.00  0.00    +0.000 A 
ATOM     10  N   UNL     1      49.309   6.891  13.863  0.00  0.00    +0.000 NA
ATOM     11  H   UNL     1      47.571   4.866  15.086  0.00  0.00    +0.000 HD
BRANCH   4  16
ATOM     12  C   UNL     1      45.132   5.146  10.828  0.00  0.00    +0.000 C 
ATOM     13  C   UNL     1      44.955   5.302  12.338  0.00  0.00    +0.000 C 
ATOM     14  C   UNL     1      43.486   5.242  12.740  0.00  0.00    +0.000 C 
ATOM     15  C   UNL     1      45.719   6.515  12.934  0.00  0.00    +0.000 C 
ATOM     16  C   UNL     1      46.889   5.557  13.282  0.00  0.00    +0.000 C 
ATOM     17  C   UNL     1      45.882   4.389  13.194  0.00  0.00    +0.000 C 
ENDBRANCH   4  16
ENDBRANCH   1   7
BRANCH   1  18
ATOM     18  C   UNL     1      50.887   8.236  18.687  0.00  0.00    +0.000 C 
BRANCH  18  19
ATOM     19  N   UNL     1      50.509   7.041  19.438  0.00  0.00    +0.000 N 
ATOM     20  H   UNL     1      50.589   7.089  20.448  0.00  0.00    +0.000 HD
BRANCH  19  21
ATOM     21  C   UNL     1      50.550   5.766  18.902  0.00  0.00    +0.000 A 
ATOM     22  C   UNL     1      51.656   5.246  18.223  0.00  0.00    +0.000 A 
ATOM     23  C   UNL     1      51.613   3.978  17.634  0.00  0.00    +0.000 A 
ATOM     24  C   UNL     1      50.450   3.213  17.693  0.00  0.00    +0.000 A 
ATOM     25  C   UNL     1      49.319   3.731  18.326  0.00  0.00    +0.000 A 
ATOM     26  C   UNL     1      49.374   4.999  18.918  0.00  0.00    +0.000 A 
BRANCH  24  27
ATOM     27  C   UNL     1      50.450   1.889  17.029  0.00  0.00    +0.000 C 
ATOM     28  N   UNL     1      51.275   0.921  17.545  0.00  0.00    +0.000 N 
ATOM     29  O   UNL     1      49.776   1.660  16.034  0.00  0.00    +0.000 OA
ATOM     30  H   UNL     1      51.991   1.113  18.230  0.00  0.00    +0.000 HD
ATOM     31  H   UNL     1      51.333   0.053  17.025  0.00  0.00    +0.000 HD
ENDBRANCH  24  27
ENDBRANCH  19  21
ENDBRANCH  18  19
ENDBRANCH   1  18
TORSDOF 6
ENDMDL
MODEL 6
REMARK VINA RESULT:    -6.486      3.623      6.275
REMARK INTER + INTRA:          -9.755
REMARK INTER:                  -8.600
REMARK INTRA:                  -1.156
REMARK UNBOUND:                -0.994
REMARK  Name = 
REMARK  10 active torsions:
REMARK  status: ('A' for Active; 'I' for Inactive)
REMARK    1  A    between atoms: C_1  and  C_2
REMARK    2  A    between atoms: C_2  and  C_3
REMARK    3  A    between atoms: C_5  and  N_6
REMARK    4  A    between atoms: C_9  and  C_10
REMARK    5  A    between atoms: C_10  and  C_11
REMARK    6  A    between atoms: C_10  and  C_12
REMARK    7  A    between atoms: C_10  and  C_13
REMARK    8  A    between atoms: C_13  and  N_14
REMARK    9  A    between atoms: N_14  and  C_15
REMARK   10  A    between atoms: C_18  and  C_19
REMARK                            x       y       z     vdW  Elec       q    Type
REMARK                         _______ _______ _______ _____ _____    ______ ____
ROOT
ATOM      1  C   UNL     1      48.024   8.528  12.672  0.00  0.00    +0.000 C 
ATOM      2  C   UNL     1      48.762   9.807  12.202  0.00  0.00    +0.000 C 
ATOM      3  C   UNL     1      48.565   7.336  11.846  0.00  0.00    +0.000 C 
ENDROOT
BRANCH   1   7
ATOM      4  N   UNL     1      49.258   5.554  16.465  0.00  0.00    +0.000 N 
ATOM      5  C   UNL     1      48.900   6.846  16.022  0.00  0.00    +0.000 A 
ATOM      6  C   UNL     1      48.569   7.019  14.675  0.00  0.00    +0.000 A 
ATOM      7  C   UNL     1      48.308   8.306  14.167  0.00  0.00    +0.000 A 
ATOM      8  C   UNL     1      48.358   9.355  15.094  0.00  0.00    +0.000 A 
ATOM      9  C   UNL     1      48.636   9.086  16.425  0.00  0.00    +0.000 A 
ATOM     10  N   UNL     1      48.918   7.860  16.898  0.00  0.00    +0.000 NA
ATOM     11  H   UNL     1      48.409   4.998  16.498  0.00  0.00    +0.000 HD
BRANCH   4  16
ATOM     12  C   UNL     1      52.029   4.372  19.734  0.00  0.00    +0.000 C 
ATOM     13  C   UNL     1      51.527   3.957  18.352  0.00  0.00    +0.000 C 
ATOM     14  C   UNL     1      52.197   2.674  17.873  0.00  0.00    +0.000 C 
ATOM     15  C   UNL     1      51.551   5.105  17.307  0.00  0.00    +0.000 C 
ATOM     16  C   UNL     1      50.064   5.389  17.642  0.00  0.00    +0.000 C 
ATOM     17  C   UNL     1      49.976   3.953  18.204  0.00  0.00    +0.000 C 
ENDBRANCH   4  16
ENDBRANCH   1   7
BRANCH   1  18
ATOM     18  C   UNL     1      46.513   8.744  12.315  0.00  0.00    +0.000 C 
BRANCH  18  19
ATOM     19  N   UNL     1      45.615   7.914  13.114  0.00  0.00    +0.000 N 
ATOM     20  H   UNL     1      45.640   8.048  14.119  0.00  0.00    +0.000 HD
BRANCH  19  21
ATOM     21  C   UNL     1      45.147   6.682  12.693  0.00  0.00    +0.000 A 
ATOM     22  C   UNL     1      45.468   5.475  13.322  0.00  0.00    +0.000 A 
ATOM     23  C   UNL     1      45.030   4.251  12.805  0.00  0.00    +0.000 A 
ATOM     24  C   UNL     1      44.278   4.210  11.633  0.00  0.00    +0.000 A 
ATOM     25  C   UNL     1      43.985   5.400  10.964  0.00  0.00    +0.000 A 
ATOM     26  C   UNL     1      44.423   6.620  11.492  0.00  0.00    +0.000 A 
BRANCH  24  27
ATOM     27  C   UNL     1      43.862   2.886  11.116  0.00  0.00    +0.000 C 
ATOM     28  N   UNL     1      44.551   2.380  10.042  0.00  0.00    +0.000 N 
ATOM     29  O   UNL     1      42.917   2.271  11.590  0.00  0.00    +0.000 OA
ATOM     30  H   UNL     1      45.198   2.926   9.493  0.00  0.00    +0.000 HD
ATOM     31  H   UNL     1      44.196   1.519   9.643  0.00  0.00    +0.000 HD
ENDBRANCH  24  27
ENDBRANCH  19  21
ENDBRANCH  18  19
ENDBRANCH   1  18
TORSDOF 6
ENDMDL
MODEL 7
REMARK VINA RESULT:    -6.161      3.388      6.188
REMARK INTER + INTRA:          -9.316
REMARK INTER:                  -8.503
REMARK INTRA:                  -0.813
REMARK UNBOUND:                -0.994
REMARK  Name = 
REMARK  10 active torsions:
REMARK  status: ('A' for Active; 'I' for Inactive)
REMARK    1  A    between atoms: C_1  and  C_2
REMARK    2  A    between atoms: C_2  and  C_3
REMARK    3  A    between atoms: C_5  and  N_6
REMARK    4  A    between atoms: C_9  and  C_10
REMARK    5  A    between atoms: C_10  and  C_11
REMARK    6  A    between atoms: C_10  and  C_12
REMARK    7  A    between atoms: C_10  and  C_13
REMARK    8  A    between atoms: C_13  and  N_14
REMARK    9  A    between atoms: N_14  and  C_15
REMARK   10  A    between atoms: C_18  and  C_19
REMARK                            x       y       z     vdW  Elec       q    Type
REMARK                         _______ _______ _______ _____ _____    ______ ____
ROOT
ATOM      1  C   UNL     1      48.655   8.962  12.704  0.00  0.00    +0.000 C 
ATOM      2  C   UNL     1      48.829   9.725  14.042  0.00  0.00    +0.000 C 
ATOM      3  C   UNL     1      47.469   9.602  11.943  0.00  0.00    +0.000 C 
ENDROOT
BRANCH   1   7
ATOM      4  N   UNL     1      52.500   6.925  10.292  0.00  0.00    +0.000 N 
ATOM      5  C   UNL     1      51.832   8.097  10.711  0.00  0.00    +0.000 A 
ATOM      6  C   UNL     1      50.703   7.964  11.525  0.00  0.00    +0.000 A 
ATOM      7  C   UNL     1      49.945   9.097  11.880  0.00  0.00    +0.000 A 
ATOM      8  C   UNL     1      50.421  10.326  11.409  0.00  0.00    +0.000 A 
ATOM      9  C   UNL     1      51.584  10.374  10.656  0.00  0.00    +0.000 A 
ATOM     10  N   UNL     1      52.285   9.287  10.292  0.00  0.00    +0.000 NA
ATOM     11  H   UNL     1      52.999   6.556  11.097  0.00  0.00    +0.000 HD
BRANCH   4  16
ATOM     12  C   UNL     1      54.646   6.249   6.459  0.00  0.00    +0.000 C 
ATOM     13  C   UNL     1      53.611   5.637   7.400  0.00  0.00    +0.000 C 
ATOM     14  C   UNL     1      53.087   4.306   6.871  0.00  0.00    +0.000 C 
ATOM     15  C   UNL     1      52.492   6.625   7.827  0.00  0.00    +0.000 C 
ATOM     16  C   UNL     1      53.310   6.937   9.107  0.00  0.00    +0.000 C 
ATOM     17  C   UNL     1      54.043   5.595   8.896  0.00  0.00    +0.000 C 
ENDBRANCH   4  16
ENDBRANCH   1   7
BRANCH   1  18
ATOM     18  C   UNL     1      48.271   7.493  13.091  0.00  0.00    +0.000 C 
BRANCH  18  19
ATOM     19  N   UNL     1      46.838   7.319  13.318  0.00  0.00    +0.000 N 
ATOM     20  H   UNL     1      46.455   7.728  14.163  0.00  0.00    +0.000 HD
BRANCH  19  21
ATOM     21  C   UNL     1      46.110   6.270  12.785  0.00  0.00    +0.000 A 
ATOM     22  C   UNL     1      45.731   5.140  13.516  0.00  0.00    +0.000 A 
ATOM     23  C   UNL     1      45.062   4.074  12.905  0.00  0.00    +0.000 A 
ATOM     24  C   UNL     1      44.779   4.108  11.541  0.00  0.00    +0.000 A 
ATOM     25  C   UNL     1      45.189   5.207  10.783  0.00  0.00    +0.000 A 
ATOM     26  C   UNL     1      45.853   6.271  11.405  0.00  0.00    +0.000 A 
BRANCH  24  27
ATOM     27  C   UNL     1      44.093   2.942  10.940  0.00  0.00    +0.000 C 
ATOM     28  N   UNL     1      44.707   2.320   9.882  0.00  0.00    +0.000 N 
ATOM     29  O   UNL     1      43.001   2.556  11.334  0.00  0.00    +0.000 OA
ATOM     30  H   UNL     1      45.499   2.713   9.395  0.00  0.00    +0.000 HD
ATOM     31  H   UNL     1      44.183   1.585   9.424  0.00  0.00    +0.000 HD
ENDBRANCH  24  27
ENDBRANCH  19  21
ENDBRANCH  18  19
ENDBRANCH   1  18
TORSDOF 6
ENDMDL
MODEL 8
REMARK VINA RESULT:    -6.019      3.633      8.429
REMARK INTER + INTRA:          -9.124
REMARK INTER:                  -7.819
REMARK INTRA:                  -1.305
REMARK UNBOUND:                -0.994
REMARK  Name = 
REMARK  10 active torsions:
REMARK  status: ('A' for Active; 'I' for Inactive)
REMARK    1  A    between atoms: C_1  and  C_2
REMARK    2  A    between atoms: C_2  and  C_3
REMARK    3  A    between atoms: C_5  and  N_6
REMARK    4  A    between atoms: C_9  and  C_10
REMARK    5  A    between atoms: C_10  and  C_11
REMARK    6  A    between atoms: C_10  and  C_12
REMARK    7  A    between atoms: C_10  and  C_13
REMARK    8  A    between atoms: C_13  and  N_14
REMARK    9  A    between atoms: N_14  and  C_15
REMARK   10  A    between atoms: C_18  and  C_19
REMARK                            x       y       z     vdW  Elec       q    Type
REMARK                         _______ _______ _______ _____ _____    ______ ____
ROOT
ATOM      1  C   UNL     1      50.761   8.916  13.230  0.00  0.00    +0.000 C 
ATOM      2  C   UNL     1      51.647   8.432  12.054  0.00  0.00    +0.000 C 
ATOM      3  C   UNL     1      51.212  10.347  13.607  0.00  0.00    +0.000 C 
ENDROOT
BRANCH   1   7
ATOM      4  N   UNL     1      46.721   6.563  11.527  0.00  0.00    +0.000 N 
ATOM      5  C   UNL     1      47.321   7.776  11.932  0.00  0.00    +0.000 A 
ATOM      6  C   UNL     1      48.678   7.767  12.268  0.00  0.00    +0.000 A 
ATOM      7  C   UNL     1      49.292   8.927  12.777  0.00  0.00    +0.000 A 
ATOM      8  C   UNL     1      48.477  10.062  12.872  0.00  0.00    +0.000 A 
ATOM      9  C   UNL     1      47.155   9.999  12.460  0.00  0.00    +0.000 A 
ATOM     10  N   UNL     1      46.565   8.880  12.007  0.00  0.00    +0.000 NA
ATOM     11  H   UNL     1      47.055   6.357  10.590  0.00  0.00    +0.000 HD
BRANCH   4  16
ATOM     12  C   UNL     1      42.520   5.209  12.054  0.00  0.00    +0.000 C 
ATOM     13  C   UNL     1      43.967   4.720  12.050  0.00  0.00    +0.000 C 
ATOM     14  C   UNL     1      44.054   3.224  12.332  0.00  0.00    +0.000 C 
ATOM     15  C   UNL     1      44.919   5.578  12.925  0.00  0.00    +0.000 C 
ATOM     16  C   UNL     1      45.303   6.378  11.653  0.00  0.00    +0.000 C 
ATOM     17  C   UNL     1      44.801   5.180  10.818  0.00  0.00    +0.000 C 
ENDBRANCH   4  16
ENDBRANCH   1   7
BRANCH   1  18
ATOM     18  C   UNL     1      51.071   7.957  14.430  0.00  0.00    +0.000 C 
BRANCH  18  19
ATOM     19  N   UNL     1      50.149   8.128  15.550  0.00  0.00    +0.000 N 
ATOM     20  H   UNL     1      50.271   8.957  16.122  0.00  0.00    +0.000 HD
BRANCH  19  21
ATOM     21  C   UNL     1      49.507   7.071  16.169  0.00  0.00    +0.000 A 
ATOM     22  C   UNL     1      49.845   6.597  17.441  0.00  0.00    +0.000 A 
ATOM     23  C   UNL     1      49.212   5.475  17.986  0.00  0.00    +0.000 A 
ATOM     24  C   UNL     1      48.243   4.789  17.257  0.00  0.00    +0.000 A 
ATOM     25  C   UNL     1      47.923   5.217  15.968  0.00  0.00    +0.000 A 
ATOM     26  C   UNL     1      48.557   6.346  15.434  0.00  0.00    +0.000 A 
BRANCH  24  27
ATOM     27  C   UNL     1      47.625   3.591  17.871  0.00  0.00    +0.000 C 
ATOM     28  N   UNL     1      48.236   3.058  18.977  0.00  0.00    +0.000 N 
ATOM     29  O   UNL     1      46.628   3.060  17.400  0.00  0.00    +0.000 OA
ATOM     30  H   UNL     1      49.159   3.331  19.284  0.00  0.00    +0.000 HD
ATOM     31  H   UNL     1      47.856   2.187  19.329  0.00  0.00    +0.000 HD
ENDBRANCH  24  27
ENDBRANCH  19  21
ENDBRANCH  18  19
ENDBRANCH   1  18
TORSDOF 6
ENDMDL
MODEL 9
REMARK VINA RESULT:    -5.970      3.483      6.955
REMARK INTER + INTRA:          -9.058
REMARK INTER:                  -8.034
REMARK INTRA:                  -1.024
REMARK UNBOUND:                -0.994
REMARK  Name = 
REMARK  10 active torsions:
REMARK  status: ('A' for Active; 'I' for Inactive)
REMARK    1  A    between atoms: C_1  and  C_2
REMARK    2  A    between atoms: C_2  and  C_3
REMARK    3  A    between atoms: C_5  and  N_6
REMARK    4  A    between atoms: C_9  and  C_10
REMARK    5  A    between atoms: C_10  and  C_11
REMARK    6  A    between atoms: C_10  and  C_12
REMARK    7  A    between atoms: C_10  and  C_13
REMARK    8  A    between atoms: C_13  and  N_14
REMARK    9  A    between atoms: N_14  and  C_15
REMARK   10  A    between atoms: C_18  and  C_19
REMARK                            x       y       z     vdW  Elec       q    Type
REMARK                         _______ _______ _______ _____ _____    ______ ____
ROOT
ATOM      1  C   UNL     1      49.457   9.219  12.461  0.00  0.00    +0.000 C 
ATOM      2  C   UNL     1      49.463  10.768  12.424  0.00  0.00    +0.000 C 
ATOM      3  C   UNL     1      50.515   8.716  11.449  0.00  0.00    +0.000 C 
ENDROOT
BRANCH   1   7
ATOM      4  N   UNL     1      48.181   7.208  16.829  0.00  0.00    +0.000 N 
ATOM      5  C   UNL     1      49.189   7.778  16.020  0.00  0.00    +0.000 A 
ATOM      6  C   UNL     1      48.831   8.270  14.761  0.00  0.00    +0.000 A 
ATOM      7  C   UNL     1      49.819   8.751  13.880  0.00  0.00    +0.000 A 
ATOM      8  C   UNL     1      51.133   8.740  14.364  0.00  0.00    +0.000 A 
ATOM      9  C   UNL     1      51.391   8.289  15.649  0.00  0.00    +0.000 A 
ATOM     10  N   UNL     1      50.449   7.800  16.474  0.00  0.00    +0.000 NA
ATOM     11  H   UNL     1      47.605   7.968  17.178  0.00  0.00    +0.000 HD
BRANCH   4  16
ATOM     12  C   UNL     1      48.795   3.768  19.577  0.00  0.00    +0.000 C 
ATOM     13  C   UNL     1      48.106   4.182  18.277  0.00  0.00    +0.000 C 
ATOM     14  C   UNL     1      47.340   3.021  17.654  0.00  0.00    +0.000 C 
ATOM     15  C   UNL     1      49.041   4.922  17.283  0.00  0.00    +0.000 C 
ATOM     16  C   UNL     1      48.523   6.267  17.857  0.00  0.00    +0.000 C 
ATOM     17  C   UNL     1      47.285   5.502  18.375  0.00  0.00    +0.000 C 
ENDBRANCH   4  16
ENDBRANCH   1   7
BRANCH   1  18
ATOM     18  C   UNL     1      48.037   8.779  11.965  0.00  0.00    +0.000 C 
BRANCH  18  19
ATOM     19  N   UNL     1      48.006   7.403  11.475  0.00  0.00    +0.000 N 
ATOM     20  H   UNL     1      48.522   7.207  10.624  0.00  0.00    +0.000 HD
BRANCH  19  21
ATOM     21  C   UNL     1      46.977   6.522  11.759  0.00  0.00    +0.000 A 
ATOM     22  C   UNL     1      45.942   6.226  10.866  0.00  0.00    +0.000 A 
ATOM     23  C   UNL     1      44.886   5.387  11.236  0.00  0.00    +0.000 A 
ATOM     24  C   UNL     1      44.832   4.845  12.518  0.00  0.00    +0.000 A 
ATOM     25  C   UNL     1      45.831   5.164  13.440  0.00  0.00    +0.000 A 
ATOM     26  C   UNL     1      46.887   6.000  13.058  0.00  0.00    +0.000 A 
BRANCH  24  27
ATOM     27  C   UNL     1      43.677   3.986  12.866  0.00  0.00    +0.000 C 
ATOM     28  N   UNL     1      43.782   2.644  12.597  0.00  0.00    +0.000 N 
ATOM     29  O   UNL     1      42.646   4.442  13.339  0.00  0.00    +0.000 OA
ATOM     30  H   UNL     1      44.520   2.250  12.031  0.00  0.00    +0.000 HD
ATOM     31  H   UNL     1      42.951   2.085  12.754  0.00  0.00    +0.000 HD
ENDBRANCH  24  27
ENDBRANCH  19  21
ENDBRANCH  18  19
ENDBRANCH   1  18
TORSDOF 6
ENDMDL
