MODEL 1
REMARK VINA RESULT:    -8.738      0.000      0.000
REMARK INTER + INTRA:         -11.572
REMARK INTER:                 -10.782
REMARK INTRA:                  -0.790
REMARK UNBOUND:                -0.790
REMARK  Name = 
REMARK  5 active torsions:
REMARK  status: ('A' for Active; 'I' for Inactive)
REMARK    1  A    between atoms: C_1  and  C_2
REMARK    2  A    between atoms: C_2  and  N_3
REMARK    3  A    between atoms: C_2  and  C_13
REMARK    4  A    between atoms: N_3  and  C_4
REMARK    5  A    between atoms: C_7  and  C_8
REMARK                            x       y       z     vdW  Elec       q    Type
REMARK                         _______ _______ _______ _____ _____    ______ ____
ROOT
ATOM      1  N   UNL     1      43.781   4.855   9.859  0.00  0.00    +0.000 N 
ATOM      2  H   UNL     1      44.046   5.804   9.588  0.00  0.00    +0.000 HD
ENDROOT
BRANCH   1   3
ATOM      3  C   UNL     1      44.600   3.957   9.166  0.00  0.00    +0.000 A 
ATOM      4  C   UNL     1      45.564   4.497   8.306  0.00  0.00    +0.000 A 
ATOM      5  C   UNL     1      46.452   3.677   7.604  0.00  0.00    +0.000 A 
ATOM      6  C   UNL     1      46.422   2.294   7.790  0.00  0.00    +0.000 A 
ATOM      7  C   UNL     1      45.496   1.743   8.682  0.00  0.00    +0.000 A 
ATOM      8  C   UNL     1      44.600   2.573   9.370  0.00  0.00    +0.000 A 
BRANCH   6   9
ATOM      9  C   UNL     1      47.369   1.457   7.005  0.00  0.00    +0.000 C 
ATOM     10  N   UNL     1      48.464   2.076   6.468  0.00  0.00    +0.000 N 
ATOM     11  O   UNL     1      47.163   0.267   6.810  0.00  0.00    +0.000 OA
ATOM     12  H   UNL     1      48.543   3.079   6.395  0.00  0.00    +0.000 HD
ATOM     13  H   UNL     1      49.034   1.509   5.850  0.00  0.00    +0.000 HD
ENDBRANCH   6   9
ENDBRANCH   1   3
BRANCH   1  15
ATOM     14  C   UNL     1      42.465   5.652  11.798  0.00  0.00    +0.000 C 
ATOM     15  C   UNL     1      43.615   4.764  11.316  0.00  0.00    +0.000 C 
BRANCH  15  16
ATOM     16  C   UNL     1      44.906   5.201  12.004  0.00  0.00    +0.000 A 
ATOM     17  C   UNL     1      45.407   4.452  13.082  0.00  0.00    +0.000 A 
ATOM     18  C   UNL     1      46.572   4.851  13.742  0.00  0.00    +0.000 A 
ATOM     19 CL   UNL     1      47.156   3.921  15.067  0.00  0.00    +0.000 Cl
ATOM     20  C   UNL     1      47.261   5.992  13.344  0.00  0.00    +0.000 A 
ATOM     21  C   UNL     1      46.765   6.745  12.284  0.00  0.00    +0.000 A 
ATOM     22 CL   UNL     1      47.608   8.160  11.780  0.00  0.00    +0.000 Cl
ATOM     23  C   UNL     1      45.594   6.367  11.626  0.00  0.00    +0.000 A 
ENDBRANCH  15  16
ENDBRANCH   1  15
TORSDOF 4
ENDMDL
MODEL 2
REMARK VINA RESULT:    -8.734      0.167      2.013
REMARK INTER + INTRA:         -11.567
REMARK INTER:                 -10.753
REMARK INTRA:                  -0.814
REMARK UNBOUND:                -0.790
REMARK  Name = 
REMARK  5 active torsions:
REMARK  status: ('A' for Active; 'I' for Inactive)
REMARK    1  A    between atoms: C_1  and  C_2
REMARK    2  A    between atoms: C_2  and  N_3
REMARK    3  A    between atoms: C_2  and  C_13
REMARK    4  A    between atoms: N_3  and  C_4
REMARK    5  A    between atoms: C_7  and  C_8
REMARK                            x       y       z     vdW  Elec       q    Type
REMARK                         _______ _______ _______ _____ _____    ______ ____
ROOT
ATOM      1  N   UNL     1      43.746   4.871   9.859  0.00  0.00    +0.000 N 
ATOM      2  H   UNL     1      44.048   5.820   9.634  0.00  0.00    +0.000 HD
ENDROOT
BRANCH   1   3
ATOM      3  C   UNL     1      44.569   3.974   9.171  0.00  0.00    +0.000 A 
ATOM      4  C   UNL     1      45.533   4.516   8.311  0.00  0.00    +0.000 A 
ATOM      5  C   UNL     1      46.426   3.697   7.614  0.00  0.00    +0.000 A 
ATOM      6  C   UNL     1      46.401   2.314   7.804  0.00  0.00    +0.000 A 
ATOM      7  C   UNL     1      45.475   1.762   8.694  0.00  0.00    +0.000 A 
ATOM      8  C   UNL     1      44.574   2.591   9.379  0.00  0.00    +0.000 A 
BRANCH   6   9
ATOM      9  C   UNL     1      47.353   1.479   7.023  0.00  0.00    +0.000 C 
ATOM     10  N   UNL     1      48.446   2.100   6.487  0.00  0.00    +0.000 N 
ATOM     11  O   UNL     1      47.152   0.287   6.831  0.00  0.00    +0.000 OA
ATOM     12  H   UNL     1      48.522   3.103   6.411  0.00  0.00    +0.000 HD
ATOM     13  H   UNL     1      49.020   1.534   5.871  0.00  0.00    +0.000 HD
ENDBRANCH   6   9
ENDBRANCH   1   3
BRANCH   1  15
ATOM     14  C   UNL     1      42.322   5.585  11.755  0.00  0.00    +0.000 C 
ATOM     15  C   UNL     1      43.514   4.735  11.303  0.00  0.00    +0.000 C 
BRANCH  15  16
ATOM     16  C   UNL     1      44.761   5.179  12.063  0.00  0.00    +0.000 A 
ATOM     17  C   UNL     1      45.359   6.413  11.757  0.00  0.00    +0.000 A 
ATOM     18  C   UNL     1      46.516   6.826  12.422  0.00  0.00    +0.000 A 
ATOM     19 CL   UNL     1      47.234   8.337  12.017  0.00  0.00    +0.000 Cl
ATOM     20  C   UNL     1      47.095   6.028  13.403  0.00  0.00    +0.000 A 
ATOM     21  C   UNL     1      46.515   4.800  13.705  0.00  0.00    +0.000 A 
ATOM     22 CL   UNL     1      47.222   3.802  14.918  0.00  0.00    +0.000 Cl
ATOM     23  C   UNL     1      45.368   4.369  13.038  0.00  0.00    +0.000 A 
ENDBRANCH  15  16
ENDBRANCH   1  15
TORSDOF 4
ENDMDL
MODEL 3
REMARK VINA RESULT:    -8.383      1.458      2.601
REMARK INTER + INTRA:         -11.134
REMARK INTER:                 -10.425
REMARK INTRA:                  -0.709
REMARK UNBOUND:                -0.790
REMARK  Name = 
REMARK  5 active torsions:
REMARK  status: ('A' for Active; 'I' for Inactive)
REMARK    1  A    between atoms: C_1  and  C_2
REMARK    2  A    between atoms: C_2  and  N_3
REMARK    3  A    between atoms: C_2  and  C_13
REMARK    4  A    between atoms: N_3  and  C_4
REMARK    5  A    between atoms: C_7  and  C_8
REMARK                            x       y       z     vdW  Elec       q    Type
REMARK                         _______ _______ _______ _____ _____    ______ ____
ROOT
ATOM      1  N   UNL     1      43.789   4.926   9.848  0.00  0.00    +0.000 N 
ATOM      2  H   UNL     1      43.848   5.829   9.375  0.00  0.00    +0.000 HD
ENDROOT
BRANCH   1   3
ATOM      3  C   UNL     1      44.666   4.040   9.213  0.00  0.00    +0.000 A 
ATOM      4  C   UNL     1      44.503   2.675   9.477  0.00  0.00    +0.000 A 
ATOM      5  C   UNL     1      45.307   1.714   8.855  0.00  0.00    +0.000 A 
ATOM      6  C   UNL     1      46.262   2.104   7.916  0.00  0.00    +0.000 A 
ATOM      7  C   UNL     1      46.405   3.461   7.606  0.00  0.00    +0.000 A 
ATOM      8  C   UNL     1      45.603   4.418   8.245  0.00  0.00    +0.000 A 
BRANCH   6   9
ATOM      9  C   UNL     1      47.112   1.052   7.297  0.00  0.00    +0.000 C 
ATOM     10  N   UNL     1      46.842  -0.250   7.619  0.00  0.00    +0.000 N 
ATOM     11  O   UNL     1      48.044   1.333   6.556  0.00  0.00    +0.000 OA
ATOM     12  H   UNL     1      46.257  -0.509   8.399  0.00  0.00    +0.000 HD
ATOM     13  H   UNL     1      47.500  -0.938   7.271  0.00  0.00    +0.000 HD
ENDBRANCH   6   9
ENDBRANCH   1   3
BRANCH   1  15
ATOM     14  C   UNL     1      42.437   5.510  11.838  0.00  0.00    +0.000 C 
ATOM     15  C   UNL     1      43.815   5.107  11.306  0.00  0.00    +0.000 C 
BRANCH  15  16
ATOM     16  C   UNL     1      44.827   6.192  11.666  0.00  0.00    +0.000 A 
ATOM     17  C   UNL     1      44.454   7.545  11.583  0.00  0.00    +0.000 A 
ATOM     18  C   UNL     1      45.373   8.554  11.881  0.00  0.00    +0.000 A 
ATOM     19 CL   UNL     1      44.893  10.202  11.759  0.00  0.00    +0.000 Cl
ATOM     20  C   UNL     1      46.671   8.241  12.272  0.00  0.00    +0.000 A 
ATOM     21  C   UNL     1      47.052   6.904  12.346  0.00  0.00    +0.000 A 
ATOM     22 CL   UNL     1      48.655   6.502  12.828  0.00  0.00    +0.000 Cl
ATOM     23  C   UNL     1      46.148   5.887  12.035  0.00  0.00    +0.000 A 
ENDBRANCH  15  16
ENDBRANCH   1  15
TORSDOF 4
ENDMDL
MODEL 4
REMARK VINA RESULT:    -8.354      1.243      1.935
REMARK INTER + INTRA:         -11.098
REMARK INTER:                 -10.377
REMARK INTRA:                  -0.721
REMARK UNBOUND:                -0.790
REMARK  Name = 
REMARK  5 active torsions:
REMARK  status: ('A' for Active; 'I' for Inactive)
REMARK    1  A    between atoms: C_1  and  C_2
REMARK    2  A    between atoms: C_2  and  N_3
REMARK    3  A    between atoms: C_2  and  C_13
REMARK    4  A    between atoms: N_3  and  C_4
REMARK    5  A    between atoms: C_7  and  C_8
REMARK                            x       y       z     vdW  Elec       q    Type
REMARK                         _______ _______ _______ _____ _____    ______ ____
ROOT
ATOM      1  N   UNL     1      43.746   4.840   9.840  0.00  0.00    +0.000 N 
ATOM      2  H   UNL     1      43.670   5.738   9.359  0.00  0.00    +0.000 HD
ENDROOT
BRANCH   1   3
ATOM      3  C   UNL     1      44.694   4.062   9.168  0.00  0.00    +0.000 A 
ATOM      4  C   UNL     1      44.621   2.674   9.333  0.00  0.00    +0.000 A 
ATOM      5  C   UNL     1      45.501   1.816   8.668  0.00  0.00    +0.000 A 
ATOM      6  C   UNL     1      46.446   2.334   7.781  0.00  0.00    +0.000 A 
ATOM      7  C   UNL     1      46.501   3.715   7.569  0.00  0.00    +0.000 A 
ATOM      8  C   UNL     1      45.623   4.569   8.252  0.00  0.00    +0.000 A 
BRANCH   6   9
ATOM      9  C   UNL     1      47.380   1.387   7.113  0.00  0.00    +0.000 C 
ATOM     10  N   UNL     1      48.447   1.918   6.443  0.00  0.00    +0.000 N 
ATOM     11  O   UNL     1      47.186   0.179   7.127  0.00  0.00    +0.000 OA
ATOM     12  H   UNL     1      48.508   2.895   6.201  0.00  0.00    +0.000 HD
ATOM     13  H   UNL     1      49.004   1.262   5.908  0.00  0.00    +0.000 HD
ENDBRANCH   6   9
ENDBRANCH   1   3
BRANCH   1  15
ATOM     14  C   UNL     1      42.447   5.396  11.873  0.00  0.00    +0.000 C 
ATOM     15  C   UNL     1      43.819   5.040  11.293  0.00  0.00    +0.000 C 
BRANCH  15  16
ATOM     16  C   UNL     1      44.800   6.168  11.604  0.00  0.00    +0.000 A 
ATOM     17  C   UNL     1      46.116   5.859  11.988  0.00  0.00    +0.000 A 
ATOM     18  C   UNL     1      47.021   6.876  12.302  0.00  0.00    +0.000 A 
ATOM     19 CL   UNL     1      48.622   6.467  12.781  0.00  0.00    +0.000 Cl
ATOM     20  C   UNL     1      46.640   8.212  12.237  0.00  0.00    +0.000 A 
ATOM     21  C   UNL     1      45.335   8.526  11.869  0.00  0.00    +0.000 A 
ATOM     22 CL   UNL     1      44.850  10.176  11.783  0.00  0.00    +0.000 Cl
ATOM     23  C   UNL     1      44.417   7.520  11.567  0.00  0.00    +0.000 A 
ENDBRANCH  15  16
ENDBRANCH   1  15
TORSDOF 4
ENDMDL
MODEL 5
REMARK VINA RESULT:    -6.059      4.243      6.811
REMARK INTER + INTRA:          -8.267
REMARK INTER:                  -7.675
REMARK INTRA:                  -0.591
REMARK UNBOUND:                -0.790
REMARK  Name = 
REMARK  5 active torsions:
REMARK  status: ('A' for Active; 'I' for Inactive)
REMARK    1  A    between atoms: C_1  and  C_2
REMARK    2  A    between atoms: C_2  and  N_3
REMARK    3  A    between atoms: C_2  and  C_13
REMARK    4  A    between atoms: N_3  and  C_4
REMARK    5  A    between atoms: C_7  and  C_8
REMARK                            x       y       z     vdW  Elec       q    Type
REMARK                         _______ _______ _______ _____ _____    ______ ____
ROOT
ATOM      1  N   UNL     1      47.908   6.626  12.436  0.00  0.00    +0.000 N 
ATOM      2  H   UNL     1      48.788   7.144  12.427  0.00  0.00    +0.000 HD
ENDROOT
BRANCH   1   3
ATOM      3  C   UNL     1      47.766   6.027  13.692  0.00  0.00    +0.000 A 
ATOM      4  C   UNL     1      47.010   4.850  13.762  0.00  0.00    +0.000 A 
ATOM      5  C   UNL     1      46.848   4.161  14.967  0.00  0.00    +0.000 A 
ATOM      6  C   UNL     1      47.485   4.615  16.123  0.00  0.00    +0.000 A 
ATOM      7  C   UNL     1      48.282   5.762  16.060  0.00  0.00    +0.000 A 
ATOM      8  C   UNL     1      48.427   6.454  14.848  0.00  0.00    +0.000 A 
BRANCH   6   9
ATOM      9  C   UNL     1      47.266   3.865  17.389  0.00  0.00    +0.000 C 
ATOM     10  N   UNL     1      47.832   4.368  18.528  0.00  0.00    +0.000 N 
ATOM     11  O   UNL     1      46.636   2.817  17.413  0.00  0.00    +0.000 OA
ATOM     12  H   UNL     1      48.549   5.078  18.514  0.00  0.00    +0.000 HD
ATOM     13  H   UNL     1      47.759   3.785  19.353  0.00  0.00    +0.000 HD
ENDBRANCH   6   9
ENDBRANCH   1   3
BRANCH   1  15
ATOM     14  C   UNL     1      46.147   8.297  12.917  0.00  0.00    +0.000 C 
ATOM     15  C   UNL     1      46.829   7.433  11.853  0.00  0.00    +0.000 C 
BRANCH  15  16
ATOM     16  C   UNL     1      45.790   6.512  11.217  0.00  0.00    +0.000 A 
ATOM     17  C   UNL     1      44.487   6.468  11.740  0.00  0.00    +0.000 A 
ATOM     18  C   UNL     1      43.530   5.612  11.190  0.00  0.00    +0.000 A 
ATOM     19 CL   UNL     1      41.945   5.569  11.860  0.00  0.00    +0.000 Cl
ATOM     20  C   UNL     1      43.845   4.791  10.112  0.00  0.00    +0.000 A 
ATOM     21  C   UNL     1      45.137   4.821   9.594  0.00  0.00    +0.000 A 
ATOM     22 CL   UNL     1      45.541   3.811   8.259  0.00  0.00    +0.000 Cl
ATOM     23  C   UNL     1      46.106   5.661  10.145  0.00  0.00    +0.000 A 
ENDBRANCH  15  16
ENDBRANCH   1  15
TORSDOF 4
ENDMDL
MODEL 6
REMARK VINA RESULT:    -5.999      4.244      6.883
REMARK INTER + INTRA:          -8.192
REMARK INTER:                  -7.650
REMARK INTRA:                  -0.542
REMARK UNBOUND:                -0.790
REMARK  Name = 
REMARK  5 active torsions:
REMARK  status: ('A' for Active; 'I' for Inactive)
REMARK    1  A    between atoms: C_1  and  C_2
REMARK    2  A    between atoms: C_2  and  N_3
REMARK    3  A    between atoms: C_2  and  C_13
REMARK    4  A    between atoms: N_3  and  C_4
REMARK    5  A    between atoms: C_7  and  C_8
REMARK                            x       y       z     vdW  Elec       q    Type
REMARK                         _______ _______ _______ _____ _____    ______ ____
ROOT
ATOM      1  N   UNL     1      47.894   6.743  12.461  0.00  0.00    +0.000 N 
ATOM      2  H   UNL     1      48.757   7.289  12.463  0.00  0.00    +0.000 HD
ENDROOT
BRANCH   1   3
ATOM      3  C   UNL     1      47.762   6.128  13.710  0.00  0.00    +0.000 A 
ATOM      4  C   UNL     1      46.999   4.955  13.772  0.00  0.00    +0.000 A 
ATOM      5  C   UNL     1      46.846   4.250  14.970  0.00  0.00    +0.000 A 
ATOM      6  C   UNL     1      47.500   4.684  16.124  0.00  0.00    +0.000 A 
ATOM      7  C   UNL     1      48.304   5.827  16.068  0.00  0.00    +0.000 A 
ATOM      8  C   UNL     1      48.440   6.534  14.864  0.00  0.00    +0.000 A 
BRANCH   6   9
ATOM      9  C   UNL     1      47.290   3.918  17.383  0.00  0.00    +0.000 C 
ATOM     10  N   UNL     1      47.867   4.405  18.523  0.00  0.00    +0.000 N 
ATOM     11  O   UNL     1      46.658   2.871  17.398  0.00  0.00    +0.000 OA
ATOM     12  H   UNL     1      48.586   5.113  18.511  0.00  0.00    +0.000 HD
ATOM     13  H   UNL     1      47.800   3.811  19.341  0.00  0.00    +0.000 HD
ENDBRANCH   6   9
ENDBRANCH   1   3
BRANCH   1  15
ATOM     14  C   UNL     1      46.128   8.413  12.931  0.00  0.00    +0.000 C 
ATOM     15  C   UNL     1      46.794   7.522  11.878  0.00  0.00    +0.000 C 
BRANCH  15  16
ATOM     16  C   UNL     1      45.751   6.572  11.295  0.00  0.00    +0.000 A 
ATOM     17  C   UNL     1      46.088   5.754  10.204  0.00  0.00    +0.000 A 
ATOM     18  C   UNL     1      45.140   4.897   9.639  0.00  0.00    +0.000 A 
ATOM     19 CL   UNL     1      45.578   3.915   8.295  0.00  0.00    +0.000 Cl
ATOM     20  C   UNL     1      43.847   4.834  10.147  0.00  0.00    +0.000 A 
ATOM     21  C   UNL     1      43.501   5.649  11.220  0.00  0.00    +0.000 A 
ATOM     22 CL   UNL     1      41.904   5.581  11.860  0.00  0.00    +0.000 Cl
ATOM     23  C   UNL     1      44.434   6.520  11.784  0.00  0.00    +0.000 A 
ENDBRANCH  15  16
ENDBRANCH   1  15
TORSDOF 4
ENDMDL
