MODEL 1
REMARK VINA RESULT:    -8.117      0.000      0.000
REMARK INTER + INTRA:         -11.240
REMARK INTER:                 -10.489
REMARK INTRA:                  -0.750
REMARK UNBOUND:                -0.750
REMARK  Name = 
REMARK  6 active torsions:
REMARK  status: ('A' for Active; 'I' for Inactive)
REMARK    1  A    between atoms: C_1  and  O_2
REMARK    2  A    between atoms: O_2  and  C_3
REMARK    3  A    between atoms: N_6  and  C_7
REMARK    4  A    between atoms: C_7  and  C_8
REMARK    5  A    between atoms: C_12  and  C_13
REMARK    6  A    between atoms: C_22  and  C_23
REMARK                            x       y       z     vdW  Elec       q    Type
REMARK                         _______ _______ _______ _____ _____    ______ ____
ROOT
ATOM      1  C   UNL     1      47.312   6.045  13.727  0.00  0.00    +0.000 A 
ATOM      2  N   UNL     1      46.291   6.038  12.847  0.00  0.00    +0.000 NA
ATOM      3  C   UNL     1      46.207   7.042  11.971  0.00  0.00    +0.000 A 
ATOM      4  N   UNL     1      45.201   7.035  11.027  0.00  0.00    +0.000 N 
ATOM      5  N   UNL     1      47.065   8.068  11.943  0.00  0.00    +0.000 NA
ATOM      6  C   UNL     1      48.075   8.043  12.845  0.00  0.00    +0.000 A 
ATOM      7  C   UNL     1      48.262   7.043  13.776  0.00  0.00    +0.000 A 
ATOM      8  H   UNL     1      45.084   7.978  10.673  0.00  0.00    +0.000 HD
ENDROOT
BRANCH   7   9
ATOM      9  C   UNL     1      49.416   7.122  14.690  0.00  0.00    +0.000 C 
ATOM     10  N   UNL     1      49.291   6.620  15.953  0.00  0.00    +0.000 N 
ATOM     11  O   UNL     1      50.470   7.631  14.329  0.00  0.00    +0.000 OA
ATOM     12  H   UNL     1      48.442   6.177  16.284  0.00  0.00    +0.000 HD
ATOM     13  H   UNL     1      50.097   6.648  16.564  0.00  0.00    +0.000 HD
ENDBRANCH   7   9
BRANCH   1  15
ATOM     14  C   UNL     1      47.085   3.726  13.997  0.00  0.00    +0.000 C 
ATOM     15  O   UNL     1      47.388   4.983  14.610  0.00  0.00    +0.000 OA
ENDBRANCH   1  15
BRANCH   4  16
ATOM     16  C   UNL     1      43.990   6.360  11.449  0.00  0.00    +0.000 C 
BRANCH  16  17
ATOM     17  C   UNL     1      44.051   4.903  11.058  0.00  0.00    +0.000 A 
ATOM     18  C   UNL     1      43.281   3.951  11.731  0.00  0.00    +0.000 A 
ATOM     19  C   UNL     1      43.351   2.611  11.363  0.00  0.00    +0.000 A 
ATOM     20  C   UNL     1      44.177   2.216  10.307  0.00  0.00    +0.000 A 
ATOM     21  C   UNL     1      44.944   3.147   9.583  0.00  0.00    +0.000 A 
ATOM     22  C   UNL     1      44.888   4.488  10.004  0.00  0.00    +0.000 A 
BRANCH  21  23
ATOM     23  C   UNL     1      45.704   2.753   8.373  0.00  0.00    +0.000 A 
ATOM     24  C   UNL     1      45.979   3.695   7.364  0.00  0.00    +0.000 A 
ATOM     25  C   UNL     1      46.768   3.375   6.256  0.00  0.00    +0.000 A 
ATOM     26  C   UNL     1      47.309   2.102   6.133  0.00  0.00    +0.000 A 
ATOM     27  C   UNL     1      47.044   1.143   7.107  0.00  0.00    +0.000 A 
ATOM     28  C   UNL     1      46.243   1.464   8.210  0.00  0.00    +0.000 A 
ENDBRANCH  21  23
ENDBRANCH  16  17
ENDBRANCH   4  16
TORSDOF 5
ENDMDL
MODEL 2
REMARK VINA RESULT:    -7.874      1.516      2.369
REMARK INTER + INTRA:         -10.926
REMARK INTER:                  -9.818
REMARK INTRA:                  -1.107
REMARK UNBOUND:                -0.750
REMARK  Name = 
REMARK  6 active torsions:
REMARK  status: ('A' for Active; 'I' for Inactive)
REMARK    1  A    between atoms: C_1  and  O_2
REMARK    2  A    between atoms: O_2  and  C_3
REMARK    3  A    between atoms: N_6  and  C_7
REMARK    4  A    between atoms: C_7  and  C_8
REMARK    5  A    between atoms: C_12  and  C_13
REMARK    6  A    between atoms: C_22  and  C_23
REMARK                            x       y       z     vdW  Elec       q    Type
REMARK                         _______ _______ _______ _____ _____    ______ ____
ROOT
ATOM      1  C   UNL     1      48.393   8.163  12.284  0.00  0.00    +0.000 A 
ATOM      2  N   UNL     1      47.107   7.763  12.224  0.00  0.00    +0.000 NA
ATOM      3  C   UNL     1      46.679   6.877  13.126  0.00  0.00    +0.000 A 
ATOM      4  N   UNL     1      45.355   6.487  13.118  0.00  0.00    +0.000 N 
ATOM      5  N   UNL     1      47.468   6.344  14.065  0.00  0.00    +0.000 NA
ATOM      6  C   UNL     1      48.755   6.766  14.092  0.00  0.00    +0.000 A 
ATOM      7  C   UNL     1      49.288   7.691  13.221  0.00  0.00    +0.000 A 
ATOM      8  H   UNL     1      45.274   5.612  13.624  0.00  0.00    +0.000 HD
ENDROOT
BRANCH   7   9
ATOM      9  C   UNL     1      50.701   8.084  13.369  0.00  0.00    +0.000 C 
ATOM     10  N   UNL     1      51.501   8.097  12.263  0.00  0.00    +0.000 N 
ATOM     11  O   UNL     1      51.156   8.390  14.464  0.00  0.00    +0.000 OA
ATOM     12  H   UNL     1      51.159   7.866  11.338  0.00  0.00    +0.000 HD
ATOM     13  H   UNL     1      52.462   8.399  12.368  0.00  0.00    +0.000 HD
ENDBRANCH   7   9
BRANCH   1  15
ATOM     14  C   UNL     1      48.226  10.388  11.563  0.00  0.00    +0.000 C 
ATOM     15  O   UNL     1      48.805   9.098  11.352  0.00  0.00    +0.000 OA
ENDBRANCH   1  15
BRANCH   4  16
ATOM     16  C   UNL     1      44.728   6.528  11.812  0.00  0.00    +0.000 C 
BRANCH  16  17
ATOM     17  C   UNL     1      44.482   5.122  11.318  0.00  0.00    +0.000 A 
ATOM     18  C   UNL     1      43.510   4.316  11.915  0.00  0.00    +0.000 A 
ATOM     19  C   UNL     1      43.298   3.021  11.452  0.00  0.00    +0.000 A 
ATOM     20  C   UNL     1      44.042   2.530  10.376  0.00  0.00    +0.000 A 
ATOM     21  C   UNL     1      45.008   3.320   9.727  0.00  0.00    +0.000 A 
ATOM     22  C   UNL     1      45.233   4.608  10.243  0.00  0.00    +0.000 A 
BRANCH  21  23
ATOM     23  C   UNL     1      45.692   2.854   8.497  0.00  0.00    +0.000 A 
ATOM     24  C   UNL     1      46.007   3.761   7.468  0.00  0.00    +0.000 A 
ATOM     25  C   UNL     1      46.729   3.369   6.338  0.00  0.00    +0.000 A 
ATOM     26  C   UNL     1      47.162   2.054   6.212  0.00  0.00    +0.000 A 
ATOM     27  C   UNL     1      46.854   1.130   7.206  0.00  0.00    +0.000 A 
ATOM     28  C   UNL     1      46.120   1.525   8.332  0.00  0.00    +0.000 A 
ENDBRANCH  21  23
ENDBRANCH  16  17
ENDBRANCH   4  16
TORSDOF 5
ENDMDL
MODEL 3
REMARK VINA RESULT:    -7.794      3.671      7.121
REMARK INTER + INTRA:         -10.823
REMARK INTER:                  -9.730
REMARK INTRA:                  -1.092
REMARK UNBOUND:                -0.750
REMARK  Name = 
REMARK  6 active torsions:
REMARK  status: ('A' for Active; 'I' for Inactive)
REMARK    1  A    between atoms: C_1  and  O_2
REMARK    2  A    between atoms: O_2  and  C_3
REMARK    3  A    between atoms: N_6  and  C_7
REMARK    4  A    between atoms: C_7  and  C_8
REMARK    5  A    between atoms: C_12  and  C_13
REMARK    6  A    between atoms: C_22  and  C_23
REMARK                            x       y       z     vdW  Elec       q    Type
REMARK                         _______ _______ _______ _____ _____    ______ ____
ROOT
ATOM      1  C   UNL     1      46.388   1.892   8.092  0.00  0.00    +0.000 A 
ATOM      2  N   UNL     1      45.564   2.083   9.142  0.00  0.00    +0.000 NA
ATOM      3  C   UNL     1      44.805   3.181   9.156  0.00  0.00    +0.000 A 
ATOM      4  N   UNL     1      43.916   3.378  10.194  0.00  0.00    +0.000 N 
ATOM      5  N   UNL     1      44.843   4.114   8.198  0.00  0.00    +0.000 NA
ATOM      6  C   UNL     1      45.685   3.890   7.162  0.00  0.00    +0.000 A 
ATOM      7  C   UNL     1      46.494   2.781   7.043  0.00  0.00    +0.000 A 
ATOM      8  H   UNL     1      43.671   4.361  10.226  0.00  0.00    +0.000 HD
ENDROOT
BRANCH   7   9
ATOM      9  C   UNL     1      47.353   2.643   5.853  0.00  0.00    +0.000 C 
ATOM     10  N   UNL     1      48.661   2.292   6.020  0.00  0.00    +0.000 N 
ATOM     11  O   UNL     1      46.906   2.844   4.730  0.00  0.00    +0.000 OA
ATOM     12  H   UNL     1      49.064   2.102   6.930  0.00  0.00    +0.000 HD
ATOM     13  H   UNL     1      49.236   2.168   5.196  0.00  0.00    +0.000 HD
ENDBRANCH   7   9
BRANCH   1  15
ATOM     14  C   UNL     1      46.444  -0.393   7.568  0.00  0.00    +0.000 C 
ATOM     15  O   UNL     1      47.148   0.737   8.092  0.00  0.00    +0.000 OA
ENDBRANCH   1  15
BRANCH   4  16
ATOM     16  C   UNL     1      44.325   2.783  11.450  0.00  0.00    +0.000 C 
BRANCH  16  17
ATOM     17  C   UNL     1      45.172   3.762  12.229  0.00  0.00    +0.000 A 
ATOM     18  C   UNL     1      46.145   3.308  13.124  0.00  0.00    +0.000 A 
ATOM     19  C   UNL     1      46.915   4.221  13.838  0.00  0.00    +0.000 A 
ATOM     20  C   UNL     1      46.732   5.593  13.647  0.00  0.00    +0.000 A 
ATOM     21  C   UNL     1      45.786   6.090  12.733  0.00  0.00    +0.000 A 
ATOM     22  C   UNL     1      44.992   5.148  12.057  0.00  0.00    +0.000 A 
BRANCH  21  23
ATOM     23  C   UNL     1      45.693   7.537  12.422  0.00  0.00    +0.000 A 
ATOM     24  C   UNL     1      46.739   8.412  12.774  0.00  0.00    +0.000 A 
ATOM     25  C   UNL     1      46.719   9.762  12.416  0.00  0.00    +0.000 A 
ATOM     26  C   UNL     1      45.651  10.272  11.689  0.00  0.00    +0.000 A 
ATOM     27  C   UNL     1      44.594   9.437  11.338  0.00  0.00    +0.000 A 
ATOM     28  C   UNL     1      44.613   8.086  11.709  0.00  0.00    +0.000 A 
ENDBRANCH  21  23
ENDBRANCH  16  17
ENDBRANCH   4  16
TORSDOF 5
ENDMDL
MODEL 4
REMARK VINA RESULT:    -7.732      2.580      3.677
REMARK INTER + INTRA:         -10.742
REMARK INTER:                  -9.860
REMARK INTRA:                  -0.881
REMARK UNBOUND:                -0.750
REMARK  Name = 
REMARK  6 active torsions:
REMARK  status: ('A' for Active; 'I' for Inactive)
REMARK    1  A    between atoms: C_1  and  O_2
REMARK    2  A    between atoms: O_2  and  C_3
REMARK    3  A    between atoms: N_6  and  C_7
REMARK    4  A    between atoms: C_7  and  C_8
REMARK    5  A    between atoms: C_12  and  C_13
REMARK    6  A    between atoms: C_22  and  C_23
REMARK                            x       y       z     vdW  Elec       q    Type
REMARK                         _______ _______ _______ _____ _____    ______ ____
ROOT
ATOM      1  C   UNL     1      48.979   5.253  16.728  0.00  0.00    +0.000 A 
ATOM      2  N   UNL     1      47.936   5.377  15.883  0.00  0.00    +0.000 NA
ATOM      3  C   UNL     1      47.245   4.279  15.569  0.00  0.00    +0.000 A 
ATOM      4  N   UNL     1      46.142   4.386  14.745  0.00  0.00    +0.000 N 
ATOM      5  N   UNL     1      47.553   3.060  16.025  0.00  0.00    +0.000 NA
ATOM      6  C   UNL     1      48.610   2.973  16.868  0.00  0.00    +0.000 A 
ATOM      7  C   UNL     1      49.374   4.047  17.269  0.00  0.00    +0.000 A 
ATOM      8  H   UNL     1      45.939   3.470  14.360  0.00  0.00    +0.000 HD
ENDROOT
BRANCH   7   9
ATOM      9  C   UNL     1      50.487   3.823  18.210  0.00  0.00    +0.000 C 
ATOM     10  N   UNL     1      50.424   4.385  19.452  0.00  0.00    +0.000 N 
ATOM     11  O   UNL     1      51.457   3.149  17.885  0.00  0.00    +0.000 OA
ATOM     12  H   UNL     1      49.633   4.936  19.763  0.00  0.00    +0.000 HD
ATOM     13  H   UNL     1      51.177   4.201  20.103  0.00  0.00    +0.000 HD
ENDBRANCH   7   9
BRANCH   1  15
ATOM     14  C   UNL     1      50.533   6.854  16.007  0.00  0.00    +0.000 C 
ATOM     15  O   UNL     1      49.666   6.408  17.053  0.00  0.00    +0.000 OA
ENDBRANCH   1  15
BRANCH   4  16
ATOM     16  C   UNL     1      46.210   5.476  13.794  0.00  0.00    +0.000 C 
BRANCH  16  17
ATOM     17  C   UNL     1      45.272   5.210  12.641  0.00  0.00    +0.000 A 
ATOM     18  C   UNL     1      43.972   5.724  12.646  0.00  0.00    +0.000 A 
ATOM     19  C   UNL     1      43.117   5.467  11.580  0.00  0.00    +0.000 A 
ATOM     20  C   UNL     1      43.560   4.711  10.492  0.00  0.00    +0.000 A 
ATOM     21  C   UNL     1      44.870   4.201  10.433  0.00  0.00    +0.000 A 
ATOM     22  C   UNL     1      45.699   4.439  11.543  0.00  0.00    +0.000 A 
BRANCH  21  23
ATOM     23  C   UNL     1      45.386   3.526   9.218  0.00  0.00    +0.000 A 
ATOM     24  C   UNL     1      45.889   4.281   8.141  0.00  0.00    +0.000 A 
ATOM     25  C   UNL     1      46.463   3.672   7.022  0.00  0.00    +0.000 A 
ATOM     26  C   UNL     1      46.554   2.287   6.956  0.00  0.00    +0.000 A 
ATOM     27  C   UNL     1      46.053   1.512   7.998  0.00  0.00    +0.000 A 
ATOM     28  C   UNL     1      45.468   2.127   9.113  0.00  0.00    +0.000 A 
ENDBRANCH  21  23
ENDBRANCH  16  17
ENDBRANCH   4  16
TORSDOF 5
ENDMDL
MODEL 5
REMARK VINA RESULT:    -7.428      2.141      3.099
REMARK INTER + INTRA:         -10.349
REMARK INTER:                  -9.267
REMARK INTRA:                  -1.082
REMARK UNBOUND:                -0.750
REMARK  Name = 
REMARK  6 active torsions:
REMARK  status: ('A' for Active; 'I' for Inactive)
REMARK    1  A    between atoms: C_1  and  O_2
REMARK    2  A    between atoms: O_2  and  C_3
REMARK    3  A    between atoms: N_6  and  C_7
REMARK    4  A    between atoms: C_7  and  C_8
REMARK    5  A    between atoms: C_12  and  C_13
REMARK    6  A    between atoms: C_22  and  C_23
REMARK                            x       y       z     vdW  Elec       q    Type
REMARK                         _______ _______ _______ _____ _____    ______ ____
ROOT
ATOM      1  C   UNL     1      46.442   9.592  12.141  0.00  0.00    +0.000 A 
ATOM      2  N   UNL     1      45.728   8.492  12.455  0.00  0.00    +0.000 NA
ATOM      3  C   UNL     1      46.391   7.388  12.805  0.00  0.00    +0.000 A 
ATOM      4  N   UNL     1      45.685   6.263  13.178  0.00  0.00    +0.000 N 
ATOM      5  N   UNL     1      47.726   7.309  12.830  0.00  0.00    +0.000 NA
ATOM      6  C   UNL     1      48.410   8.432  12.505  0.00  0.00    +0.000 A 
ATOM      7  C   UNL     1      47.821   9.626  12.150  0.00  0.00    +0.000 A 
ATOM      8  H   UNL     1      46.296   5.458  13.098  0.00  0.00    +0.000 HD
ENDROOT
BRANCH   7   9
ATOM      9  C   UNL     1      48.678  10.785  11.839  0.00  0.00    +0.000 C 
ATOM     10  N   UNL     1      48.522  11.417  10.639  0.00  0.00    +0.000 N 
ATOM     11  O   UNL     1      49.521  11.174  12.638  0.00  0.00    +0.000 OA
ATOM     12  H   UNL     1      47.826  11.135   9.960  0.00  0.00    +0.000 HD
ATOM     13  H   UNL     1      49.091  12.231  10.447  0.00  0.00    +0.000 HD
ENDBRANCH   7   9
BRANCH   1  15
ATOM     14  C   UNL     1      44.508  10.437  11.119  0.00  0.00    +0.000 C 
ATOM     15  O   UNL     1      45.730  10.728  11.802  0.00  0.00    +0.000 OA
ENDBRANCH   1  15
BRANCH   4  16
ATOM     16  C   UNL     1      44.384   6.139  12.552  0.00  0.00    +0.000 C 
BRANCH  16  17
ATOM     17  C   UNL     1      44.255   4.781  11.904  0.00  0.00    +0.000 A 
ATOM     18  C   UNL     1      43.374   3.826  12.418  0.00  0.00    +0.000 A 
ATOM     19  C   UNL     1      43.268   2.578  11.813  0.00  0.00    +0.000 A 
ATOM     20  C   UNL     1      44.029   2.282  10.679  0.00  0.00    +0.000 A 
ATOM     21  C   UNL     1      44.904   3.225  10.111  0.00  0.00    +0.000 A 
ATOM     22  C   UNL     1      45.024   4.463  10.768  0.00  0.00    +0.000 A 
BRANCH  21  23
ATOM     23  C   UNL     1      45.599   2.965   8.828  0.00  0.00    +0.000 A 
ATOM     24  C   UNL     1      45.939   4.030   7.971  0.00  0.00    +0.000 A 
ATOM     25  C   UNL     1      46.671   3.825   6.800  0.00  0.00    +0.000 A 
ATOM     26  C   UNL     1      47.089   2.545   6.457  0.00  0.00    +0.000 A 
ATOM     27  C   UNL     1      46.756   1.469   7.275  0.00  0.00    +0.000 A 
ATOM     28  C   UNL     1      46.012   1.678   8.443  0.00  0.00    +0.000 A 
ENDBRANCH  21  23
ENDBRANCH  16  17
ENDBRANCH   4  16
TORSDOF 5
ENDMDL
MODEL 6
REMARK VINA RESULT:    -6.968      4.313      8.575
REMARK INTER + INTRA:          -9.755
REMARK INTER:                  -8.848
REMARK INTRA:                  -0.907
REMARK UNBOUND:                -0.750
REMARK  Name = 
REMARK  6 active torsions:
REMARK  status: ('A' for Active; 'I' for Inactive)
REMARK    1  A    between atoms: C_1  and  O_2
REMARK    2  A    between atoms: O_2  and  C_3
REMARK    3  A    between atoms: N_6  and  C_7
REMARK    4  A    between atoms: C_7  and  C_8
REMARK    5  A    between atoms: C_12  and  C_13
REMARK    6  A    between atoms: C_22  and  C_23
REMARK                            x       y       z     vdW  Elec       q    Type
REMARK                         _______ _______ _______ _____ _____    ______ ____
ROOT
ATOM      1  C   UNL     1      45.316   5.573  12.979  0.00  0.00    +0.000 A 
ATOM      2  N   UNL     1      46.071   5.142  14.010  0.00  0.00    +0.000 NA
ATOM      3  C   UNL     1      46.445   3.861  14.025  0.00  0.00    +0.000 A 
ATOM      4  N   UNL     1      47.259   3.405  15.043  0.00  0.00    +0.000 N 
ATOM      5  N   UNL     1      46.084   2.977  13.088  0.00  0.00    +0.000 NA
ATOM      6  C   UNL     1      45.323   3.445  12.070  0.00  0.00    +0.000 A 
ATOM      7  C   UNL     1      44.902   4.752  11.951  0.00  0.00    +0.000 A 
ATOM      8  H   UNL     1      47.182   2.395  15.088  0.00  0.00    +0.000 HD
ENDROOT
BRANCH   7   9
ATOM      9  C   UNL     1      44.092   5.141  10.781  0.00  0.00    +0.000 C 
ATOM     10  N   UNL     1      43.405   6.319  10.818  0.00  0.00    +0.000 N 
ATOM     11  O   UNL     1      44.031   4.420   9.793  0.00  0.00    +0.000 OA
ATOM     12  H   UNL     1      43.443   6.950  11.609  0.00  0.00    +0.000 HD
ATOM     13  H   UNL     1      42.878   6.595   9.998  0.00  0.00    +0.000 HD
ENDBRANCH   7   9
BRANCH   1  15
ATOM     14  C   UNL     1      46.078   7.784  12.804  0.00  0.00    +0.000 C 
ATOM     15  O   UNL     1      44.960   6.909  12.976  0.00  0.00    +0.000 OA
ENDBRANCH   1  15
BRANCH   4  16
ATOM     16  C   UNL     1      47.098   4.111  16.298  0.00  0.00    +0.000 C 
BRANCH  16  17
ATOM     17  C   UNL     1      48.448   4.549  16.816  0.00  0.00    +0.000 A 
ATOM     18  C   UNL     1      48.695   5.891  17.117  0.00  0.00    +0.000 A 
ATOM     19  C   UNL     1      49.944   6.280  17.589  0.00  0.00    +0.000 A 
ATOM     20  C   UNL     1      50.949   5.328  17.782  0.00  0.00    +0.000 A 
ATOM     21  C   UNL     1      50.731   3.964  17.520  0.00  0.00    +0.000 A 
ATOM     22  C   UNL     1      49.475   3.604  17.003  0.00  0.00    +0.000 A 
BRANCH  21  23
ATOM     23  C   UNL     1      51.745   2.937  17.862  0.00  0.00    +0.000 A 
ATOM     24  C   UNL     1      51.616   1.619  17.384  0.00  0.00    +0.000 A 
ATOM     25  C   UNL     1      52.599   0.654  17.615  0.00  0.00    +0.000 A 
ATOM     26  C   UNL     1      53.744   0.986  18.329  0.00  0.00    +0.000 A 
ATOM     27  C   UNL     1      53.895   2.277  18.828  0.00  0.00    +0.000 A 
ATOM     28  C   UNL     1      52.901   3.238  18.603  0.00  0.00    +0.000 A 
ENDBRANCH  21  23
ENDBRANCH  16  17
ENDBRANCH   4  16
TORSDOF 5
ENDMDL
MODEL 7
REMARK VINA RESULT:    -6.894      3.436      6.085
REMARK INTER + INTRA:          -9.660
REMARK INTER:                  -8.568
REMARK INTRA:                  -1.092
REMARK UNBOUND:                -0.750
REMARK  Name = 
REMARK  6 active torsions:
REMARK  status: ('A' for Active; 'I' for Inactive)
REMARK    1  A    between atoms: C_1  and  O_2
REMARK    2  A    between atoms: O_2  and  C_3
REMARK    3  A    between atoms: N_6  and  C_7
REMARK    4  A    between atoms: C_7  and  C_8
REMARK    5  A    between atoms: C_12  and  C_13
REMARK    6  A    between atoms: C_22  and  C_23
REMARK                            x       y       z     vdW  Elec       q    Type
REMARK                         _______ _______ _______ _____ _____    ______ ____
ROOT
ATOM      1  C   UNL     1      51.245   4.180  17.388  0.00  0.00    +0.000 A 
ATOM      2  N   UNL     1      50.329   5.089  16.999  0.00  0.00    +0.000 NA
ATOM      3  C   UNL     1      49.111   4.655  16.665  0.00  0.00    +0.000 A 
ATOM      4  N   UNL     1      48.139   5.569  16.311  0.00  0.00    +0.000 N 
ATOM      5  N   UNL     1      48.764   3.363  16.669  0.00  0.00    +0.000 NA
ATOM      6  C   UNL     1      49.712   2.478  17.061  0.00  0.00    +0.000 A 
ATOM      7  C   UNL     1      50.989   2.826  17.444  0.00  0.00    +0.000 A 
ATOM      8  H   UNL     1      47.413   5.082  15.796  0.00  0.00    +0.000 HD
ENDROOT
BRANCH   7   9
ATOM      9  C   UNL     1      51.923   1.768  17.872  0.00  0.00    +0.000 C 
ATOM     10  N   UNL     1      52.859   2.059  18.821  0.00  0.00    +0.000 N 
ATOM     11  O   UNL     1      51.866   0.646  17.383  0.00  0.00    +0.000 OA
ATOM     12  H   UNL     1      52.928   2.969  19.259  0.00  0.00    +0.000 HD
ATOM     13  H   UNL     1      53.475   1.319  19.132  0.00  0.00    +0.000 HD
ENDBRANCH   7   9
BRANCH   1  15
ATOM     14  C   UNL     1      52.427   5.705  18.721  0.00  0.00    +0.000 C 
ATOM     15  O   UNL     1      52.491   4.658  17.748  0.00  0.00    +0.000 OA
ENDBRANCH   1  15
BRANCH   4  16
ATOM     16  C   UNL     1      48.651   6.778  15.699  0.00  0.00    +0.000 C 
BRANCH  16  17
ATOM     17  C   UNL     1      48.235   6.836  14.249  0.00  0.00    +0.000 A 
ATOM     18  C   UNL     1      48.937   7.627  13.336  0.00  0.00    +0.000 A 
ATOM     19  C   UNL     1      48.539   7.674  12.004  0.00  0.00    +0.000 A 
ATOM     20  C   UNL     1      47.447   6.916  11.571  0.00  0.00    +0.000 A 
ATOM     21  C   UNL     1      46.733   6.083  12.451  0.00  0.00    +0.000 A 
ATOM     22  C   UNL     1      47.129   6.088  13.800  0.00  0.00    +0.000 A 
BRANCH  21  23
ATOM     23  C   UNL     1      45.672   5.169  11.964  0.00  0.00    +0.000 A 
ATOM     24  C   UNL     1      45.242   5.223  10.625  0.00  0.00    +0.000 A 
ATOM     25  C   UNL     1      44.308   4.316  10.116  0.00  0.00    +0.000 A 
ATOM     26  C   UNL     1      43.784   3.325  10.937  0.00  0.00    +0.000 A 
ATOM     27  C   UNL     1      44.179   3.254  12.270  0.00  0.00    +0.000 A 
ATOM     28  C   UNL     1      45.106   4.172  12.779  0.00  0.00    +0.000 A 
ENDBRANCH  21  23
ENDBRANCH  16  17
ENDBRANCH   4  16
TORSDOF 5
ENDMDL
MODEL 8
REMARK VINA RESULT:    -6.824      3.270      7.005
REMARK INTER + INTRA:          -9.568
REMARK INTER:                  -8.675
REMARK INTRA:                  -0.893
REMARK UNBOUND:                -0.750
REMARK  Name = 
REMARK  6 active torsions:
REMARK  status: ('A' for Active; 'I' for Inactive)
REMARK    1  A    between atoms: C_1  and  O_2
REMARK    2  A    between atoms: O_2  and  C_3
REMARK    3  A    between atoms: N_6  and  C_7
REMARK    4  A    between atoms: C_7  and  C_8
REMARK    5  A    between atoms: C_12  and  C_13
REMARK    6  A    between atoms: C_22  and  C_23
REMARK                            x       y       z     vdW  Elec       q    Type
REMARK                         _______ _______ _______ _____ _____    ______ ____
ROOT
ATOM      1  C   UNL     1      45.248   4.434  12.621  0.00  0.00    +0.000 A 
ATOM      2  N   UNL     1      45.582   5.666  13.055  0.00  0.00    +0.000 NA
ATOM      3  C   UNL     1      44.992   6.718  12.483  0.00  0.00    +0.000 A 
ATOM      4  N   UNL     1      45.278   7.988  12.942  0.00  0.00    +0.000 N 
ATOM      5  N   UNL     1      44.111   6.613  11.482  0.00  0.00    +0.000 NA
ATOM      6  C   UNL     1      43.804   5.360  11.069  0.00  0.00    +0.000 A 
ATOM      7  C   UNL     1      44.341   4.210  11.607  0.00  0.00    +0.000 A 
ATOM      8  H   UNL     1      45.017   8.655  12.225  0.00  0.00    +0.000 HD
ENDROOT
BRANCH   7   9
ATOM      9  C   UNL     1      43.907   2.902  11.082  0.00  0.00    +0.000 C 
ATOM     10  N   UNL     1      44.575   2.363  10.022  0.00  0.00    +0.000 N 
ATOM     11  O   UNL     1      42.961   2.308  11.584  0.00  0.00    +0.000 OA
ATOM     12  H   UNL     1      45.372   2.816   9.590  0.00  0.00    +0.000 HD
ATOM     13  H   UNL     1      44.292   1.450   9.688  0.00  0.00    +0.000 HD
ENDBRANCH   7   9
BRANCH   1  15
ATOM     14  C   UNL     1      47.021   3.736  13.988  0.00  0.00    +0.000 C 
ATOM     15  O   UNL     1      45.858   3.361  13.244  0.00  0.00    +0.000 OA
ENDBRANCH   1  15
BRANCH   4  16
ATOM     16  C   UNL     1      46.608   8.137  13.497  0.00  0.00    +0.000 C 
BRANCH  16  17
ATOM     17  C   UNL     1      47.445   9.012  12.594  0.00  0.00    +0.000 A 
ATOM     18  C   UNL     1      46.967  10.251  12.158  0.00  0.00    +0.000 A 
ATOM     19  C   UNL     1      47.746  11.044  11.323  0.00  0.00    +0.000 A 
ATOM     20  C   UNL     1      49.018  10.614  10.933  0.00  0.00    +0.000 A 
ATOM     21  C   UNL     1      49.548   9.388  11.374  0.00  0.00    +0.000 A 
ATOM     22  C   UNL     1      48.722   8.587  12.182  0.00  0.00    +0.000 A 
BRANCH  21  23
ATOM     23  C   UNL     1      50.949   8.999  11.082  0.00  0.00    +0.000 A 
ATOM     24  C   UNL     1      51.260   7.677  10.710  0.00  0.00    +0.000 A 
ATOM     25  C   UNL     1      52.555   7.303  10.343  0.00  0.00    +0.000 A 
ATOM     26  C   UNL     1      53.574   8.247  10.333  0.00  0.00    +0.000 A 
ATOM     27  C   UNL     1      53.302   9.560  10.709  0.00  0.00    +0.000 A 
ATOM     28  C   UNL     1      52.004   9.928  11.088  0.00  0.00    +0.000 A 
ENDBRANCH  21  23
ENDBRANCH  16  17
ENDBRANCH   4  16
TORSDOF 5
ENDMDL
MODEL 9
REMARK VINA RESULT:    -6.770      1.836      2.828
REMARK INTER + INTRA:          -9.499
REMARK INTER:                  -9.055
REMARK INTRA:                  -0.444
REMARK UNBOUND:                -0.750
REMARK  Name = 
REMARK  6 active torsions:
REMARK  status: ('A' for Active; 'I' for Inactive)
REMARK    1  A    between atoms: C_1  and  O_2
REMARK    2  A    between atoms: O_2  and  C_3
REMARK    3  A    between atoms: N_6  and  C_7
REMARK    4  A    between atoms: C_7  and  C_8
REMARK    5  A    between atoms: C_12  and  C_13
REMARK    6  A    between atoms: C_22  and  C_23
REMARK                            x       y       z     vdW  Elec       q    Type
REMARK                         _______ _______ _______ _____ _____    ______ ____
ROOT
ATOM      1  C   UNL     1      46.182   7.548  12.928  0.00  0.00    +0.000 A 
ATOM      2  N   UNL     1      45.712   6.319  13.222  0.00  0.00    +0.000 NA
ATOM      3  C   UNL     1      46.577   5.303  13.250  0.00  0.00    +0.000 A 
ATOM      4  N   UNL     1      46.132   4.043  13.596  0.00  0.00    +0.000 N 
ATOM      5  N   UNL     1      47.879   5.437  12.972  0.00  0.00    +0.000 NA
ATOM      6  C   UNL     1      48.314   6.685  12.677  0.00  0.00    +0.000 A 
ATOM      7  C   UNL     1      47.507   7.801  12.642  0.00  0.00    +0.000 A 
ATOM      8  H   UNL     1      46.806   3.361  13.265  0.00  0.00    +0.000 HD
ENDROOT
BRANCH   7   9
ATOM      9  C   UNL     1      48.108   9.111  12.328  0.00  0.00    +0.000 C 
ATOM     10  N   UNL     1      47.653  10.219  12.982  0.00  0.00    +0.000 N 
ATOM     11  O   UNL     1      48.998   9.209  11.492  0.00  0.00    +0.000 OA
ATOM     12  H   UNL     1      46.930  10.177  13.691  0.00  0.00    +0.000 HD
ATOM     13  H   UNL     1      48.092  11.109  12.784  0.00  0.00    +0.000 HD
ENDBRANCH   7   9
BRANCH   1  15
ATOM     14  C   UNL     1      44.604   8.740  11.670  0.00  0.00    +0.000 C 
ATOM     15  O   UNL     1      45.269   8.586  12.927  0.00  0.00    +0.000 OA
ENDBRANCH   1  15
BRANCH   4  16
ATOM     16  C   UNL     1      44.748   3.784  13.256  0.00  0.00    +0.000 C 
BRANCH  16  17
ATOM     17  C   UNL     1      44.534   3.998  11.777  0.00  0.00    +0.000 A 
ATOM     18  C   UNL     1      43.648   4.977  11.318  0.00  0.00    +0.000 A 
ATOM     19  C   UNL     1      43.458   5.159   9.952  0.00  0.00    +0.000 A 
ATOM     20  C   UNL     1      44.166   4.378   9.035  0.00  0.00    +0.000 A 
ATOM     21  C   UNL     1      45.090   3.404   9.455  0.00  0.00    +0.000 A 
ATOM     22  C   UNL     1      45.230   3.211  10.840  0.00  0.00    +0.000 A 
BRANCH  21  23
ATOM     23  C   UNL     1      45.947   2.679   8.486  0.00  0.00    +0.000 A 
ATOM     24  C   UNL     1      46.030   1.274   8.518  0.00  0.00    +0.000 A 
ATOM     25  C   UNL     1      46.758   0.560   7.563  0.00  0.00    +0.000 A 
ATOM     26  C   UNL     1      47.419   1.235   6.545  0.00  0.00    +0.000 A 
ATOM     27  C   UNL     1      47.369   2.626   6.495  0.00  0.00    +0.000 A 
ATOM     28  C   UNL     1      46.647   3.339   7.460  0.00  0.00    +0.000 A 
ENDBRANCH  21  23
ENDBRANCH  16  17
ENDBRANCH   4  16
TORSDOF 5
ENDMDL
