MODEL 1
REMARK VINA RESULT:    -8.022      0.000      0.000
REMARK INTER + INTRA:         -11.826
REMARK INTER:                 -10.835
REMARK INTRA:                  -0.990
REMARK UNBOUND:                -0.990
REMARK  Name = 
REMARK  7 active torsions:
REMARK  status: ('A' for Active; 'I' for Inactive)
REMARK    1  A    between atoms: C_1  and  C_2
REMARK    2  A    between atoms: C_2  and  N_3
REMARK    3  A    between atoms: C_2  and  C_16
REMARK    4  A    between atoms: C_4  and  C_6
REMARK    5  A    between atoms: C_19  and  C_20
REMARK    6  A    between atoms: C_20  and  N_21
REMARK    7  A    between atoms: C_22  and  C_24
REMARK                            x       y       z     vdW  Elec       q    Type
REMARK                         _______ _______ _______ _____ _____    ______ ____
ROOT
ATOM      1  C   UNL     1      47.604   9.209  13.279  0.00  0.00    +0.000 C 
ATOM      2  C   UNL     1      47.953   7.772  13.691  0.00  0.00    +0.000 C 
ENDROOT
BRANCH   2   3
ATOM      3  C   UNL     1      46.996   6.784  13.026  0.00  0.00    +0.000 A 
ATOM      4  C   UNL     1      46.288   7.127  11.867  0.00  0.00    +0.000 A 
ATOM      5  C   UNL     1      45.444   6.197  11.238  0.00  0.00    +0.000 A 
ATOM      6  C   UNL     1      45.284   4.905  11.756  0.00  0.00    +0.000 A 
ATOM      7  C   UNL     1      45.987   4.562  12.918  0.00  0.00    +0.000 A 
ATOM      8  C   UNL     1      46.825   5.490  13.546  0.00  0.00    +0.000 A 
BRANCH   6   9
ATOM      9  C   UNL     1      44.395   3.891  11.076  0.00  0.00    +0.000 C 
BRANCH   9  10
ATOM     10  N   UNL     1      45.132   3.038  10.180  0.00  0.00    +0.000 N 
ATOM     11  C   UNL     1      45.280   3.342   8.840  0.00  0.00    +0.000 C 
ATOM     12  O   UNL     1      44.804   4.355   8.343  0.00  0.00    +0.000 OA
ATOM     13  H   UNL     1      45.609   2.217  10.534  0.00  0.00    +0.000 HD
BRANCH  11  14
ATOM     14  C   UNL     1      46.040   2.361   8.088  0.00  0.00    +0.000 A 
ATOM     15  C   UNL     1      46.875   2.490   6.992  0.00  0.00    +0.000 A 
ATOM     16  C   UNL     1      47.333   1.189   6.668  0.00  0.00    +0.000 A 
ATOM     17  C   UNL     1      46.752   0.343   7.584  0.00  0.00    +0.000 A 
ATOM     18  O   UNL     1      45.974   1.039   8.453  0.00  0.00    +0.000 OA
ENDBRANCH  11  14
ENDBRANCH   9  10
ENDBRANCH   6   9
ENDBRANCH   2   3
BRANCH   2  19
ATOM     19  N   UNL     1      47.913   7.577  15.136  0.00  0.00    +0.000 N 
ATOM     20  C   UNL     1      48.955   7.068  15.867  0.00  0.00    +0.000 C 
ATOM     21  O   UNL     1      50.036   6.765  15.368  0.00  0.00    +0.000 OA
ATOM     22  H   UNL     1      46.983   7.502  15.537  0.00  0.00    +0.000 HD
BRANCH  20  23
ATOM     23  C   UNL     1      48.740   6.950  17.317  0.00  0.00    +0.000 A 
ATOM     24  C   UNL     1      48.531   8.092  18.080  0.00  0.00    +0.000 A 
ATOM     25  S   UNL     1      48.317   7.774  19.742  0.00  0.00    +0.000 S 
ATOM     26  C   UNL     1      48.535   6.104  19.507  0.00  0.00    +0.000 A 
ATOM     27  N   UNL     1      48.528   5.241  20.559  0.00  0.00    +0.000 NA
ATOM     28  C   UNL     1      48.736   4.008  20.237  0.00  0.00    +0.000 A 
ATOM     29  N   UNL     1      48.930   3.556  18.957  0.00  0.00    +0.000 N 
ATOM     30  C   UNL     1      48.898   4.384  17.861  0.00  0.00    +0.000 A 
ATOM     31  O   UNL     1      48.993   3.941  16.722  0.00  0.00    +0.000 OA
ATOM     32  C   UNL     1      48.719   5.788  18.173  0.00  0.00    +0.000 A 
ATOM     33  H   UNL     1      49.058   2.573  18.770  0.00  0.00    +0.000 HD
ENDBRANCH  20  23
ENDBRANCH   2  19
TORSDOF 6
ENDMDL
MODEL 2
REMARK VINA RESULT:    -7.811      1.326      2.171
REMARK INTER + INTRA:         -11.541
REMARK INTER:                 -10.417
REMARK INTRA:                  -1.124
REMARK UNBOUND:                -0.990
REMARK  Name = 
REMARK  7 active torsions:
REMARK  status: ('A' for Active; 'I' for Inactive)
REMARK    1  A    between atoms: C_1  and  C_2
REMARK    2  A    between atoms: C_2  and  N_3
REMARK    3  A    between atoms: C_2  and  C_16
REMARK    4  A    between atoms: C_4  and  C_6
REMARK    5  A    between atoms: C_19  and  C_20
REMARK    6  A    between atoms: C_20  and  N_21
REMARK    7  A    between atoms: C_22  and  C_24
REMARK                            x       y       z     vdW  Elec       q    Type
REMARK                         _______ _______ _______ _____ _____    ______ ____
ROOT
ATOM      1  C   UNL     1      47.271   8.897  13.797  0.00  0.00    +0.000 C 
ATOM      2  C   UNL     1      47.834   7.477  13.948  0.00  0.00    +0.000 C 
ENDROOT
BRANCH   2   3
ATOM      3  C   UNL     1      46.972   6.481  13.175  0.00  0.00    +0.000 A 
ATOM      4  C   UNL     1      46.610   5.247  13.733  0.00  0.00    +0.000 A 
ATOM      5  C   UNL     1      45.782   4.356  13.031  0.00  0.00    +0.000 A 
ATOM      6  C   UNL     1      45.299   4.676  11.755  0.00  0.00    +0.000 A 
ATOM      7  C   UNL     1      45.664   5.905  11.194  0.00  0.00    +0.000 A 
ATOM      8  C   UNL     1      46.493   6.791  11.890  0.00  0.00    +0.000 A 
BRANCH   6   9
ATOM      9  C   UNL     1      44.390   3.734  11.001  0.00  0.00    +0.000 C 
BRANCH   9  10
ATOM     10  N   UNL     1      45.119   2.886  10.094  0.00  0.00    +0.000 N 
ATOM     11  C   UNL     1      45.307   3.228   8.768  0.00  0.00    +0.000 C 
ATOM     12  O   UNL     1      44.874   4.270   8.294  0.00  0.00    +0.000 OA
ATOM     13  H   UNL     1      45.563   2.039  10.431  0.00  0.00    +0.000 HD
BRANCH  11  14
ATOM     14  C   UNL     1      46.052   2.247   8.002  0.00  0.00    +0.000 A 
ATOM     15  C   UNL     1      46.825   2.368   6.859  0.00  0.00    +0.000 A 
ATOM     16  C   UNL     1      47.299   1.071   6.544  0.00  0.00    +0.000 A 
ATOM     17  C   UNL     1      46.790   0.235   7.509  0.00  0.00    +0.000 A 
ATOM     18  O   UNL     1      46.040   0.934   8.401  0.00  0.00    +0.000 OA
ENDBRANCH  11  14
ENDBRANCH   9  10
ENDBRANCH   6   9
ENDBRANCH   2   3
BRANCH   2  19
ATOM     19  N   UNL     1      47.921   7.053  15.341  0.00  0.00    +0.000 N 
ATOM     20  C   UNL     1      49.085   6.656  15.947  0.00  0.00    +0.000 C 
ATOM     21  O   UNL     1      50.172   6.661  15.374  0.00  0.00    +0.000 OA
ATOM     22  H   UNL     1      47.050   6.730  15.750  0.00  0.00    +0.000 HD
BRANCH  20  23
ATOM     23  C   UNL     1      48.987   6.271  17.362  0.00  0.00    +0.000 A 
ATOM     24  C   UNL     1      49.418   5.014  17.768  0.00  0.00    +0.000 A 
ATOM     25  S   UNL     1      49.215   4.726  19.437  0.00  0.00    +0.000 S 
ATOM     26  C   UNL     1      48.507   6.256  19.669  0.00  0.00    +0.000 A 
ATOM     27  N   UNL     1      48.044   6.636  20.891  0.00  0.00    +0.000 NA
ATOM     28  C   UNL     1      47.505   7.809  20.915  0.00  0.00    +0.000 A 
ATOM     29  N   UNL     1      47.406   8.646  19.833  0.00  0.00    +0.000 N 
ATOM     30  C   UNL     1      47.903   8.324  18.593  0.00  0.00    +0.000 A 
ATOM     31  O   UNL     1      47.874   9.124  17.665  0.00  0.00    +0.000 OA
ATOM     32  C   UNL     1      48.473   6.994  18.500  0.00  0.00    +0.000 A 
ATOM     33  H   UNL     1      47.000   9.564  19.926  0.00  0.00    +0.000 HD
ENDBRANCH  20  23
ENDBRANCH   2  19
TORSDOF 6
ENDMDL
MODEL 3
REMARK VINA RESULT:    -7.456      2.707      4.553
REMARK INTER + INTRA:         -11.062
REMARK INTER:                  -9.828
REMARK INTRA:                  -1.234
REMARK UNBOUND:                -0.990
REMARK  Name = 
REMARK  7 active torsions:
REMARK  status: ('A' for Active; 'I' for Inactive)
REMARK    1  A    between atoms: C_1  and  C_2
REMARK    2  A    between atoms: C_2  and  N_3
REMARK    3  A    between atoms: C_2  and  C_16
REMARK    4  A    between atoms: C_4  and  C_6
REMARK    5  A    between atoms: C_19  and  C_20
REMARK    6  A    between atoms: C_20  and  N_21
REMARK    7  A    between atoms: C_22  and  C_24
REMARK                            x       y       z     vdW  Elec       q    Type
REMARK                         _______ _______ _______ _____ _____    ______ ____
ROOT
ATOM      1  C   UNL     1      47.469   3.959  15.872  0.00  0.00    +0.000 C 
ATOM      2  C   UNL     1      47.121   5.217  15.066  0.00  0.00    +0.000 C 
ENDROOT
BRANCH   2   3
ATOM      3  C   UNL     1      46.256   4.851  13.861  0.00  0.00    +0.000 A 
ATOM      4  C   UNL     1      45.446   5.806  13.232  0.00  0.00    +0.000 A 
ATOM      5  C   UNL     1      44.687   5.471  12.099  0.00  0.00    +0.000 A 
ATOM      6  C   UNL     1      44.718   4.173  11.570  0.00  0.00    +0.000 A 
ATOM      7  C   UNL     1      45.522   3.217  12.201  0.00  0.00    +0.000 A 
ATOM      8  C   UNL     1      46.274   3.549  13.333  0.00  0.00    +0.000 A 
BRANCH   6   9
ATOM      9  C   UNL     1      43.922   3.808  10.340  0.00  0.00    +0.000 C 
BRANCH   9  10
ATOM     10  N   UNL     1      44.730   3.146   9.348  0.00  0.00    +0.000 N 
ATOM     11  C   UNL     1      45.553   3.850   8.489  0.00  0.00    +0.000 C 
ATOM     12  O   UNL     1      45.649   5.069   8.529  0.00  0.00    +0.000 OA
ATOM     13  H   UNL     1      44.751   2.134   9.300  0.00  0.00    +0.000 HD
BRANCH  11  14
ATOM     14  C   UNL     1      46.280   3.018   7.549  0.00  0.00    +0.000 A 
ATOM     15  C   UNL     1      46.702   3.251   6.251  0.00  0.00    +0.000 A 
ATOM     16  C   UNL     1      47.351   2.072   5.811  0.00  0.00    +0.000 A 
ATOM     17  C   UNL     1      47.289   1.189   6.863  0.00  0.00    +0.000 A 
ATOM     18  O   UNL     1      46.651   1.750   7.922  0.00  0.00    +0.000 OA
ENDBRANCH  11  14
ENDBRANCH   9  10
ENDBRANCH   6   9
ENDBRANCH   2   3
BRANCH   2  19
ATOM     19  N   UNL     1      48.305   5.933  14.604  0.00  0.00    +0.000 N 
ATOM     20  C   UNL     1      48.959   6.885  15.344  0.00  0.00    +0.000 C 
ATOM     21  O   UNL     1      48.623   7.191  16.485  0.00  0.00    +0.000 OA
ATOM     22  H   UNL     1      48.428   5.961  13.597  0.00  0.00    +0.000 HD
BRANCH  20  23
ATOM     23  C   UNL     1      50.142   7.497  14.722  0.00  0.00    +0.000 A 
ATOM     24  C   UNL     1      51.347   7.529  15.412  0.00  0.00    +0.000 A 
ATOM     25  S   UNL     1      52.608   8.289  14.552  0.00  0.00    +0.000 S 
ATOM     26  C   UNL     1      51.578   8.638  13.243  0.00  0.00    +0.000 A 
ATOM     27  N   UNL     1      52.025   9.342  12.168  0.00  0.00    +0.000 NA
ATOM     28  C   UNL     1      51.129   9.559  11.265  0.00  0.00    +0.000 A 
ATOM     29  N   UNL     1      49.832   9.120  11.328  0.00  0.00    +0.000 N 
ATOM     30  C   UNL     1      49.350   8.366  12.372  0.00  0.00    +0.000 A 
ATOM     31  O   UNL     1      48.209   7.918  12.364  0.00  0.00    +0.000 OA
ATOM     32  C   UNL     1      50.304   8.138  13.440  0.00  0.00    +0.000 A 
ATOM     33  H   UNL     1      49.187   9.299  10.574  0.00  0.00    +0.000 HD
ENDBRANCH  20  23
ENDBRANCH   2  19
TORSDOF 6
ENDMDL
MODEL 4
REMARK VINA RESULT:    -7.162      2.649      3.637
REMARK INTER + INTRA:         -10.664
REMARK INTER:                  -9.784
REMARK INTRA:                  -0.880
REMARK UNBOUND:                -0.990
REMARK  Name = 
REMARK  7 active torsions:
REMARK  status: ('A' for Active; 'I' for Inactive)
REMARK    1  A    between atoms: C_1  and  C_2
REMARK    2  A    between atoms: C_2  and  N_3
REMARK    3  A    between atoms: C_2  and  C_16
REMARK    4  A    between atoms: C_4  and  C_6
REMARK    5  A    between atoms: C_19  and  C_20
REMARK    6  A    between atoms: C_20  and  N_21
REMARK    7  A    between atoms: C_22  and  C_24
REMARK                            x       y       z     vdW  Elec       q    Type
REMARK                         _______ _______ _______ _____ _____    ______ ____
ROOT
ATOM      1  C   UNL     1      47.484   3.670  15.650  0.00  0.00    +0.000 C 
ATOM      2  C   UNL     1      47.028   5.031  15.106  0.00  0.00    +0.000 C 
ENDROOT
BRANCH   2   3
ATOM      3  C   UNL     1      46.203   4.844  13.835  0.00  0.00    +0.000 A 
ATOM      4  C   UNL     1      45.664   5.942  13.150  0.00  0.00    +0.000 A 
ATOM      5  C   UNL     1      44.944   5.762  11.958  0.00  0.00    +0.000 A 
ATOM      6  C   UNL     1      44.742   4.482  11.425  0.00  0.00    +0.000 A 
ATOM      7  C   UNL     1      45.275   3.384  12.110  0.00  0.00    +0.000 A 
ATOM      8  C   UNL     1      45.989   3.562  13.300  0.00  0.00    +0.000 A 
BRANCH   6   9
ATOM      9  C   UNL     1      43.987   4.280  10.133  0.00  0.00    +0.000 C 
BRANCH   9  10
ATOM     10  N   UNL     1      44.741   3.511   9.177  0.00  0.00    +0.000 N 
ATOM     11  C   UNL     1      45.710   4.088   8.378  0.00  0.00    +0.000 C 
ATOM     12  O   UNL     1      45.987   5.279   8.443  0.00  0.00    +0.000 OA
ATOM     13  H   UNL     1      44.612   2.508   9.114  0.00  0.00    +0.000 HD
BRANCH  11  14
ATOM     14  C   UNL     1      46.356   3.163   7.466  0.00  0.00    +0.000 A 
ATOM     15  C   UNL     1      46.776   3.307   6.155  0.00  0.00    +0.000 A 
ATOM     16  C   UNL     1      47.326   2.063   5.759  0.00  0.00    +0.000 A 
ATOM     17  C   UNL     1      47.210   1.233   6.850  0.00  0.00    +0.000 A 
ATOM     18  O   UNL     1      46.633   1.887   7.890  0.00  0.00    +0.000 OA
ENDBRANCH  11  14
ENDBRANCH   9  10
ENDBRANCH   6   9
ENDBRANCH   2   3
BRANCH   2  19
ATOM     19  N   UNL     1      48.146   5.925  14.824  0.00  0.00    +0.000 N 
ATOM     20  C   UNL     1      48.794   6.663  15.780  0.00  0.00    +0.000 C 
ATOM     21  O   UNL     1      48.513   6.604  16.974  0.00  0.00    +0.000 OA
ATOM     22  H   UNL     1      48.207   6.251  13.864  0.00  0.00    +0.000 HD
BRANCH  20  23
ATOM     23  C   UNL     1      49.906   7.504  15.314  0.00  0.00    +0.000 A 
ATOM     24  C   UNL     1      49.648   8.610  14.513  0.00  0.00    +0.000 A 
ATOM     25  S   UNL     1      51.051   9.462  14.049  0.00  0.00    +0.000 S 
ATOM     26  C   UNL     1      52.056   8.361  14.869  0.00  0.00    +0.000 A 
ATOM     27  N   UNL     1      53.410   8.484  14.827  0.00  0.00    +0.000 NA
ATOM     28  C   UNL     1      54.048   7.562  15.468  0.00  0.00    +0.000 A 
ATOM     29  N   UNL     1      53.455   6.541  16.165  0.00  0.00    +0.000 N 
ATOM     30  C   UNL     1      52.092   6.406  16.274  0.00  0.00    +0.000 A 
ATOM     31  O   UNL     1      51.589   5.531  16.971  0.00  0.00    +0.000 OA
ATOM     32  C   UNL     1      51.328   7.387  15.528  0.00  0.00    +0.000 A 
ATOM     33  H   UNL     1      54.011   5.869  16.671  0.00  0.00    +0.000 HD
ENDBRANCH  20  23
ENDBRANCH   2  19
TORSDOF 6
ENDMDL
MODEL 5
REMARK VINA RESULT:    -7.052      2.104      2.950
REMARK INTER + INTRA:         -10.515
REMARK INTER:                  -9.364
REMARK INTRA:                  -1.151
REMARK UNBOUND:                -0.990
REMARK  Name = 
REMARK  7 active torsions:
REMARK  status: ('A' for Active; 'I' for Inactive)
REMARK    1  A    between atoms: C_1  and  C_2
REMARK    2  A    between atoms: C_2  and  N_3
REMARK    3  A    between atoms: C_2  and  C_16
REMARK    4  A    between atoms: C_4  and  C_6
REMARK    5  A    between atoms: C_19  and  C_20
REMARK    6  A    between atoms: C_20  and  N_21
REMARK    7  A    between atoms: C_22  and  C_24
REMARK                            x       y       z     vdW  Elec       q    Type
REMARK                         _______ _______ _______ _____ _____    ______ ____
ROOT
ATOM      1  C   UNL     1      47.955   3.089  15.561  0.00  0.00    +0.000 C 
ATOM      2  C   UNL     1      47.138   4.386  15.644  0.00  0.00    +0.000 C 
ENDROOT
BRANCH   2   3
ATOM      3  C   UNL     1      46.644   4.789  14.256  0.00  0.00    +0.000 A 
ATOM      4  C   UNL     1      47.242   5.841  13.549  0.00  0.00    +0.000 A 
ATOM      5  C   UNL     1      46.809   6.176  12.256  0.00  0.00    +0.000 A 
ATOM      6  C   UNL     1      45.766   5.471  11.641  0.00  0.00    +0.000 A 
ATOM      7  C   UNL     1      45.163   4.424  12.348  0.00  0.00    +0.000 A 
ATOM      8  C   UNL     1      45.591   4.092  13.638  0.00  0.00    +0.000 A 
BRANCH   6   9
ATOM      9  C   UNL     1      45.307   5.810  10.243  0.00  0.00    +0.000 C 
BRANCH   9  10
ATOM     10  N   UNL     1      45.922   4.967   9.250  0.00  0.00    +0.000 N 
ATOM     11  C   UNL     1      45.289   3.843   8.755  0.00  0.00    +0.000 C 
ATOM     12  O   UNL     1      44.171   3.507   9.124  0.00  0.00    +0.000 OA
ATOM     13  H   UNL     1      46.818   5.220   8.850  0.00  0.00    +0.000 HD
BRANCH  11  14
ATOM     14  C   UNL     1      46.064   3.109   7.773  0.00  0.00    +0.000 A 
ATOM     15  C   UNL     1      46.522   3.460   6.514  0.00  0.00    +0.000 A 
ATOM     16  C   UNL     1      47.212   2.336   5.999  0.00  0.00    +0.000 A 
ATOM     17  C   UNL     1      47.136   1.365   6.970  0.00  0.00    +0.000 A 
ATOM     18  O   UNL     1      46.452   1.821   8.051  0.00  0.00    +0.000 OA
ENDBRANCH  11  14
ENDBRANCH   9  10
ENDBRANCH   6   9
ENDBRANCH   2   3
BRANCH   2  19
ATOM     19  N   UNL     1      47.896   5.491  16.221  0.00  0.00    +0.000 N 
ATOM     20  C   UNL     1      47.908   5.791  17.559  0.00  0.00    +0.000 C 
ATOM     21  O   UNL     1      47.307   5.126  18.399  0.00  0.00    +0.000 OA
ATOM     22  H   UNL     1      48.135   6.236  15.574  0.00  0.00    +0.000 HD
BRANCH  20  23
ATOM     23  C   UNL     1      48.737   6.936  17.963  0.00  0.00    +0.000 A 
ATOM     24  C   UNL     1      48.161   8.001  18.645  0.00  0.00    +0.000 A 
ATOM     25  S   UNL     1      49.260   9.249  19.021  0.00  0.00    +0.000 S 
ATOM     26  C   UNL     1      50.537   8.430  18.250  0.00  0.00    +0.000 A 
ATOM     27  N   UNL     1      51.774   8.988  18.160  0.00  0.00    +0.000 NA
ATOM     28  C   UNL     1      52.637   8.269  17.523  0.00  0.00    +0.000 A 
ATOM     29  N   UNL     1      52.382   7.034  16.987  0.00  0.00    +0.000 N 
ATOM     30  C   UNL     1      51.161   6.411  17.095  0.00  0.00    +0.000 A 
ATOM     31  O   UNL     1      50.984   5.272  16.678  0.00  0.00    +0.000 OA
ATOM     32  C   UNL     1      50.141   7.200  17.757  0.00  0.00    +0.000 A 
ATOM     33  H   UNL     1      53.110   6.509  16.525  0.00  0.00    +0.000 HD
ENDBRANCH  20  23
ENDBRANCH   2  19
TORSDOF 6
ENDMDL
MODEL 6
REMARK VINA RESULT:    -6.977      3.609      5.376
REMARK INTER + INTRA:         -10.414
REMARK INTER:                  -9.132
REMARK INTRA:                  -1.282
REMARK UNBOUND:                -0.990
REMARK  Name = 
REMARK  7 active torsions:
REMARK  status: ('A' for Active; 'I' for Inactive)
REMARK    1  A    between atoms: C_1  and  C_2
REMARK    2  A    between atoms: C_2  and  N_3
REMARK    3  A    between atoms: C_2  and  C_16
REMARK    4  A    between atoms: C_4  and  C_6
REMARK    5  A    between atoms: C_19  and  C_20
REMARK    6  A    between atoms: C_20  and  N_21
REMARK    7  A    between atoms: C_22  and  C_24
REMARK                            x       y       z     vdW  Elec       q    Type
REMARK                         _______ _______ _______ _____ _____    ______ ____
ROOT
ATOM      1  C   UNL     1      48.529   5.884  15.854  0.00  0.00    +0.000 C 
ATOM      2  C   UNL     1      48.454   6.915  14.719  0.00  0.00    +0.000 C 
ENDROOT
BRANCH   2   3
ATOM      3  C   UNL     1      47.508   6.427  13.624  0.00  0.00    +0.000 A 
ATOM      4  C   UNL     1      46.877   5.178  13.711  0.00  0.00    +0.000 A 
ATOM      5  C   UNL     1      45.976   4.758  12.720  0.00  0.00    +0.000 A 
ATOM      6  C   UNL     1      45.687   5.572  11.616  0.00  0.00    +0.000 A 
ATOM      7  C   UNL     1      46.321   6.817  11.525  0.00  0.00    +0.000 A 
ATOM      8  C   UNL     1      47.222   7.235  12.510  0.00  0.00    +0.000 A 
BRANCH   6   9
ATOM      9  C   UNL     1      44.704   5.137  10.556  0.00  0.00    +0.000 C 
BRANCH   9  10
ATOM     10  N   UNL     1      45.358   4.544   9.419  0.00  0.00    +0.000 N 
ATOM     11  C   UNL     1      45.315   3.184   9.180  0.00  0.00    +0.000 C 
ATOM     12  O   UNL     1      44.713   2.410   9.913  0.00  0.00    +0.000 OA
ATOM     13  H   UNL     1      45.819   5.131   8.733  0.00  0.00    +0.000 HD
BRANCH  11  14
ATOM     14  C   UNL     1      46.042   2.765   7.996  0.00  0.00    +0.000 A 
ATOM     15  C   UNL     1      46.303   3.414   6.801  0.00  0.00    +0.000 A 
ATOM     16  C   UNL     1      47.044   2.514   5.998  0.00  0.00    +0.000 A 
ATOM     17  C   UNL     1      47.193   1.370   6.747  0.00  0.00    +0.000 A 
ATOM     18  O   UNL     1      46.599   1.511   7.959  0.00  0.00    +0.000 OA
ENDBRANCH  11  14
ENDBRANCH   9  10
ENDBRANCH   6   9
ENDBRANCH   2   3
BRANCH   2  19
ATOM     19  N   UNL     1      49.758   7.200  14.132  0.00  0.00    +0.000 N 
ATOM     20  C   UNL     1      50.321   8.449  14.093  0.00  0.00    +0.000 C 
ATOM     21  O   UNL     1      49.787   9.439  14.588  0.00  0.00    +0.000 OA
ATOM     22  H   UNL     1      50.084   6.521  13.451  0.00  0.00    +0.000 HD
BRANCH  20  23
ATOM     23  C   UNL     1      51.649   8.548  13.470  0.00  0.00    +0.000 A 
ATOM     24  C   UNL     1      52.730   9.004  14.214  0.00  0.00    +0.000 A 
ATOM     25  S   UNL     1      54.188   9.073  13.332  0.00  0.00    +0.000 S 
ATOM     26  C   UNL     1      53.419   8.533  11.914  0.00  0.00    +0.000 A 
ATOM     27  N   UNL     1      54.105   8.420  10.744  0.00  0.00    +0.000 NA
ATOM     28  C   UNL     1      53.389   8.028   9.744  0.00  0.00    +0.000 A 
ATOM     29  N   UNL     1      52.055   7.719   9.810  0.00  0.00    +0.000 N 
ATOM     30  C   UNL     1      51.335   7.773  10.979  0.00  0.00    +0.000 A 
ATOM     31  O   UNL     1      50.164   7.412  11.026  0.00  0.00    +0.000 OA
ATOM     32  C   UNL     1      52.080   8.257  12.124  0.00  0.00    +0.000 A 
ATOM     33  H   UNL     1      51.559   7.389   8.996  0.00  0.00    +0.000 HD
ENDBRANCH  20  23
ENDBRANCH   2  19
TORSDOF 6
ENDMDL
MODEL 7
REMARK VINA RESULT:    -6.846      1.573      2.030
REMARK INTER + INTRA:         -10.237
REMARK INTER:                  -9.032
REMARK INTRA:                  -1.205
REMARK UNBOUND:                -0.990
REMARK  Name = 
REMARK  7 active torsions:
REMARK  status: ('A' for Active; 'I' for Inactive)
REMARK    1  A    between atoms: C_1  and  C_2
REMARK    2  A    between atoms: C_2  and  N_3
REMARK    3  A    between atoms: C_2  and  C_16
REMARK    4  A    between atoms: C_4  and  C_6
REMARK    5  A    between atoms: C_19  and  C_20
REMARK    6  A    between atoms: C_20  and  N_21
REMARK    7  A    between atoms: C_22  and  C_24
REMARK                            x       y       z     vdW  Elec       q    Type
REMARK                         _______ _______ _______ _____ _____    ______ ____
ROOT
ATOM      1  C   UNL     1      48.544  10.513  13.873  0.00  0.00    +0.000 C 
ATOM      2  C   UNL     1      48.868   9.015  13.794  0.00  0.00    +0.000 C 
ENDROOT
BRANCH   2   3
ATOM      3  C   UNL     1      47.783   8.279  13.010  0.00  0.00    +0.000 A 
ATOM      4  C   UNL     1      48.033   7.035  12.416  0.00  0.00    +0.000 A 
ATOM      5  C   UNL     1      47.016   6.346  11.735  0.00  0.00    +0.000 A 
ATOM      6  C   UNL     1      45.727   6.887  11.627  0.00  0.00    +0.000 A 
ATOM      7  C   UNL     1      45.478   8.133  12.215  0.00  0.00    +0.000 A 
ATOM      8  C   UNL     1      46.491   8.821  12.890  0.00  0.00    +0.000 A 
BRANCH   6   9
ATOM      9  C   UNL     1      44.622   6.145  10.914  0.00  0.00    +0.000 C 
BRANCH   9  10
ATOM     10  N   UNL     1      45.117   5.360   9.813  0.00  0.00    +0.000 N 
ATOM     11  C   UNL     1      45.010   3.982   9.794  0.00  0.00    +0.000 C 
ATOM     12  O   UNL     1      44.483   3.355  10.703  0.00  0.00    +0.000 OA
ATOM     13  H   UNL     1      45.506   5.816   8.996  0.00  0.00    +0.000 HD
BRANCH  11  14
ATOM     14  C   UNL     1      45.576   3.359   8.612  0.00  0.00    +0.000 A 
ATOM     15  C   UNL     1      45.912   2.045   8.337  0.00  0.00    +0.000 A 
ATOM     16  C   UNL     1      46.444   2.021   7.025  0.00  0.00    +0.000 A 
ATOM     17  C   UNL     1      46.404   3.320   6.575  0.00  0.00    +0.000 A 
ATOM     18  O   UNL     1      45.874   4.138   7.521  0.00  0.00    +0.000 OA
ENDBRANCH  11  14
ENDBRANCH   9  10
ENDBRANCH   6   9
ENDBRANCH   2   3
BRANCH   2  19
ATOM     19  N   UNL     1      49.006   8.401  15.110  0.00  0.00    +0.000 N 
ATOM     20  C   UNL     1      50.143   7.768  15.541  0.00  0.00    +0.000 C 
ATOM     21  O   UNL     1      51.166   7.697  14.864  0.00  0.00    +0.000 OA
ATOM     22  H   UNL     1      48.133   8.151  15.565  0.00  0.00    +0.000 HD
BRANCH  20  23
ATOM     23  C   UNL     1      50.106   7.214  16.903  0.00  0.00    +0.000 A 
ATOM     24  C   UNL     1      50.835   7.823  17.917  0.00  0.00    +0.000 A 
ATOM     25  S   UNL     1      50.693   7.042  19.426  0.00  0.00    +0.000 S 
ATOM     26  C   UNL     1      49.684   5.840  18.770  0.00  0.00    +0.000 A 
ATOM     27  N   UNL     1      49.237   4.807  19.534  0.00  0.00    +0.000 NA
ATOM     28  C   UNL     1      48.506   3.953  18.898  0.00  0.00    +0.000 A 
ATOM     29  N   UNL     1      48.164   4.048  17.574  0.00  0.00    +0.000 N 
ATOM     30  C   UNL     1      48.554   5.099  16.777  0.00  0.00    +0.000 A 
ATOM     31  O   UNL     1      48.165   5.201  15.619  0.00  0.00    +0.000 OA
ATOM     32  C   UNL     1      49.420   6.060  17.430  0.00  0.00    +0.000 A 
ATOM     33  H   UNL     1      47.564   3.362  17.144  0.00  0.00    +0.000 HD
ENDBRANCH  20  23
ENDBRANCH   2  19
TORSDOF 6
ENDMDL
MODEL 8
REMARK VINA RESULT:    -6.762      3.322      8.870
REMARK INTER + INTRA:         -10.123
REMARK INTER:                  -9.156
REMARK INTRA:                  -0.968
REMARK UNBOUND:                -0.990
REMARK  Name = 
REMARK  7 active torsions:
REMARK  status: ('A' for Active; 'I' for Inactive)
REMARK    1  A    between atoms: C_1  and  C_2
REMARK    2  A    between atoms: C_2  and  N_3
REMARK    3  A    between atoms: C_2  and  C_16
REMARK    4  A    between atoms: C_4  and  C_6
REMARK    5  A    between atoms: C_19  and  C_20
REMARK    6  A    between atoms: C_20  and  N_21
REMARK    7  A    between atoms: C_22  and  C_24
REMARK                            x       y       z     vdW  Elec       q    Type
REMARK                         _______ _______ _______ _____ _____    ______ ____
ROOT
ATOM      1  C   UNL     1      48.943   7.376  12.104  0.00  0.00    +0.000 C 
ATOM      2  C   UNL     1      47.745   7.010  12.990  0.00  0.00    +0.000 C 
ENDROOT
BRANCH   2   3
ATOM      3  C   UNL     1      48.223   6.568  14.372  0.00  0.00    +0.000 A 
ATOM      4  C   UNL     1      47.604   5.510  15.050  0.00  0.00    +0.000 A 
ATOM      5  C   UNL     1      48.078   5.083  16.301  0.00  0.00    +0.000 A 
ATOM      6  C   UNL     1      49.179   5.706  16.905  0.00  0.00    +0.000 A 
ATOM      7  C   UNL     1      49.795   6.767  16.230  0.00  0.00    +0.000 A 
ATOM      8  C   UNL     1      49.320   7.195  14.986  0.00  0.00    +0.000 A 
BRANCH   6   9
ATOM      9  C   UNL     1      49.710   5.241  18.240  0.00  0.00    +0.000 C 
BRANCH   9  10
ATOM     10  N   UNL     1      50.856   4.380  18.098  0.00  0.00    +0.000 N 
ATOM     11  C   UNL     1      50.727   3.033  17.818  0.00  0.00    +0.000 C 
ATOM     12  O   UNL     1      49.636   2.499  17.666  0.00  0.00    +0.000 OA
ATOM     13  H   UNL     1      51.792   4.766  18.146  0.00  0.00    +0.000 HD
BRANCH  11  14
ATOM     14  C   UNL     1      51.988   2.322  17.726  0.00  0.00    +0.000 A 
ATOM     15  C   UNL     1      53.297   2.772  17.698  0.00  0.00    +0.000 A 
ATOM     16  C   UNL     1      54.123   1.628  17.578  0.00  0.00    +0.000 A 
ATOM     17  C   UNL     1      53.273   0.548  17.539  0.00  0.00    +0.000 A 
ATOM     18  O   UNL     1      51.981   0.952  17.635  0.00  0.00    +0.000 OA
ENDBRANCH  11  14
ENDBRANCH   9  10
ENDBRANCH   6   9
ENDBRANCH   2   3
BRANCH   2  19
ATOM     19  N   UNL     1      46.920   5.955  12.410  0.00  0.00    +0.000 N 
ATOM     20  C   UNL     1      45.551   6.003  12.348  0.00  0.00    +0.000 C 
ATOM     21  O   UNL     1      44.898   6.964  12.745  0.00  0.00    +0.000 OA
ATOM     22  H   UNL     1      47.357   5.039  12.367  0.00  0.00    +0.000 HD
BRANCH  20  23
ATOM     23  C   UNL     1      44.885   4.852  11.720  0.00  0.00    +0.000 A 
ATOM     24  C   UNL     1      44.056   4.034  12.478  0.00  0.00    +0.000 A 
ATOM     25  S   UNL     1      43.381   2.740  11.597  0.00  0.00    +0.000 S 
ATOM     26  C   UNL     1      44.203   3.203  10.181  0.00  0.00    +0.000 A 
ATOM     27  N   UNL     1      44.104   2.468   9.041  0.00  0.00    +0.000 NA
ATOM     28  C   UNL     1      44.804   2.918   8.055  0.00  0.00    +0.000 A 
ATOM     29  N   UNL     1      45.578   4.050   8.097  0.00  0.00    +0.000 N 
ATOM     30  C   UNL     1      45.670   4.848   9.212  0.00  0.00    +0.000 A 
ATOM     31  O   UNL     1      46.304   5.898   9.197  0.00  0.00    +0.000 OA
ATOM     32  C   UNL     1      44.943   4.357  10.366  0.00  0.00    +0.000 A 
ATOM     33  H   UNL     1      46.079   4.365   7.281  0.00  0.00    +0.000 HD
ENDBRANCH  20  23
ENDBRANCH   2  19
TORSDOF 6
ENDMDL
MODEL 9
REMARK VINA RESULT:    -6.704      3.669      8.597
REMARK INTER + INTRA:         -10.046
REMARK INTER:                  -8.939
REMARK INTRA:                  -1.107
REMARK UNBOUND:                -0.990
REMARK  Name = 
REMARK  7 active torsions:
REMARK  status: ('A' for Active; 'I' for Inactive)
REMARK    1  A    between atoms: C_1  and  C_2
REMARK    2  A    between atoms: C_2  and  N_3
REMARK    3  A    between atoms: C_2  and  C_16
REMARK    4  A    between atoms: C_4  and  C_6
REMARK    5  A    between atoms: C_19  and  C_20
REMARK    6  A    between atoms: C_20  and  N_21
REMARK    7  A    between atoms: C_22  and  C_24
REMARK                            x       y       z     vdW  Elec       q    Type
REMARK                         _______ _______ _______ _____ _____    ______ ____
ROOT
ATOM      1  C   UNL     1      49.480   8.061  11.905  0.00  0.00    +0.000 C 
ATOM      2  C   UNL     1      48.244   7.607  12.693  0.00  0.00    +0.000 C 
ENDROOT
BRANCH   2   3
ATOM      3  C   UNL     1      48.655   7.087  14.069  0.00  0.00    +0.000 A 
ATOM      4  C   UNL     1      47.993   6.004  14.664  0.00  0.00    +0.000 A 
ATOM      5  C   UNL     1      48.407   5.505  15.910  0.00  0.00    +0.000 A 
ATOM      6  C   UNL     1      49.489   6.079  16.592  0.00  0.00    +0.000 A 
ATOM      7  C   UNL     1      50.148   7.164  16.001  0.00  0.00    +0.000 A 
ATOM      8  C   UNL     1      49.733   7.664  14.762  0.00  0.00    +0.000 A 
BRANCH   6   9
ATOM      9  C   UNL     1      49.954   5.536  17.922  0.00  0.00    +0.000 C 
BRANCH   9  10
ATOM     10  N   UNL     1      50.606   4.259  17.789  0.00  0.00    +0.000 N 
ATOM     11  C   UNL     1      51.979   4.129  17.883  0.00  0.00    +0.000 C 
ATOM     12  O   UNL     1      52.714   5.085  18.093  0.00  0.00    +0.000 OA
ATOM     13  H   UNL     1      50.057   3.415  17.680  0.00  0.00    +0.000 HD
BRANCH  11  14
ATOM     14  C   UNL     1      52.459   2.771  17.710  0.00  0.00    +0.000 A 
ATOM     15  C   UNL     1      51.792   1.559  17.662  0.00  0.00    +0.000 A 
ATOM     16  C   UNL     1      52.775   0.553  17.494  0.00  0.00    +0.000 A 
ATOM     17  C   UNL     1      53.984   1.207  17.449  0.00  0.00    +0.000 A 
ATOM     18  O   UNL     1      53.807   2.548  17.571  0.00  0.00    +0.000 OA
ENDBRANCH  11  14
ENDBRANCH   9  10
ENDBRANCH   6   9
ENDBRANCH   2   3
BRANCH   2  19
ATOM     19  N   UNL     1      47.484   6.573  11.999  0.00  0.00    +0.000 N 
ATOM     20  C   UNL     1      46.198   6.740  11.554  0.00  0.00    +0.000 C 
ATOM     21  O   UNL     1      45.583   7.797  11.669  0.00  0.00    +0.000 OA
ATOM     22  H   UNL     1      47.802   5.622  12.158  0.00  0.00    +0.000 HD
BRANCH  20  23
ATOM     23  C   UNL     1      45.591   5.592  10.866  0.00  0.00    +0.000 A 
ATOM     24  C   UNL     1      45.667   5.495   9.482  0.00  0.00    +0.000 A 
ATOM     25  S   UNL     1      44.896   4.112   8.848  0.00  0.00    +0.000 S 
ATOM     26  C   UNL     1      44.399   3.613  10.397  0.00  0.00    +0.000 A 
ATOM     27  N   UNL     1      43.633   2.501  10.562  0.00  0.00    +0.000 NA
ATOM     28  C   UNL     1      43.304   2.259  11.787  0.00  0.00    +0.000 A 
ATOM     29  N   UNL     1      43.690   3.015  12.864  0.00  0.00    +0.000 N 
ATOM     30  C   UNL     1      44.502   4.117  12.749  0.00  0.00    +0.000 A 
ATOM     31  O   UNL     1      44.899   4.726  13.737  0.00  0.00    +0.000 OA
ATOM     32  C   UNL     1      44.857   4.464  11.387  0.00  0.00    +0.000 A 
ATOM     33  H   UNL     1      43.424   2.754  13.802  0.00  0.00    +0.000 HD
ENDBRANCH  20  23
ENDBRANCH   2  19
TORSDOF 6
ENDMDL
