MODEL 1
REMARK VINA RESULT:    -7.996      0.000      0.000
REMARK INTER + INTRA:         -10.613
REMARK INTER:                 -10.333
REMARK INTRA:                  -0.280
REMARK UNBOUND:                -0.280
REMARK  Name = 
REMARK  5 active torsions:
REMARK  status: ('A' for Active; 'I' for Inactive)
REMARK    1  A    between atoms: C_2  and  C_18
REMARK    2  A    between atoms: N_3  and  C_4
REMARK    3  A    between atoms: C_4  and  C_5
REMARK    4  A    between atoms: C_8  and  C_9
REMARK    5  A    between atoms: C_9  and  N_10
REMARK                            x       y       z     vdW  Elec       q    Type
REMARK                         _______ _______ _______ _____ _____    ______ ____
ROOT
ATOM      1  O   UNL     1      46.652   3.413  13.813  0.00  0.00    +0.000 OA
ATOM      2  C   UNL     1      46.508   4.581  14.164  0.00  0.00    +0.000 C 
ATOM      3  N   UNL     1      45.456   5.349  13.746  0.00  0.00    +0.000 N 
ATOM      4  H   UNL     1      45.333   6.286  14.109  0.00  0.00    +0.000 HD
ENDROOT
BRANCH   2   5
ATOM      5  C   UNL     1      47.485   5.253  15.032  0.00  0.00    +0.000 A 
ATOM      6  C   UNL     1      48.272   6.285  14.539  0.00  0.00    +0.000 A 
ATOM      7  S   UNL     1      49.311   6.963  15.712  0.00  0.00    +0.000 S 
ATOM      8  C   UNL     1      48.783   5.866  16.900  0.00  0.00    +0.000 A 
ATOM      9  N   UNL     1      49.294   5.894  18.161  0.00  0.00    +0.000 NA
ATOM     10  C   UNL     1      48.837   4.978  18.949  0.00  0.00    +0.000 A 
ATOM     11  N   UNL     1      47.907   4.035  18.581  0.00  0.00    +0.000 N 
ATOM     12  C   UNL     1      47.347   3.978  17.326  0.00  0.00    +0.000 A 
ATOM     13  O   UNL     1      46.501   3.136  17.046  0.00  0.00    +0.000 OA
ATOM     14  C   UNL     1      47.828   4.995  16.410  0.00  0.00    +0.000 A 
ATOM     15  H   UNL     1      47.588   3.339  19.240  0.00  0.00    +0.000 HD
ENDBRANCH   2   5
BRANCH   3  16
ATOM     16  C   UNL     1      44.363   4.816  12.951  0.00  0.00    +0.000 C 
BRANCH  16  17
ATOM     17  C   UNL     1      44.723   4.768  11.479  0.00  0.00    +0.000 A 
ATOM     18  C   UNL     1      45.444   5.810  10.898  0.00  0.00    +0.000 A 
ATOM     19  C   UNL     1      45.912   5.672   9.589  0.00  0.00    +0.000 A 
ATOM     20  C   UNL     1      45.688   4.483   8.886  0.00  0.00    +0.000 A 
ATOM     21  C   UNL     1      44.903   3.528   9.520  0.00  0.00    +0.000 A 
ATOM     22  N   UNL     1      44.427   3.635  10.787  0.00  0.00    +0.000 NA
BRANCH  20  23
ATOM     23  C   UNL     1      46.385   4.200   7.571  0.00  0.00    +0.000 C 
BRANCH  23  24
ATOM     24  N   UNL     1      45.961   2.974   6.880  0.00  0.00    +0.000 NA
ATOM     25  C   UNL     1      46.488   1.741   7.504  0.00  0.00    +0.000 C 
ATOM     26  C   UNL     1      47.993   1.523   7.272  0.00  0.00    +0.000 C 
ATOM     27  O   UNL     1      48.285   1.443   5.873  0.00  0.00    +0.000 OA
ATOM     28  C   UNL     1      47.858   2.622   5.183  0.00  0.00    +0.000 C 
ATOM     29  C   UNL     1      46.380   2.972   5.456  0.00  0.00    +0.000 C 
ENDBRANCH  23  24
ENDBRANCH  20  23
ENDBRANCH  16  17
ENDBRANCH   3  16
TORSDOF 5
ENDMDL
MODEL 2
REMARK VINA RESULT:    -7.488      3.827      5.901
REMARK INTER + INTRA:          -9.958
REMARK INTER:                  -9.083
REMARK INTRA:                  -0.875
REMARK UNBOUND:                -0.280
REMARK  Name = 
REMARK  5 active torsions:
REMARK  status: ('A' for Active; 'I' for Inactive)
REMARK    1  A    between atoms: C_2  and  C_18
REMARK    2  A    between atoms: N_3  and  C_4
REMARK    3  A    between atoms: C_4  and  C_5
REMARK    4  A    between atoms: C_8  and  C_9
REMARK    5  A    between atoms: C_9  and  N_10
REMARK                            x       y       z     vdW  Elec       q    Type
REMARK                         _______ _______ _______ _____ _____    ______ ____
ROOT
ATOM      1  O   UNL     1      49.984   6.065  18.806  0.00  0.00    +0.000 OA
ATOM      2  C   UNL     1      50.716   5.591  17.943  0.00  0.00    +0.000 C 
ATOM      3  N   UNL     1      50.576   5.888  16.615  0.00  0.00    +0.000 N 
ATOM      4  H   UNL     1      51.241   5.532  15.941  0.00  0.00    +0.000 HD
ENDROOT
BRANCH   2   5
ATOM      5  C   UNL     1      51.779   4.631  18.275  0.00  0.00    +0.000 A 
ATOM      6  C   UNL     1      52.936   5.055  18.913  0.00  0.00    +0.000 A 
ATOM      7  S   UNL     1      54.028   3.786  19.249  0.00  0.00    +0.000 S 
ATOM      8  C   UNL     1      53.016   2.639  18.505  0.00  0.00    +0.000 A 
ATOM      9  N   UNL     1      53.370   1.327  18.434  0.00  0.00    +0.000 NA
ATOM     10  C   UNL     1      52.530   0.574  17.805  0.00  0.00    +0.000 A 
ATOM     11  N   UNL     1      51.361   1.024  17.240  0.00  0.00    +0.000 N 
ATOM     12  C   UNL     1      50.950   2.335  17.302  0.00  0.00    +0.000 A 
ATOM     13  O   UNL     1      49.885   2.690  16.807  0.00  0.00    +0.000 OA
ATOM     14  C   UNL     1      51.862   3.215  18.008  0.00  0.00    +0.000 A 
ATOM     15  H   UNL     1      50.743   0.388  16.756  0.00  0.00    +0.000 HD
ENDBRANCH   2   5
BRANCH   3  16
ATOM     16  C   UNL     1      49.628   6.875  16.130  0.00  0.00    +0.000 C 
BRANCH  16  17
ATOM     17  C   UNL     1      48.518   6.227  15.326  0.00  0.00    +0.000 A 
ATOM     18  C   UNL     1      48.237   6.668  14.034  0.00  0.00    +0.000 A 
ATOM     19  C   UNL     1      47.330   5.951  13.249  0.00  0.00    +0.000 A 
ATOM     20  C   UNL     1      46.741   4.784  13.746  0.00  0.00    +0.000 A 
ATOM     21  C   UNL     1      47.028   4.460  15.066  0.00  0.00    +0.000 A 
ATOM     22  N   UNL     1      47.898   5.139  15.857  0.00  0.00    +0.000 NA
BRANCH  20  23
ATOM     23  C   UNL     1      45.953   3.852  12.848  0.00  0.00    +0.000 C 
BRANCH  23  24
ATOM     24  N   UNL     1      44.496   3.870  13.037  0.00  0.00    +0.000 NA
ATOM     25  C   UNL     1      43.769   3.045  12.049  0.00  0.00    +0.000 C 
ATOM     26  C   UNL     1      43.737   3.652  10.636  0.00  0.00    +0.000 C 
ATOM     27  O   UNL     1      43.109   4.938  10.652  0.00  0.00    +0.000 OA
ATOM     28  C   UNL     1      43.777   5.835  11.545  0.00  0.00    +0.000 C 
ATOM     29  C   UNL     1      43.948   5.248  12.963  0.00  0.00    +0.000 C 
ENDBRANCH  23  24
ENDBRANCH  20  23
ENDBRANCH  16  17
ENDBRANCH   3  16
TORSDOF 5
ENDMDL
MODEL 3
REMARK VINA RESULT:    -7.092      4.203      9.510
REMARK INTER + INTRA:          -9.445
REMARK INTER:                  -8.720
REMARK INTRA:                  -0.725
REMARK UNBOUND:                -0.280
REMARK  Name = 
REMARK  5 active torsions:
REMARK  status: ('A' for Active; 'I' for Inactive)
REMARK    1  A    between atoms: C_2  and  C_18
REMARK    2  A    between atoms: N_3  and  C_4
REMARK    3  A    between atoms: C_4  and  C_5
REMARK    4  A    between atoms: C_8  and  C_9
REMARK    5  A    between atoms: C_9  and  N_10
REMARK                            x       y       z     vdW  Elec       q    Type
REMARK                         _______ _______ _______ _____ _____    ______ ____
ROOT
ATOM      1  O   UNL     1      47.165   3.137  13.795  0.00  0.00    +0.000 OA
ATOM      2  C   UNL     1      46.755   4.179  14.298  0.00  0.00    +0.000 C 
ATOM      3  N   UNL     1      46.782   4.405  15.647  0.00  0.00    +0.000 N 
ATOM      4  H   UNL     1      46.498   5.302  16.019  0.00  0.00    +0.000 HD
ENDROOT
BRANCH   2   5
ATOM      5  C   UNL     1      46.162   5.249  13.483  0.00  0.00    +0.000 A 
ATOM      6  C   UNL     1      46.842   6.443  13.285  0.00  0.00    +0.000 A 
ATOM      7  S   UNL     1      46.008   7.538  12.277  0.00  0.00    +0.000 S 
ATOM      8  C   UNL     1      44.689   6.477  12.114  0.00  0.00    +0.000 A 
ATOM      9  N   UNL     1      43.600   6.815  11.371  0.00  0.00    +0.000 NA
ATOM     10  C   UNL     1      42.654   5.935  11.369  0.00  0.00    +0.000 A 
ATOM     11  N   UNL     1      42.706   4.742  12.048  0.00  0.00    +0.000 N 
ATOM     12  C   UNL     1      43.791   4.347  12.795  0.00  0.00    +0.000 A 
ATOM     13  O   UNL     1      43.807   3.261  13.365  0.00  0.00    +0.000 OA
ATOM     14  C   UNL     1      44.881   5.304  12.819  0.00  0.00    +0.000 A 
ATOM     15  H   UNL     1      41.933   4.093  12.012  0.00  0.00    +0.000 HD
ENDBRANCH   2   5
BRANCH   3  16
ATOM     16  C   UNL     1      47.405   3.485  16.582  0.00  0.00    +0.000 C 
BRANCH  16  17
ATOM     17  C   UNL     1      48.783   3.966  16.996  0.00  0.00    +0.000 A 
ATOM     18  C   UNL     1      49.715   3.066  17.510  0.00  0.00    +0.000 A 
ATOM     19  C   UNL     1      51.028   3.491  17.725  0.00  0.00    +0.000 A 
ATOM     20  C   UNL     1      51.407   4.796  17.392  0.00  0.00    +0.000 A 
ATOM     21  C   UNL     1      50.396   5.640  16.950  0.00  0.00    +0.000 A 
ATOM     22  N   UNL     1      49.109   5.261  16.737  0.00  0.00    +0.000 NA
BRANCH  20  23
ATOM     23  C   UNL     1      52.862   5.216  17.376  0.00  0.00    +0.000 C 
BRANCH  23  24
ATOM     24  N   UNL     1      53.224   6.283  18.319  0.00  0.00    +0.000 NA
ATOM     25  C   UNL     1      54.657   6.648  18.267  0.00  0.00    +0.000 C 
ATOM     26  C   UNL     1      55.589   5.590  18.883  0.00  0.00    +0.000 C 
ATOM     27  O   UNL     1      55.263   5.366  20.258  0.00  0.00    +0.000 OA
ATOM     28  C   UNL     1      53.901   4.954  20.412  0.00  0.00    +0.000 C 
ATOM     29  C   UNL     1      52.906   5.911  19.721  0.00  0.00    +0.000 C 
ENDBRANCH  23  24
ENDBRANCH  20  23
ENDBRANCH  16  17
ENDBRANCH   3  16
TORSDOF 5
ENDMDL
MODEL 4
REMARK VINA RESULT:    -6.954      2.962      9.192
REMARK INTER + INTRA:          -9.268
REMARK INTER:                  -8.416
REMARK INTRA:                  -0.852
REMARK UNBOUND:                -0.280
REMARK  Name = 
REMARK  5 active torsions:
REMARK  status: ('A' for Active; 'I' for Inactive)
REMARK    1  A    between atoms: C_2  and  C_18
REMARK    2  A    between atoms: N_3  and  C_4
REMARK    3  A    between atoms: C_4  and  C_5
REMARK    4  A    between atoms: C_8  and  C_9
REMARK    5  A    between atoms: C_9  and  N_10
REMARK                            x       y       z     vdW  Elec       q    Type
REMARK                         _______ _______ _______ _____ _____    ______ ____
ROOT
ATOM      1  O   UNL     1      44.854   7.519  11.836  0.00  0.00    +0.000 OA
ATOM      2  C   UNL     1      45.547   6.509  11.759  0.00  0.00    +0.000 C 
ATOM      3  N   UNL     1      46.913   6.549  11.824  0.00  0.00    +0.000 N 
ATOM      4  H   UNL     1      47.448   5.689  11.825  0.00  0.00    +0.000 HD
ENDROOT
BRANCH   2   5
ATOM      5  C   UNL     1      44.956   5.180  11.550  0.00  0.00    +0.000 A 
ATOM      6  C   UNL     1      44.302   4.529  12.587  0.00  0.00    +0.000 A 
ATOM      7  S   UNL     1      43.648   3.019  12.132  0.00  0.00    +0.000 S 
ATOM      8  C   UNL     1      44.263   3.160  10.553  0.00  0.00    +0.000 A 
ATOM      9  N   UNL     1      44.066   2.180   9.629  0.00  0.00    +0.000 NA
ATOM     10  C   UNL     1      44.623   2.398   8.485  0.00  0.00    +0.000 A 
ATOM     11  N   UNL     1      45.362   3.517   8.184  0.00  0.00    +0.000 N 
ATOM     12  C   UNL     1      45.572   4.543   9.076  0.00  0.00    +0.000 A 
ATOM     13  O   UNL     1      46.217   5.537   8.758  0.00  0.00    +0.000 OA
ATOM     14  C   UNL     1      44.956   4.343  10.374  0.00  0.00    +0.000 A 
ATOM     15  H   UNL     1      45.778   3.632   7.270  0.00  0.00    +0.000 HD
ENDBRANCH   2   5
BRANCH   3  16
ATOM     16  C   UNL     1      47.649   7.769  12.106  0.00  0.00    +0.000 C 
BRANCH  16  17
ATOM     17  C   UNL     1      48.219   7.757  13.511  0.00  0.00    +0.000 A 
ATOM     18  C   UNL     1      47.887   8.768  14.411  0.00  0.00    +0.000 A 
ATOM     19  C   UNL     1      48.283   8.652  15.746  0.00  0.00    +0.000 A 
ATOM     20  C   UNL     1      48.973   7.514  16.177  0.00  0.00    +0.000 A 
ATOM     21  C   UNL     1      49.320   6.592  15.196  0.00  0.00    +0.000 A 
ATOM     22  N   UNL     1      48.957   6.680  13.890  0.00  0.00    +0.000 NA
BRANCH  20  23
ATOM     23  C   UNL     1      49.200   7.237  17.649  0.00  0.00    +0.000 C 
BRANCH  23  24
ATOM     24  N   UNL     1      48.025   6.761  18.393  0.00  0.00    +0.000 NA
ATOM     25  C   UNL     1      48.172   6.888  19.859  0.00  0.00    +0.000 C 
ATOM     26  C   UNL     1      49.152   5.875  20.474  0.00  0.00    +0.000 C 
ATOM     27  O   UNL     1      48.726   4.534  20.210  0.00  0.00    +0.000 OA
ATOM     28  C   UNL     1      48.605   4.292  18.805  0.00  0.00    +0.000 C 
ATOM     29  C   UNL     1      47.722   5.339  18.093  0.00  0.00    +0.000 C 
ENDBRANCH  23  24
ENDBRANCH  20  23
ENDBRANCH  16  17
ENDBRANCH   3  16
TORSDOF 5
ENDMDL
MODEL 5
REMARK VINA RESULT:    -6.750      4.134      9.873
REMARK INTER + INTRA:          -9.003
REMARK INTER:                  -8.394
REMARK INTRA:                  -0.610
REMARK UNBOUND:                -0.280
REMARK  Name = 
REMARK  5 active torsions:
REMARK  status: ('A' for Active; 'I' for Inactive)
REMARK    1  A    between atoms: C_2  and  C_18
REMARK    2  A    between atoms: N_3  and  C_4
REMARK    3  A    between atoms: C_4  and  C_5
REMARK    4  A    between atoms: C_8  and  C_9
REMARK    5  A    between atoms: C_9  and  N_10
REMARK                            x       y       z     vdW  Elec       q    Type
REMARK                         _______ _______ _______ _____ _____    ______ ____
ROOT
ATOM      1  O   UNL     1      47.357   3.268  13.697  0.00  0.00    +0.000 OA
ATOM      2  C   UNL     1      46.805   4.240  14.203  0.00  0.00    +0.000 C 
ATOM      3  N   UNL     1      46.711   4.412  15.557  0.00  0.00    +0.000 N 
ATOM      4  H   UNL     1      46.309   5.259  15.937  0.00  0.00    +0.000 HD
ENDROOT
BRANCH   2   5
ATOM      5  C   UNL     1      46.165   5.278  13.382  0.00  0.00    +0.000 A 
ATOM      6  C   UNL     1      46.787   6.503  13.185  0.00  0.00    +0.000 A 
ATOM      7  S   UNL     1      45.905   7.554  12.169  0.00  0.00    +0.000 S 
ATOM      8  C   UNL     1      44.640   6.430  12.003  0.00  0.00    +0.000 A 
ATOM      9  N   UNL     1      43.539   6.712  11.254  0.00  0.00    +0.000 NA
ATOM     10  C   UNL     1      42.638   5.787  11.249  0.00  0.00    +0.000 A 
ATOM     11  N   UNL     1      42.745   4.599  11.932  0.00  0.00    +0.000 N 
ATOM     12  C   UNL     1      43.844   4.259  12.686  0.00  0.00    +0.000 A 
ATOM     13  O   UNL     1      43.911   3.177  13.258  0.00  0.00    +0.000 OA
ATOM     14  C   UNL     1      44.886   5.268  12.712  0.00  0.00    +0.000 A 
ATOM     15  H   UNL     1      42.004   3.912  11.894  0.00  0.00    +0.000 HD
ENDBRANCH   2   5
BRANCH   3  16
ATOM     16  C   UNL     1      47.357   3.521  16.505  0.00  0.00    +0.000 C 
BRANCH  16  17
ATOM     17  C   UNL     1      47.779   4.262  17.760  0.00  0.00    +0.000 A 
ATOM     18  C   UNL     1      49.071   4.112  18.262  0.00  0.00    +0.000 A 
ATOM     19  C   UNL     1      49.494   4.928  19.314  0.00  0.00    +0.000 A 
ATOM     20  C   UNL     1      48.640   5.909  19.829  0.00  0.00    +0.000 A 
ATOM     21  C   UNL     1      47.350   5.939  19.312  0.00  0.00    +0.000 A 
ATOM     22  N   UNL     1      46.905   5.156  18.296  0.00  0.00    +0.000 NA
BRANCH  20  23
ATOM     23  C   UNL     1      49.141   6.968  20.789  0.00  0.00    +0.000 C 
BRANCH  23  24
ATOM     24  N   UNL     1      50.188   7.855  20.266  0.00  0.00    +0.000 NA
ATOM     25  C   UNL     1      50.459   9.018  21.138  0.00  0.00    +0.000 C 
ATOM     26  C   UNL     1      49.348  10.081  21.118  0.00  0.00    +0.000 C 
ATOM     27  O   UNL     1      49.155  10.587  19.793  0.00  0.00    +0.000 OA
ATOM     28  C   UNL     1      48.832   9.538  18.874  0.00  0.00    +0.000 C 
ATOM     29  C   UNL     1      49.847   8.374  18.917  0.00  0.00    +0.000 C 
ENDBRANCH  23  24
ENDBRANCH  20  23
ENDBRANCH  16  17
ENDBRANCH   3  16
TORSDOF 5
ENDMDL
MODEL 6
REMARK VINA RESULT:    -6.741      3.152      4.346
REMARK INTER + INTRA:          -8.992
REMARK INTER:                  -8.162
REMARK INTRA:                  -0.830
REMARK UNBOUND:                -0.280
REMARK  Name = 
REMARK  5 active torsions:
REMARK  status: ('A' for Active; 'I' for Inactive)
REMARK    1  A    between atoms: C_2  and  C_18
REMARK    2  A    between atoms: N_3  and  C_4
REMARK    3  A    between atoms: C_4  and  C_5
REMARK    4  A    between atoms: C_8  and  C_9
REMARK    5  A    between atoms: C_9  and  N_10
REMARK                            x       y       z     vdW  Elec       q    Type
REMARK                         _______ _______ _______ _____ _____    ______ ____
ROOT
ATOM      1  O   UNL     1      50.075   7.149  14.260  0.00  0.00    +0.000 OA
ATOM      2  C   UNL     1      49.230   7.146  15.149  0.00  0.00    +0.000 C 
ATOM      3  N   UNL     1      48.135   7.967  15.128  0.00  0.00    +0.000 N 
ATOM      4  H   UNL     1      47.425   7.887  15.844  0.00  0.00    +0.000 HD
ENDROOT
BRANCH   2   5
ATOM      5  C   UNL     1      49.355   6.280  16.330  0.00  0.00    +0.000 A 
ATOM      6  C   UNL     1      50.351   6.510  17.270  0.00  0.00    +0.000 A 
ATOM      7  S   UNL     1      50.303   5.425  18.587  0.00  0.00    +0.000 S 
ATOM      8  C   UNL     1      48.987   4.580  17.920  0.00  0.00    +0.000 A 
ATOM      9  N   UNL     1      48.447   3.503  18.553  0.00  0.00    +0.000 NA
ATOM     10  C   UNL     1      47.481   2.930  17.915  0.00  0.00    +0.000 A 
ATOM     11  N   UNL     1      47.007   3.345  16.694  0.00  0.00    +0.000 N 
ATOM     12  C   UNL     1      47.506   4.438  16.024  0.00  0.00    +0.000 A 
ATOM     13  O   UNL     1      47.036   4.791  14.947  0.00  0.00    +0.000 OA
ATOM     14  C   UNL     1      48.589   5.117  16.710  0.00  0.00    +0.000 A 
ATOM     15  H   UNL     1      46.250   2.854  16.239  0.00  0.00    +0.000 HD
ENDBRANCH   2   5
BRANCH   3  16
ATOM     16  C   UNL     1      47.822   8.824  13.998  0.00  0.00    +0.000 C 
BRANCH  16  17
ATOM     17  C   UNL     1      47.022   8.080  12.946  0.00  0.00    +0.000 A 
ATOM     18  C   UNL     1      47.671   7.456  11.882  0.00  0.00    +0.000 A 
ATOM     19  C   UNL     1      46.938   6.636  11.020  0.00  0.00    +0.000 A 
ATOM     20  C   UNL     1      45.576   6.418  11.248  0.00  0.00    +0.000 A 
ATOM     21  C   UNL     1      45.001   7.135  12.291  0.00  0.00    +0.000 A 
ATOM     22  N   UNL     1      45.683   7.945  13.141  0.00  0.00    +0.000 NA
BRANCH  20  23
ATOM     23  C   UNL     1      44.808   5.352  10.494  0.00  0.00    +0.000 C 
BRANCH  23  24
ATOM     24  N   UNL     1      45.263   3.972  10.708  0.00  0.00    +0.000 NA
ATOM     25  C   UNL     1      44.241   2.960  10.362  0.00  0.00    +0.000 C 
ATOM     26  C   UNL     1      43.077   2.885  11.365  0.00  0.00    +0.000 C 
ATOM     27  O   UNL     1      43.558   2.566  12.675  0.00  0.00    +0.000 OA
ATOM     28  C   UNL     1      44.520   3.523  13.127  0.00  0.00    +0.000 C 
ATOM     29  C   UNL     1      45.668   3.738  12.117  0.00  0.00    +0.000 C 
ENDBRANCH  23  24
ENDBRANCH  20  23
ENDBRANCH  16  17
ENDBRANCH   3  16
TORSDOF 5
ENDMDL
MODEL 7
REMARK VINA RESULT:    -6.600      3.534      9.012
REMARK INTER + INTRA:          -8.810
REMARK INTER:                  -8.072
REMARK INTRA:                  -0.738
REMARK UNBOUND:                -0.280
REMARK  Name = 
REMARK  5 active torsions:
REMARK  status: ('A' for Active; 'I' for Inactive)
REMARK    1  A    between atoms: C_2  and  C_18
REMARK    2  A    between atoms: N_3  and  C_4
REMARK    3  A    between atoms: C_4  and  C_5
REMARK    4  A    between atoms: C_8  and  C_9
REMARK    5  A    between atoms: C_9  and  N_10
REMARK                            x       y       z     vdW  Elec       q    Type
REMARK                         _______ _______ _______ _____ _____    ______ ____
ROOT
ATOM      1  O   UNL     1      45.774   7.844  11.795  0.00  0.00    +0.000 OA
ATOM      2  C   UNL     1      46.403   6.858  11.424  0.00  0.00    +0.000 C 
ATOM      3  N   UNL     1      47.761   6.758  11.558  0.00  0.00    +0.000 N 
ATOM      4  H   UNL     1      48.237   5.902  11.303  0.00  0.00    +0.000 HD
ENDROOT
BRANCH   2   5
ATOM      5  C   UNL     1      45.742   5.722  10.766  0.00  0.00    +0.000 A 
ATOM      6  C   UNL     1      45.844   5.545   9.394  0.00  0.00    +0.000 A 
ATOM      7  S   UNL     1      45.044   4.147   8.829  0.00  0.00    +0.000 S 
ATOM      8  C   UNL     1      44.490   3.761  10.390  0.00  0.00    +0.000 A 
ATOM      9  N   UNL     1      43.718   2.662  10.612  0.00  0.00    +0.000 NA
ATOM     10  C   UNL     1      43.332   2.513  11.836  0.00  0.00    +0.000 A 
ATOM     11  N   UNL     1      43.654   3.371  12.859  0.00  0.00    +0.000 N 
ATOM     12  C   UNL     1      44.446   4.483  12.689  0.00  0.00    +0.000 A 
ATOM     13  O   UNL     1      44.732   5.210  13.635  0.00  0.00    +0.000 OA
ATOM     14  C   UNL     1      44.909   4.685  11.329  0.00  0.00    +0.000 A 
ATOM     15  H   UNL     1      43.320   3.205  13.798  0.00  0.00    +0.000 HD
ENDBRANCH   2   5
BRANCH   3  16
ATOM     16  C   UNL     1      48.554   7.756  12.255  0.00  0.00    +0.000 C 
BRANCH  16  17
ATOM     17  C   UNL     1      49.001   7.254  13.615  0.00  0.00    +0.000 A 
ATOM     18  C   UNL     1      49.979   7.944  14.330  0.00  0.00    +0.000 A 
ATOM     19  C   UNL     1      50.256   7.567  15.647  0.00  0.00    +0.000 A 
ATOM     20  C   UNL     1      49.531   6.533  16.248  0.00  0.00    +0.000 A 
ATOM     21  C   UNL     1      48.625   5.859  15.438  0.00  0.00    +0.000 A 
ATOM     22  N   UNL     1      48.338   6.196  14.153  0.00  0.00    +0.000 NA
BRANCH  20  23
ATOM     23  C   UNL     1      49.626   6.262  17.736  0.00  0.00    +0.000 C 
BRANCH  23  24
ATOM     24  N   UNL     1      48.537   5.455  18.304  0.00  0.00    +0.000 NA
ATOM     25  C   UNL     1      47.398   6.267  18.785  0.00  0.00    +0.000 C 
ATOM     26  C   UNL     1      47.693   7.043  20.080  0.00  0.00    +0.000 C 
ATOM     27  O   UNL     1      48.046   6.147  21.139  0.00  0.00    +0.000 OA
ATOM     28  C   UNL     1      49.180   5.347  20.790  0.00  0.00    +0.000 C 
ATOM     29  C   UNL     1      49.005   4.620  19.439  0.00  0.00    +0.000 C 
ENDBRANCH  23  24
ENDBRANCH  20  23
ENDBRANCH  16  17
ENDBRANCH   3  16
TORSDOF 5
ENDMDL
MODEL 8
REMARK VINA RESULT:    -6.357      4.192      9.707
REMARK INTER + INTRA:          -8.496
REMARK INTER:                  -7.503
REMARK INTRA:                  -0.993
REMARK UNBOUND:                -0.280
REMARK  Name = 
REMARK  5 active torsions:
REMARK  status: ('A' for Active; 'I' for Inactive)
REMARK    1  A    between atoms: C_2  and  C_18
REMARK    2  A    between atoms: N_3  and  C_4
REMARK    3  A    between atoms: C_4  and  C_5
REMARK    4  A    between atoms: C_8  and  C_9
REMARK    5  A    between atoms: C_9  and  N_10
REMARK                            x       y       z     vdW  Elec       q    Type
REMARK                         _______ _______ _______ _____ _____    ______ ____
ROOT
ATOM      1  O   UNL     1      47.512   3.262  13.641  0.00  0.00    +0.000 OA
ATOM      2  C   UNL     1      46.771   4.141  14.070  0.00  0.00    +0.000 C 
ATOM      3  N   UNL     1      46.634   4.401  15.406  0.00  0.00    +0.000 N 
ATOM      4  H   UNL     1      46.066   5.178  15.719  0.00  0.00    +0.000 HD
ENDROOT
BRANCH   2   5
ATOM      5  C   UNL     1      45.940   4.956  13.173  0.00  0.00    +0.000 A 
ATOM      6  C   UNL     1      44.938   4.369  12.412  0.00  0.00    +0.000 A 
ATOM      7  S   UNL     1      44.059   5.489  11.469  0.00  0.00    +0.000 S 
ATOM      8  C   UNL     1      45.022   6.785  12.003  0.00  0.00    +0.000 A 
ATOM      9  N   UNL     1      44.805   8.053  11.560  0.00  0.00    +0.000 NA
ATOM     10  C   UNL     1      45.636   8.932  12.013  0.00  0.00    +0.000 A 
ATOM     11  N   UNL     1      46.668   8.650  12.875  0.00  0.00    +0.000 N 
ATOM     12  C   UNL     1      46.916   7.389  13.366  0.00  0.00    +0.000 A 
ATOM     13  O   UNL     1      47.832   7.185  14.155  0.00  0.00    +0.000 OA
ATOM     14  C   UNL     1      46.000   6.370  12.889  0.00  0.00    +0.000 A 
ATOM     15  H   UNL     1      47.290   9.380  13.194  0.00  0.00    +0.000 HD
ENDBRANCH   2   5
BRANCH   3  16
ATOM     16  C   UNL     1      47.439   3.741  16.419  0.00  0.00    +0.000 C 
BRANCH  16  17
ATOM     17  C   UNL     1      47.813   4.696  17.536  0.00  0.00    +0.000 A 
ATOM     18  C   UNL     1      49.087   5.258  17.581  0.00  0.00    +0.000 A 
ATOM     19  C   UNL     1      49.359   6.261  18.516  0.00  0.00    +0.000 A 
ATOM     20  C   UNL     1      48.349   6.718  19.368  0.00  0.00    +0.000 A 
ATOM     21  C   UNL     1      47.131   6.052  19.298  0.00  0.00    +0.000 A 
ATOM     22  N   UNL     1      46.838   5.069  18.408  0.00  0.00    +0.000 NA
BRANCH  20  23
ATOM     23  C   UNL     1      48.531   7.961  20.215  0.00  0.00    +0.000 C 
BRANCH  23  24
ATOM     24  N   UNL     1      47.629   9.078  19.903  0.00  0.00    +0.000 NA
ATOM     25  C   UNL     1      47.746   9.550  18.506  0.00  0.00    +0.000 C 
ATOM     26  C   UNL     1      49.042  10.328  18.220  0.00  0.00    +0.000 C 
ATOM     27  O   UNL     1      49.137  11.481  19.062  0.00  0.00    +0.000 OA
ATOM     28  C   UNL     1      49.088  11.124  20.446  0.00  0.00    +0.000 C 
ATOM     29  C   UNL     1      47.868  10.243  20.792  0.00  0.00    +0.000 C 
ENDBRANCH  23  24
ENDBRANCH  20  23
ENDBRANCH  16  17
ENDBRANCH   3  16
TORSDOF 5
ENDMDL
MODEL 9
REMARK VINA RESULT:    -6.356      3.443      5.052
REMARK INTER + INTRA:          -8.494
REMARK INTER:                  -7.698
REMARK INTRA:                  -0.796
REMARK UNBOUND:                -0.280
REMARK  Name = 
REMARK  5 active torsions:
REMARK  status: ('A' for Active; 'I' for Inactive)
REMARK    1  A    between atoms: C_2  and  C_18
REMARK    2  A    between atoms: N_3  and  C_4
REMARK    3  A    between atoms: C_4  and  C_5
REMARK    4  A    between atoms: C_8  and  C_9
REMARK    5  A    between atoms: C_9  and  N_10
REMARK                            x       y       z     vdW  Elec       q    Type
REMARK                         _______ _______ _______ _____ _____    ______ ____
ROOT
ATOM      1  O   UNL     1      48.942  10.817  16.620  0.00  0.00    +0.000 OA
ATOM      2  C   UNL     1      48.219   9.860  16.879  0.00  0.00    +0.000 C 
ATOM      3  N   UNL     1      47.631   9.097  15.907  0.00  0.00    +0.000 N 
ATOM      4  H   UNL     1      47.097   8.275  16.158  0.00  0.00    +0.000 HD
ENDROOT
BRANCH   2   5
ATOM      5  C   UNL     1      47.900   9.486  18.264  0.00  0.00    +0.000 A 
ATOM      6  C   UNL     1      47.542  10.455  19.191  0.00  0.00    +0.000 A 
ATOM      7  S   UNL     1      47.168   9.817  20.729  0.00  0.00    +0.000 S 
ATOM      8  C   UNL     1      47.524   8.233  20.224  0.00  0.00    +0.000 A 
ATOM      9  N   UNL     1      47.419   7.179  21.080  0.00  0.00    +0.000 NA
ATOM     10  C   UNL     1      47.761   6.040  20.577  0.00  0.00    +0.000 A 
ATOM     11  N   UNL     1      48.200   5.863  19.287  0.00  0.00    +0.000 N 
ATOM     12  C   UNL     1      48.305   6.891  18.380  0.00  0.00    +0.000 A 
ATOM     13  O   UNL     1      48.676   6.687  17.229  0.00  0.00    +0.000 OA
ATOM     14  C   UNL     1      47.922   8.191  18.900  0.00  0.00    +0.000 A 
ATOM     15  H   UNL     1      48.458   4.946  18.949  0.00  0.00    +0.000 HD
ENDBRANCH   2   5
BRANCH   3  16
ATOM     16  C   UNL     1      47.905   9.283  14.493  0.00  0.00    +0.000 C 
BRANCH  16  17
ATOM     17  C   UNL     1      47.176   8.255  13.649  0.00  0.00    +0.000 A 
ATOM     18  C   UNL     1      46.253   8.664  12.688  0.00  0.00    +0.000 A 
ATOM     19  C   UNL     1      45.719   7.719  11.808  0.00  0.00    +0.000 A 
ATOM     20  C   UNL     1      46.138   6.386  11.871  0.00  0.00    +0.000 A 
ATOM     21  C   UNL     1      47.009   6.059  12.904  0.00  0.00    +0.000 A 
ATOM     22  N   UNL     1      47.539   6.951  13.780  0.00  0.00    +0.000 NA
BRANCH  20  23
ATOM     23  C   UNL     1      45.776   5.392  10.787  0.00  0.00    +0.000 C 
BRANCH  23  24
ATOM     24  N   UNL     1      44.340   5.248  10.512  0.00  0.00    +0.000 NA
ATOM     25  C   UNL     1      43.554   4.859  11.702  0.00  0.00    +0.000 C 
ATOM     26  C   UNL     1      43.763   3.397  12.134  0.00  0.00    +0.000 C 
ATOM     27  O   UNL     1      43.400   2.500  11.079  0.00  0.00    +0.000 OA
ATOM     28  C   UNL     1      44.150   2.762   9.889  0.00  0.00    +0.000 C 
ATOM     29  C   UNL     1      44.080   4.241   9.453  0.00  0.00    +0.000 C 
ENDBRANCH  23  24
ENDBRANCH  20  23
ENDBRANCH  16  17
ENDBRANCH   3  16
TORSDOF 5
ENDMDL
