MODEL 1
REMARK VINA RESULT:    -8.120      0.000      0.000
REMARK INTER + INTRA:         -12.646
REMARK INTER:                 -11.918
REMARK INTRA:                  -0.728
REMARK UNBOUND:                -0.728
REMARK  Name = 
REMARK  10 active torsions:
REMARK  status: ('A' for Active; 'I' for Inactive)
REMARK    1  A    between atoms: C_1  and  C_2
REMARK    2  A    between atoms: C_2  and  N_3
REMARK    3  A    between atoms: C_2  and  C_25
REMARK    4  A    between atoms: N_3  and  C_4
REMARK    5  A    between atoms: C_4  and  C_5
REMARK    6  A    between atoms: C_8  and  C_9
REMARK    7  A    between atoms: C_9  and  N_10
REMARK    8  A    between atoms: N_10  and  C_11
REMARK    9  A    between atoms: C_11  and  C_12
REMARK   10  A    between atoms: C_11  and  C_13
REMARK                            x       y       z     vdW  Elec       q    Type
REMARK                         _______ _______ _______ _____ _____    ______ ____
ROOT
ATOM      1  C   UNL     1      45.239   4.177  12.202  0.00  0.00    +0.000 A 
ATOM      2  C   UNL     1      45.435   5.557  12.213  0.00  0.00    +0.000 A 
ATOM      3  C   UNL     1      46.346   6.104  13.114  0.00  0.00    +0.000 A 
ATOM      4  C   UNL     1      47.028   5.270  14.003  0.00  0.00    +0.000 A 
ATOM      5  C   UNL     1      46.766   3.907  13.920  0.00  0.00    +0.000 A 
ATOM      6  N   UNL     1      45.904   3.346  13.042  0.00  0.00    +0.000 NA
ENDROOT
BRANCH   1   7
ATOM      7  C   UNL     1      44.277   3.553  11.201  0.00  0.00    +0.000 C 
BRANCH   7   8
ATOM      8  N   UNL     1      44.894   2.492  10.394  0.00  0.00    +0.000 NA
ATOM      9  H   UNL     1      44.451   1.605  10.638  0.00  0.00    +0.000 HD
BRANCH   8  11
ATOM     10  C   UNL     1      44.492   4.200   8.702  0.00  0.00    +0.000 C 
ATOM     11  C   UNL     1      44.712   2.706   8.953  0.00  0.00    +0.000 C 
BRANCH  11  12
ATOM     12  C   UNL     1      45.905   2.222   8.174  0.00  0.00    +0.000 A 
ATOM     13  N   UNL     1      46.352   0.983   8.097  0.00  0.00    +0.000 NA
ATOM     14  C   UNL     1      47.389   1.018   7.201  0.00  0.00    +0.000 A 
ATOM     15  C   UNL     1      47.567   2.288   6.715  0.00  0.00    +0.000 A 
ATOM     16  N   UNL     1      46.629   3.051   7.351  0.00  0.00    +0.000 N 
ATOM     17  H   UNL     1      46.462   4.039   7.216  0.00  0.00    +0.000 HD
ENDBRANCH  11  12
ENDBRANCH   8  11
ENDBRANCH   7   8
ENDBRANCH   1   7
BRANCH   4  18
ATOM     18  C   UNL     1      48.047   5.810  14.972  0.00  0.00    +0.000 C 
BRANCH  18  19
ATOM     19  N   UNL     1      48.660   4.739  15.761  0.00  0.00    +0.000 NA
ATOM     20  H   UNL     1      49.662   4.740  15.567  0.00  0.00    +0.000 HD
BRANCH  19  21
ATOM     21  C   UNL     1      48.477   4.910  17.209  0.00  0.00    +0.000 C 
ATOM     22  C   UNL     1      47.341   4.040  17.770  0.00  0.00    +0.000 C 
BRANCH  21  23
ATOM     23  C   UNL     1      49.790   4.530  17.871  0.00  0.00    +0.000 A 
ATOM     24  C   UNL     1      50.478   5.358  18.748  0.00  0.00    +0.000 A 
ATOM     25  S   UNL     1      51.977   4.722  19.250  0.00  0.00    +0.000 S 
ATOM     26  C   UNL     1      51.755   3.311  18.324  0.00  0.00    +0.000 A 
ATOM     27  N   UNL     1      52.717   2.351  18.274  0.00  0.00    +0.000 NA
ATOM     28  C   UNL     1      52.420   1.345  17.520  0.00  0.00    +0.000 A 
ATOM     29  N   UNL     1      51.243   1.202  16.830  0.00  0.00    +0.000 N 
ATOM     30  C   UNL     1      50.224   2.130  16.879  0.00  0.00    +0.000 A 
ATOM     31  O   UNL     1      49.157   1.938  16.306  0.00  0.00    +0.000 OA
ATOM     32  C   UNL     1      50.537   3.309  17.669  0.00  0.00    +0.000 A 
ATOM     33  H   UNL     1      51.063   0.373  16.284  0.00  0.00    +0.000 HD
ENDBRANCH  21  23
ENDBRANCH  19  21
ENDBRANCH  18  19
ENDBRANCH   4  18
TORSDOF 8
ENDMDL
MODEL 2
REMARK VINA RESULT:    -7.646      2.166      2.758
REMARK INTER + INTRA:         -11.950
REMARK INTER:                 -10.958
REMARK INTRA:                  -0.992
REMARK UNBOUND:                -0.728
REMARK  Name = 
REMARK  10 active torsions:
REMARK  status: ('A' for Active; 'I' for Inactive)
REMARK    1  A    between atoms: C_1  and  C_2
REMARK    2  A    between atoms: C_2  and  N_3
REMARK    3  A    between atoms: C_2  and  C_25
REMARK    4  A    between atoms: N_3  and  C_4
REMARK    5  A    between atoms: C_4  and  C_5
REMARK    6  A    between atoms: C_8  and  C_9
REMARK    7  A    between atoms: C_9  and  N_10
REMARK    8  A    between atoms: N_10  and  C_11
REMARK    9  A    between atoms: C_11  and  C_12
REMARK   10  A    between atoms: C_11  and  C_13
REMARK                            x       y       z     vdW  Elec       q    Type
REMARK                         _______ _______ _______ _____ _____    ______ ____
ROOT
ATOM      1  C   UNL     1      45.320   4.474  11.885  0.00  0.00    +0.000 A 
ATOM      2  C   UNL     1      45.723   5.734  11.447  0.00  0.00    +0.000 A 
ATOM      3  C   UNL     1      46.669   6.439  12.189  0.00  0.00    +0.000 A 
ATOM      4  C   UNL     1      47.180   5.885  13.364  0.00  0.00    +0.000 A 
ATOM      5  C   UNL     1      46.719   4.623  13.723  0.00  0.00    +0.000 A 
ATOM      6  N   UNL     1      45.818   3.908  13.012  0.00  0.00    +0.000 NA
ENDROOT
BRANCH   1   7
ATOM      7  C   UNL     1      44.316   3.670  11.072  0.00  0.00    +0.000 C 
BRANCH   7   8
ATOM      8  N   UNL     1      44.909   2.490  10.430  0.00  0.00    +0.000 NA
ATOM      9  H   UNL     1      44.465   1.656  10.820  0.00  0.00    +0.000 HD
BRANCH   8  11
ATOM     10  C   UNL     1      44.301   3.883   8.525  0.00  0.00    +0.000 C 
ATOM     11  C   UNL     1      44.696   2.476   8.977  0.00  0.00    +0.000 C 
BRANCH  11  12
ATOM     12  C   UNL     1      45.935   2.028   8.249  0.00  0.00    +0.000 A 
ATOM     13  N   UNL     1      46.354   0.788   8.084  0.00  0.00    +0.000 NA
ATOM     14  C   UNL     1      47.459   0.873   7.279  0.00  0.00    +0.000 A 
ATOM     15  C   UNL     1      47.711   2.178   6.936  0.00  0.00    +0.000 A 
ATOM     16  N   UNL     1      46.744   2.907   7.571  0.00  0.00    +0.000 N 
ATOM     17  H   UNL     1      46.616   3.909   7.522  0.00  0.00    +0.000 HD
ENDBRANCH  11  12
ENDBRANCH   8  11
ENDBRANCH   7   8
ENDBRANCH   1   7
BRANCH   4  18
ATOM     18  C   UNL     1      48.230   6.592  14.181  0.00  0.00    +0.000 C 
BRANCH  18  19
ATOM     19  N   UNL     1      48.326   6.036  15.532  0.00  0.00    +0.000 NA
ATOM     20  H   UNL     1      48.339   5.018  15.453  0.00  0.00    +0.000 HD
BRANCH  19  21
ATOM     21  C   UNL     1      49.541   6.453  16.245  0.00  0.00    +0.000 C 
ATOM     22  C   UNL     1      50.198   7.696  15.622  0.00  0.00    +0.000 C 
BRANCH  21  23
ATOM     23  C   UNL     1      49.136   6.751  17.678  0.00  0.00    +0.000 A 
ATOM     24  C   UNL     1      49.019   8.035  18.194  0.00  0.00    +0.000 A 
ATOM     25  S   UNL     1      48.659   8.069  19.860  0.00  0.00    +0.000 S 
ATOM     26  C   UNL     1      48.634   6.369  19.949  0.00  0.00    +0.000 A 
ATOM     27  N   UNL     1      48.423   5.735  21.134  0.00  0.00    +0.000 NA
ATOM     28  C   UNL     1      48.447   4.446  21.055  0.00  0.00    +0.000 A 
ATOM     29  N   UNL     1      48.641   3.734  19.898  0.00  0.00    +0.000 N 
ATOM     30  C   UNL     1      48.821   4.332  18.668  0.00  0.00    +0.000 A 
ATOM     31  O   UNL     1      48.921   3.665  17.643  0.00  0.00    +0.000 OA
ATOM     32  C   UNL     1      48.861   5.783  18.716  0.00  0.00    +0.000 A 
ATOM     33  H   UNL     1      48.615   2.726  19.903  0.00  0.00    +0.000 HD
ENDBRANCH  21  23
ENDBRANCH  19  21
ENDBRANCH  18  19
ENDBRANCH   4  18
TORSDOF 8
ENDMDL
MODEL 3
REMARK VINA RESULT:    -7.359      1.783      3.021
REMARK INTER + INTRA:         -11.529
REMARK INTER:                 -10.390
REMARK INTRA:                  -1.139
REMARK UNBOUND:                -0.728
REMARK  Name = 
REMARK  10 active torsions:
REMARK  status: ('A' for Active; 'I' for Inactive)
REMARK    1  A    between atoms: C_1  and  C_2
REMARK    2  A    between atoms: C_2  and  N_3
REMARK    3  A    between atoms: C_2  and  C_25
REMARK    4  A    between atoms: N_3  and  C_4
REMARK    5  A    between atoms: C_4  and  C_5
REMARK    6  A    between atoms: C_8  and  C_9
REMARK    7  A    between atoms: C_9  and  N_10
REMARK    8  A    between atoms: N_10  and  C_11
REMARK    9  A    between atoms: C_11  and  C_12
REMARK   10  A    between atoms: C_11  and  C_13
REMARK                            x       y       z     vdW  Elec       q    Type
REMARK                         _______ _______ _______ _____ _____    ______ ____
ROOT
ATOM      1  C   UNL     1      46.830   4.810  14.174  0.00  0.00    +0.000 A 
ATOM      2  C   UNL     1      47.669   5.922  14.231  0.00  0.00    +0.000 A 
ATOM      3  C   UNL     1      48.396   6.163  15.395  0.00  0.00    +0.000 A 
ATOM      4  C   UNL     1      48.257   5.306  16.489  0.00  0.00    +0.000 A 
ATOM      5  C   UNL     1      47.395   4.224  16.341  0.00  0.00    +0.000 A 
ATOM      6  N   UNL     1      46.694   3.954  15.217  0.00  0.00    +0.000 NA
ENDROOT
BRANCH   1   7
ATOM      7  C   UNL     1      46.055   4.505  12.901  0.00  0.00    +0.000 C 
BRANCH   7   8
ATOM      8  N   UNL     1      45.262   3.273  12.990  0.00  0.00    +0.000 NA
ATOM      9  H   UNL     1      45.058   3.094  13.975  0.00  0.00    +0.000 HD
BRANCH   8  11
ATOM     10  C   UNL     1      43.263   4.644  12.738  0.00  0.00    +0.000 C 
ATOM     11  C   UNL     1      43.983   3.375  12.276  0.00  0.00    +0.000 C 
BRANCH  11  12
ATOM     12  C   UNL     1      44.192   3.414  10.786  0.00  0.00    +0.000 A 
ATOM     13  N   UNL     1      44.065   4.461   9.994  0.00  0.00    +0.000 NA
ATOM     14  C   UNL     1      44.451   4.034   8.750  0.00  0.00    +0.000 A 
ATOM     15  C   UNL     1      44.833   2.716   8.786  0.00  0.00    +0.000 A 
ATOM     16  N   UNL     1      44.650   2.325  10.083  0.00  0.00    +0.000 N 
ATOM     17  H   UNL     1      44.851   1.414  10.472  0.00  0.00    +0.000 HD
ENDBRANCH  11  12
ENDBRANCH   8  11
ENDBRANCH   7   8
ENDBRANCH   1   7
BRANCH   4  18
ATOM     18  C   UNL     1      49.047   5.505  17.755  0.00  0.00    +0.000 C 
BRANCH  18  19
ATOM     19  N   UNL     1      50.018   4.429  17.959  0.00  0.00    +0.000 NA
ATOM     20  H   UNL     1      49.639   3.578  17.539  0.00  0.00    +0.000 HD
BRANCH  19  21
ATOM     21  C   UNL     1      51.322   4.700  17.337  0.00  0.00    +0.000 C 
ATOM     22  C   UNL     1      51.686   6.194  17.349  0.00  0.00    +0.000 C 
BRANCH  21  23
ATOM     23  C   UNL     1      52.360   3.912  18.118  0.00  0.00    +0.000 A 
ATOM     24  C   UNL     1      53.316   4.499  18.936  0.00  0.00    +0.000 A 
ATOM     25  S   UNL     1      54.420   3.384  19.600  0.00  0.00    +0.000 S 
ATOM     26  C   UNL     1      53.653   2.075  18.828  0.00  0.00    +0.000 A 
ATOM     27  N   UNL     1      54.140   0.811  18.949  0.00  0.00    +0.000 NA
ATOM     28  C   UNL     1      53.467  -0.079  18.297  0.00  0.00    +0.000 A 
ATOM     29  N   UNL     1      52.341   0.177  17.556  0.00  0.00    +0.000 N 
ATOM     30  C   UNL     1      51.788   1.434  17.436  0.00  0.00    +0.000 A 
ATOM     31  O   UNL     1      50.741   1.616  16.823  0.00  0.00    +0.000 OA
ATOM     32  C   UNL     1      52.546   2.479  18.104  0.00  0.00    +0.000 A 
ATOM     33  H   UNL     1      51.845  -0.573  17.098  0.00  0.00    +0.000 HD
ENDBRANCH  21  23
ENDBRANCH  19  21
ENDBRANCH  18  19
ENDBRANCH   4  18
TORSDOF 8
ENDMDL
MODEL 4
REMARK VINA RESULT:    -7.252      2.372      3.135
REMARK INTER + INTRA:         -11.372
REMARK INTER:                 -10.058
REMARK INTRA:                  -1.314
REMARK UNBOUND:                -0.728
REMARK  Name = 
REMARK  10 active torsions:
REMARK  status: ('A' for Active; 'I' for Inactive)
REMARK    1  A    between atoms: C_1  and  C_2
REMARK    2  A    between atoms: C_2  and  N_3
REMARK    3  A    between atoms: C_2  and  C_25
REMARK    4  A    between atoms: N_3  and  C_4
REMARK    5  A    between atoms: C_4  and  C_5
REMARK    6  A    between atoms: C_8  and  C_9
REMARK    7  A    between atoms: C_9  and  N_10
REMARK    8  A    between atoms: N_10  and  C_11
REMARK    9  A    between atoms: C_11  and  C_12
REMARK   10  A    between atoms: C_11  and  C_13
REMARK                            x       y       z     vdW  Elec       q    Type
REMARK                         _______ _______ _______ _____ _____    ______ ____
ROOT
ATOM      1  C   UNL     1      45.827   4.819  12.779  0.00  0.00    +0.000 A 
ATOM      2  C   UNL     1      46.432   4.593  14.014  0.00  0.00    +0.000 A 
ATOM      3  C   UNL     1      47.493   5.405  14.407  0.00  0.00    +0.000 A 
ATOM      4  C   UNL     1      47.947   6.414  13.555  0.00  0.00    +0.000 A 
ATOM      5  C   UNL     1      47.283   6.565  12.342  0.00  0.00    +0.000 A 
ATOM      6  N   UNL     1      46.238   5.805  11.944  0.00  0.00    +0.000 NA
ENDROOT
BRANCH   1   7
ATOM      7  C   UNL     1      44.642   3.969  12.344  0.00  0.00    +0.000 C 
BRANCH   7   8
ATOM      8  N   UNL     1      45.025   2.852  11.471  0.00  0.00    +0.000 NA
ATOM      9  H   UNL     1      44.742   1.981  11.923  0.00  0.00    +0.000 HD
BRANCH   8  11
ATOM     10  C   UNL     1      43.719   4.291  10.000  0.00  0.00    +0.000 C 
ATOM     11  C   UNL     1      44.366   2.914  10.160  0.00  0.00    +0.000 C 
BRANCH  11  12
ATOM     12  C   UNL     1      45.347   2.672   9.045  0.00  0.00    +0.000 A 
ATOM     13  N   UNL     1      45.876   1.517   8.690  0.00  0.00    +0.000 NA
ATOM     14  C   UNL     1      46.625   1.779   7.573  0.00  0.00    +0.000 A 
ATOM     15  C   UNL     1      46.542   3.106   7.232  0.00  0.00    +0.000 A 
ATOM     16  N   UNL     1      45.739   3.670   8.184  0.00  0.00    +0.000 N 
ATOM     17  H   UNL     1      45.446   4.636   8.230  0.00  0.00    +0.000 HD
ENDBRANCH  11  12
ENDBRANCH   8  11
ENDBRANCH   7   8
ENDBRANCH   1   7
BRANCH   4  18
ATOM     18  C   UNL     1      49.067   7.340  13.950  0.00  0.00    +0.000 C 
BRANCH  18  19
ATOM     19  N   UNL     1      49.988   6.700  14.892  0.00  0.00    +0.000 NA
ATOM     20  H   UNL     1      50.822   6.418  14.374  0.00  0.00    +0.000 HD
BRANCH  19  21
ATOM     21  C   UNL     1      50.408   7.588  15.985  0.00  0.00    +0.000 C 
ATOM     22  C   UNL     1      50.426   9.068  15.572  0.00  0.00    +0.000 C 
BRANCH  21  23
ATOM     23  C   UNL     1      49.426   7.384  17.126  0.00  0.00    +0.000 A 
ATOM     24  C   UNL     1      48.547   8.363  17.568  0.00  0.00    +0.000 A 
ATOM     25  S   UNL     1      47.641   7.898  18.935  0.00  0.00    +0.000 S 
ATOM     26  C   UNL     1      48.382   6.366  18.976  0.00  0.00    +0.000 A 
ATOM     27  N   UNL     1      48.081   5.471  19.956  0.00  0.00    +0.000 NA
ATOM     28  C   UNL     1      48.730   4.358  19.872  0.00  0.00    +0.000 A 
ATOM     29  N   UNL     1      49.635   4.049  18.888  0.00  0.00    +0.000 N 
ATOM     30  C   UNL     1      49.944   4.907  17.854  0.00  0.00    +0.000 A 
ATOM     31  O   UNL     1      50.704   4.572  16.951  0.00  0.00    +0.000 OA
ATOM     32  C   UNL     1      49.282   6.198  17.939  0.00  0.00    +0.000 A 
ATOM     33  H   UNL     1      50.082   3.145  18.864  0.00  0.00    +0.000 HD
ENDBRANCH  21  23
ENDBRANCH  19  21
ENDBRANCH  18  19
ENDBRANCH   4  18
TORSDOF 8
ENDMDL
MODEL 5
REMARK VINA RESULT:    -6.945      1.643      2.230
REMARK INTER + INTRA:         -10.921
REMARK INTER:                 -10.198
REMARK INTRA:                  -0.722
REMARK UNBOUND:                -0.728
REMARK  Name = 
REMARK  10 active torsions:
REMARK  status: ('A' for Active; 'I' for Inactive)
REMARK    1  A    between atoms: C_1  and  C_2
REMARK    2  A    between atoms: C_2  and  N_3
REMARK    3  A    between atoms: C_2  and  C_25
REMARK    4  A    between atoms: N_3  and  C_4
REMARK    5  A    between atoms: C_4  and  C_5
REMARK    6  A    between atoms: C_8  and  C_9
REMARK    7  A    between atoms: C_9  and  N_10
REMARK    8  A    between atoms: N_10  and  C_11
REMARK    9  A    between atoms: C_11  and  C_12
REMARK   10  A    between atoms: C_11  and  C_13
REMARK                            x       y       z     vdW  Elec       q    Type
REMARK                         _______ _______ _______ _____ _____    ______ ____
ROOT
ATOM      1  C   UNL     1      45.086   4.320  12.006  0.00  0.00    +0.000 A 
ATOM      2  C   UNL     1      45.804   3.228  12.488  0.00  0.00    +0.000 A 
ATOM      3  C   UNL     1      46.650   3.401  13.582  0.00  0.00    +0.000 A 
ATOM      4  C   UNL     1      46.781   4.665  14.162  0.00  0.00    +0.000 A 
ATOM      5  C   UNL     1      46.026   5.696  13.613  0.00  0.00    +0.000 A 
ATOM      6  N   UNL     1      45.183   5.552  12.566  0.00  0.00    +0.000 NA
ENDROOT
BRANCH   1   7
ATOM      7  C   UNL     1      44.128   4.147  10.837  0.00  0.00    +0.000 C 
BRANCH   7   8
ATOM      8  N   UNL     1      44.404   2.945  10.039  0.00  0.00    +0.000 NA
ATOM      9  H   UNL     1      43.539   2.408   9.959  0.00  0.00    +0.000 HD
BRANCH   8  11
ATOM     10  C   UNL     1      45.490   4.662   8.693  0.00  0.00    +0.000 C 
ATOM     11  C   UNL     1      44.863   3.267   8.681  0.00  0.00    +0.000 C 
BRANCH  11  12
ATOM     12  C   UNL     1      45.863   2.255   8.190  0.00  0.00    +0.000 A 
ATOM     13  N   UNL     1      45.834   0.951   8.387  0.00  0.00    +0.000 NA
ATOM     14  C   UNL     1      46.888   0.444   7.672  0.00  0.00    +0.000 A 
ATOM     15  C   UNL     1      47.558   1.447   7.019  0.00  0.00    +0.000 A 
ATOM     16  N   UNL     1      46.908   2.598   7.367  0.00  0.00    +0.000 N 
ATOM     17  H   UNL     1      47.125   3.532   7.048  0.00  0.00    +0.000 HD
ENDBRANCH  11  12
ENDBRANCH   8  11
ENDBRANCH   7   8
ENDBRANCH   1   7
BRANCH   4  18
ATOM     18  C   UNL     1      47.655   4.895  15.367  0.00  0.00    +0.000 C 
BRANCH  18  19
ATOM     19  N   UNL     1      48.241   3.645  15.854  0.00  0.00    +0.000 NA
ATOM     20  H   UNL     1      49.104   3.478  15.334  0.00  0.00    +0.000 HD
BRANCH  19  21
ATOM     21  C   UNL     1      48.572   3.680  17.286  0.00  0.00    +0.000 C 
ATOM     22  C   UNL     1      47.655   2.780  18.129  0.00  0.00    +0.000 C 
BRANCH  21  23
ATOM     23  C   UNL     1      50.012   3.216  17.420  0.00  0.00    +0.000 A 
ATOM     24  C   UNL     1      50.413   1.896  17.265  0.00  0.00    +0.000 A 
ATOM     25  S   UNL     1      52.069   1.645  17.581  0.00  0.00    +0.000 S 
ATOM     26  C   UNL     1      52.313   3.295  17.925  0.00  0.00    +0.000 A 
ATOM     27  N   UNL     1      53.531   3.753  18.318  0.00  0.00    +0.000 NA
ATOM     28  C   UNL     1      53.566   5.021  18.560  0.00  0.00    +0.000 A 
ATOM     29  N   UNL     1      52.501   5.875  18.423  0.00  0.00    +0.000 N 
ATOM     30  C   UNL     1      51.258   5.464  17.991  0.00  0.00    +0.000 A 
ATOM     31  O   UNL     1      50.346   6.266  17.812  0.00  0.00    +0.000 OA
ATOM     32  C   UNL     1      51.154   4.033  17.763  0.00  0.00    +0.000 A 
ATOM     33  H   UNL     1      52.607   6.863  18.598  0.00  0.00    +0.000 HD
ENDBRANCH  21  23
ENDBRANCH  19  21
ENDBRANCH  18  19
ENDBRANCH   4  18
TORSDOF 8
ENDMDL
MODEL 6
REMARK VINA RESULT:    -6.715      3.475      8.797
REMARK INTER + INTRA:         -10.583
REMARK INTER:                  -9.346
REMARK INTRA:                  -1.237
REMARK UNBOUND:                -0.728
REMARK  Name = 
REMARK  10 active torsions:
REMARK  status: ('A' for Active; 'I' for Inactive)
REMARK    1  A    between atoms: C_1  and  C_2
REMARK    2  A    between atoms: C_2  and  N_3
REMARK    3  A    between atoms: C_2  and  C_25
REMARK    4  A    between atoms: N_3  and  C_4
REMARK    5  A    between atoms: C_4  and  C_5
REMARK    6  A    between atoms: C_8  and  C_9
REMARK    7  A    between atoms: C_9  and  N_10
REMARK    8  A    between atoms: N_10  and  C_11
REMARK    9  A    between atoms: C_11  and  C_12
REMARK   10  A    between atoms: C_11  and  C_13
REMARK                            x       y       z     vdW  Elec       q    Type
REMARK                         _______ _______ _______ _____ _____    ______ ____
ROOT
ATOM      1  C   UNL     1      49.094   8.012  15.832  0.00  0.00    +0.000 A 
ATOM      2  C   UNL     1      48.232   8.976  15.313  0.00  0.00    +0.000 A 
ATOM      3  C   UNL     1      47.763   8.834  14.009  0.00  0.00    +0.000 A 
ATOM      4  C   UNL     1      48.178   7.745  13.238  0.00  0.00    +0.000 A 
ATOM      5  C   UNL     1      49.040   6.835  13.840  0.00  0.00    +0.000 A 
ATOM      6  N   UNL     1      49.494   6.936  15.109  0.00  0.00    +0.000 NA
ENDROOT
BRANCH   1   7
ATOM      7  C   UNL     1      49.589   8.125  17.267  0.00  0.00    +0.000 C 
BRANCH   7   8
ATOM      8  N   UNL     1      50.159   6.874  17.780  0.00  0.00    +0.000 NA
ATOM      9  H   UNL     1      50.946   7.106  18.389  0.00  0.00    +0.000 HD
BRANCH   8  11
ATOM     10  C   UNL     1      48.033   7.017  18.964  0.00  0.00    +0.000 C 
ATOM     11  C   UNL     1      49.192   6.099  18.569  0.00  0.00    +0.000 C 
BRANCH  11  12
ATOM     12  C   UNL     1      48.675   4.919  17.792  0.00  0.00    +0.000 A 
ATOM     13  N   UNL     1      49.146   3.687  17.813  0.00  0.00    +0.000 NA
ATOM     14  C   UNL     1      48.297   2.952  17.028  0.00  0.00    +0.000 A 
ATOM     15  C   UNL     1      47.287   3.739  16.534  0.00  0.00    +0.000 A 
ATOM     16  N   UNL     1      47.545   4.993  17.013  0.00  0.00    +0.000 N 
ATOM     17  H   UNL     1      46.987   5.822  16.861  0.00  0.00    +0.000 HD
ENDBRANCH  11  12
ENDBRANCH   8  11
ENDBRANCH   7   8
ENDBRANCH   1   7
BRANCH   4  18
ATOM     18  C   UNL     1      47.672   7.530  11.836  0.00  0.00    +0.000 C 
BRANCH  18  19
ATOM     19  N   UNL     1      46.914   6.282  11.724  0.00  0.00    +0.000 NA
ATOM     20  H   UNL     1      47.362   5.586  12.323  0.00  0.00    +0.000 HD
BRANCH  19  21
ATOM     21  C   UNL     1      45.513   6.415  12.149  0.00  0.00    +0.000 C 
ATOM     22  C   UNL     1      44.790   7.579  11.453  0.00  0.00    +0.000 C 
BRANCH  21  23
ATOM     23  C   UNL     1      44.821   5.105  11.812  0.00  0.00    +0.000 A 
ATOM     24  C   UNL     1      44.047   4.389  12.716  0.00  0.00    +0.000 A 
ATOM     25  S   UNL     1      43.485   2.902  12.103  0.00  0.00    +0.000 S 
ATOM     26  C   UNL     1      44.245   3.166  10.603  0.00  0.00    +0.000 A 
ATOM     27  N   UNL     1      44.192   2.229   9.618  0.00  0.00    +0.000 NA
ATOM     28  C   UNL     1      44.826   2.557   8.542  0.00  0.00    +0.000 A 
ATOM     29  N   UNL     1      45.489   3.743   8.353  0.00  0.00    +0.000 N 
ATOM     30  C   UNL     1      45.538   4.738   9.306  0.00  0.00    +0.000 A 
ATOM     31  O   UNL     1      46.079   5.816   9.077  0.00  0.00    +0.000 OA
ATOM     32  C   UNL     1      44.888   4.390  10.557  0.00  0.00    +0.000 A 
ATOM     33  H   UNL     1      45.936   3.948   7.472  0.00  0.00    +0.000 HD
ENDBRANCH  21  23
ENDBRANCH  19  21
ENDBRANCH  18  19
ENDBRANCH   4  18
TORSDOF 8
ENDMDL
MODEL 7
REMARK VINA RESULT:    -6.562      3.724      8.675
REMARK INTER + INTRA:         -10.359
REMARK INTER:                  -8.904
REMARK INTRA:                  -1.456
REMARK UNBOUND:                -0.728
REMARK  Name = 
REMARK  10 active torsions:
REMARK  status: ('A' for Active; 'I' for Inactive)
REMARK    1  A    between atoms: C_1  and  C_2
REMARK    2  A    between atoms: C_2  and  N_3
REMARK    3  A    between atoms: C_2  and  C_25
REMARK    4  A    between atoms: N_3  and  C_4
REMARK    5  A    between atoms: C_4  and  C_5
REMARK    6  A    between atoms: C_8  and  C_9
REMARK    7  A    between atoms: C_9  and  N_10
REMARK    8  A    between atoms: N_10  and  C_11
REMARK    9  A    between atoms: C_11  and  C_12
REMARK   10  A    between atoms: C_11  and  C_13
REMARK                            x       y       z     vdW  Elec       q    Type
REMARK                         _______ _______ _______ _____ _____    ______ ____
ROOT
ATOM      1  C   UNL     1      49.856   7.429  17.509  0.00  0.00    +0.000 A 
ATOM      2  C   UNL     1      50.178   6.869  16.274  0.00  0.00    +0.000 A 
ATOM      3  C   UNL     1      49.562   7.361  15.125  0.00  0.00    +0.000 A 
ATOM      4  C   UNL     1      48.620   8.387  15.229  0.00  0.00    +0.000 A 
ATOM      5  C   UNL     1      48.361   8.882  16.503  0.00  0.00    +0.000 A 
ATOM      6  N   UNL     1      48.959   8.439  17.632  0.00  0.00    +0.000 NA
ENDROOT
BRANCH   1   7
ATOM      7  C   UNL     1      50.543   6.934  18.773  0.00  0.00    +0.000 C 
BRANCH   7   8
ATOM      8  N   UNL     1      51.050   5.561  18.653  0.00  0.00    +0.000 NA
ATOM      9  H   UNL     1      51.967   5.517  19.100  0.00  0.00    +0.000 HD
BRANCH   8  11
ATOM     10  C   UNL     1      49.323   5.310  20.354  0.00  0.00    +0.000 C 
ATOM     11  C   UNL     1      50.178   4.582  19.316  0.00  0.00    +0.000 C 
BRANCH  11  12
ATOM     12  C   UNL     1      49.295   3.877  18.321  0.00  0.00    +0.000 A 
ATOM     13  N   UNL     1      49.676   3.258  17.220  0.00  0.00    +0.000 NA
ATOM     14  C   UNL     1      48.542   2.692  16.701  0.00  0.00    +0.000 A 
ATOM     15  C   UNL     1      47.458   2.954  17.501  0.00  0.00    +0.000 A 
ATOM     16  N   UNL     1      47.944   3.722  18.522  0.00  0.00    +0.000 N 
ATOM     17  H   UNL     1      47.420   4.081  19.308  0.00  0.00    +0.000 HD
ENDBRANCH  11  12
ENDBRANCH   8  11
ENDBRANCH   7   8
ENDBRANCH   1   7
BRANCH   4  18
ATOM     18  C   UNL     1      47.954   8.975  14.014  0.00  0.00    +0.000 C 
BRANCH  18  19
ATOM     19  N   UNL     1      46.679   8.314  13.726  0.00  0.00    +0.000 NA
ATOM     20  H   UNL     1      45.957   9.034  13.669  0.00  0.00    +0.000 HD
BRANCH  19  21
ATOM     21  C   UNL     1      46.685   7.575  12.455  0.00  0.00    +0.000 C 
ATOM     22  C   UNL     1      48.036   7.658  11.727  0.00  0.00    +0.000 C 
BRANCH  21  23
ATOM     23  C   UNL     1      46.366   6.126  12.783  0.00  0.00    +0.000 A 
ATOM     24  C   UNL     1      47.220   5.291  13.490  0.00  0.00    +0.000 A 
ATOM     25  S   UNL     1      46.656   3.688  13.614  0.00  0.00    +0.000 S 
ATOM     26  C   UNL     1      45.244   4.055  12.737  0.00  0.00    +0.000 A 
ATOM     27  N   UNL     1      44.333   3.088  12.444  0.00  0.00    +0.000 NA
ATOM     28  C   UNL     1      43.320   3.506  11.760  0.00  0.00    +0.000 A 
ATOM     29  N   UNL     1      43.124   4.805  11.362  0.00  0.00    +0.000 N 
ATOM     30  C   UNL     1      43.999   5.826  11.669  0.00  0.00    +0.000 A 
ATOM     31  O   UNL     1      43.758   6.988  11.358  0.00  0.00    +0.000 OA
ATOM     32  C   UNL     1      45.185   5.392  12.387  0.00  0.00    +0.000 A 
ATOM     33  H   UNL     1      42.292   5.069  10.858  0.00  0.00    +0.000 HD
ENDBRANCH  21  23
ENDBRANCH  19  21
ENDBRANCH  18  19
ENDBRANCH   4  18
TORSDOF 8
ENDMDL
MODEL 8
REMARK VINA RESULT:    -6.552      2.247      3.223
REMARK INTER + INTRA:         -10.344
REMARK INTER:                  -9.422
REMARK INTRA:                  -0.922
REMARK UNBOUND:                -0.728
REMARK  Name = 
REMARK  10 active torsions:
REMARK  status: ('A' for Active; 'I' for Inactive)
REMARK    1  A    between atoms: C_1  and  C_2
REMARK    2  A    between atoms: C_2  and  N_3
REMARK    3  A    between atoms: C_2  and  C_25
REMARK    4  A    between atoms: N_3  and  C_4
REMARK    5  A    between atoms: C_4  and  C_5
REMARK    6  A    between atoms: C_8  and  C_9
REMARK    7  A    between atoms: C_9  and  N_10
REMARK    8  A    between atoms: N_10  and  C_11
REMARK    9  A    between atoms: C_11  and  C_12
REMARK   10  A    between atoms: C_11  and  C_13
REMARK                            x       y       z     vdW  Elec       q    Type
REMARK                         _______ _______ _______ _____ _____    ______ ____
ROOT
ATOM      1  C   UNL     1      46.870   6.010  12.735  0.00  0.00    +0.000 A 
ATOM      2  C   UNL     1      46.578   4.899  13.522  0.00  0.00    +0.000 A 
ATOM      3  C   UNL     1      47.155   4.793  14.786  0.00  0.00    +0.000 A 
ATOM      4  C   UNL     1      48.031   5.785  15.233  0.00  0.00    +0.000 A 
ATOM      5  C   UNL     1      48.265   6.856  14.377  0.00  0.00    +0.000 A 
ATOM      6  N   UNL     1      47.702   6.995  13.156  0.00  0.00    +0.000 NA
ENDROOT
BRANCH   1   7
ATOM      7  C   UNL     1      46.222   6.167  11.367  0.00  0.00    +0.000 C 
BRANCH   7   8
ATOM      8  N   UNL     1      44.775   6.405  11.439  0.00  0.00    +0.000 NA
ATOM      9  H   UNL     1      44.489   6.900  10.592  0.00  0.00    +0.000 HD
BRANCH   8  11
ATOM     10  C   UNL     1      42.514   5.496  11.464  0.00  0.00    +0.000 C 
ATOM     11  C   UNL     1      44.005   5.156  11.513  0.00  0.00    +0.000 C 
BRANCH  11  12
ATOM     12  C   UNL     1      44.361   4.229  10.383  0.00  0.00    +0.000 A 
ATOM     13  N   UNL     1      44.873   3.017  10.482  0.00  0.00    +0.000 NA
ATOM     14  C   UNL     1      44.929   2.531   9.202  0.00  0.00    +0.000 A 
ATOM     15  C   UNL     1      44.431   3.450   8.312  0.00  0.00    +0.000 A 
ATOM     16  N   UNL     1      44.086   4.533   9.071  0.00  0.00    +0.000 N 
ATOM     17  H   UNL     1      43.666   5.391   8.740  0.00  0.00    +0.000 HD
ENDBRANCH  11  12
ENDBRANCH   8  11
ENDBRANCH   7   8
ENDBRANCH   1   7
BRANCH   4  18
ATOM     18  C   UNL     1      48.653   5.732  16.603  0.00  0.00    +0.000 C 
BRANCH  18  19
ATOM     19  N   UNL     1      49.787   4.807  16.645  0.00  0.00    +0.000 NA
ATOM     20  H   UNL     1      50.639   5.358  16.767  0.00  0.00    +0.000 HD
BRANCH  19  21
ATOM     21  C   UNL     1      49.708   3.843  17.751  0.00  0.00    +0.000 C 
ATOM     22  C   UNL     1      48.497   2.903  17.633  0.00  0.00    +0.000 C 
BRANCH  21  23
ATOM     23  C   UNL     1      50.992   3.032  17.727  0.00  0.00    +0.000 A 
ATOM     24  C   UNL     1      51.052   1.696  17.350  0.00  0.00    +0.000 A 
ATOM     25  S   UNL     1      52.601   1.008  17.525  0.00  0.00    +0.000 S 
ATOM     26  C   UNL     1      53.251   2.474  18.098  0.00  0.00    +0.000 A 
ATOM     27  N   UNL     1      54.553   2.556  18.483  0.00  0.00    +0.000 NA
ATOM     28  C   UNL     1      54.904   3.723  18.911  0.00  0.00    +0.000 A 
ATOM     29  N   UNL     1      54.080   4.818  18.970  0.00  0.00    +0.000 N 
ATOM     30  C   UNL     1      52.765   4.793  18.556  0.00  0.00    +0.000 A 
ATOM     31  O   UNL     1      52.075   5.808  18.555  0.00  0.00    +0.000 OA
ATOM     32  C   UNL     1      52.307   3.484  18.121  0.00  0.00    +0.000 A 
ATOM     33  H   UNL     1      54.430   5.710  19.285  0.00  0.00    +0.000 HD
ENDBRANCH  21  23
ENDBRANCH  19  21
ENDBRANCH  18  19
ENDBRANCH   4  18
TORSDOF 8
ENDMDL
MODEL 9
REMARK VINA RESULT:    -6.475      3.310      4.616
REMARK INTER + INTRA:         -10.231
REMARK INTER:                  -8.916
REMARK INTRA:                  -1.316
REMARK UNBOUND:                -0.728
REMARK  Name = 
REMARK  10 active torsions:
REMARK  status: ('A' for Active; 'I' for Inactive)
REMARK    1  A    between atoms: C_1  and  C_2
REMARK    2  A    between atoms: C_2  and  N_3
REMARK    3  A    between atoms: C_2  and  C_25
REMARK    4  A    between atoms: N_3  and  C_4
REMARK    5  A    between atoms: C_4  and  C_5
REMARK    6  A    between atoms: C_8  and  C_9
REMARK    7  A    between atoms: C_9  and  N_10
REMARK    8  A    between atoms: N_10  and  C_11
REMARK    9  A    between atoms: C_11  and  C_12
REMARK   10  A    between atoms: C_11  and  C_13
REMARK                            x       y       z     vdW  Elec       q    Type
REMARK                         _______ _______ _______ _____ _____    ______ ____
ROOT
ATOM      1  C   UNL     1      48.471   7.818  13.732  0.00  0.00    +0.000 A 
ATOM      2  C   UNL     1      47.949   8.922  14.404  0.00  0.00    +0.000 A 
ATOM      3  C   UNL     1      48.257   9.103  15.751  0.00  0.00    +0.000 A 
ATOM      4  C   UNL     1      49.061   8.169  16.410  0.00  0.00    +0.000 A 
ATOM      5  C   UNL     1      49.534   7.099  15.659  0.00  0.00    +0.000 A 
ATOM      6  N   UNL     1      49.269   6.910  14.347  0.00  0.00    +0.000 NA
ENDROOT
BRANCH   1   7
ATOM      7  C   UNL     1      48.179   7.619  12.252  0.00  0.00    +0.000 C 
BRANCH   7   8
ATOM      8  N   UNL     1      47.142   6.611  12.000  0.00  0.00    +0.000 NA
ATOM      9  H   UNL     1      47.447   5.727  12.412  0.00  0.00    +0.000 HD
BRANCH   8  11
ATOM     10  C   UNL     1      45.251   8.138  11.821  0.00  0.00    +0.000 C 
ATOM     11  C   UNL     1      45.853   6.970  12.604  0.00  0.00    +0.000 C 
BRANCH  11  12
ATOM     12  C   UNL     1      44.905   5.801  12.598  0.00  0.00    +0.000 A 
ATOM     13  N   UNL     1      45.201   4.540  12.348  0.00  0.00    +0.000 NA
ATOM     14  C   UNL     1      44.042   3.838  12.557  0.00  0.00    +0.000 A 
ATOM     15  C   UNL     1      43.031   4.677  12.953  0.00  0.00    +0.000 A 
ATOM     16  N   UNL     1      43.585   5.926  12.962  0.00  0.00    +0.000 N 
ATOM     17  H   UNL     1      43.126   6.787  13.226  0.00  0.00    +0.000 HD
ENDBRANCH  11  12
ENDBRANCH   8  11
ENDBRANCH   7   8
ENDBRANCH   1   7
BRANCH   4  18
ATOM     18  C   UNL     1      49.450   8.340  17.855  0.00  0.00    +0.000 C 
BRANCH  18  19
ATOM     19  N   UNL     1      50.095   7.137  18.384  0.00  0.00    +0.000 NA
ATOM     20  H   UNL     1      50.855   7.432  18.999  0.00  0.00    +0.000 HD
BRANCH  19  21
ATOM     21  C   UNL     1      49.183   6.287  19.164  0.00  0.00    +0.000 C 
ATOM     22  C   UNL     1      47.887   7.013  19.559  0.00  0.00    +0.000 C 
BRANCH  21  23
ATOM     23  C   UNL     1      48.854   5.080  18.302  0.00  0.00    +0.000 A 
ATOM     24  C   UNL     1      47.589   4.820  17.793  0.00  0.00    +0.000 A 
ATOM     25  S   UNL     1      47.483   3.340  16.955  0.00  0.00    +0.000 S 
ATOM     26  C   UNL     1      49.128   2.999  17.230  0.00  0.00    +0.000 A 
ATOM     27  N   UNL     1      49.680   1.833  16.802  0.00  0.00    +0.000 NA
ATOM     28  C   UNL     1      50.932   1.702  17.094  0.00  0.00    +0.000 A 
ATOM     29  N   UNL     1      51.685   2.639  17.755  0.00  0.00    +0.000 N 
ATOM     30  C   UNL     1      51.179   3.851  18.175  0.00  0.00    +0.000 A 
ATOM     31  O   UNL     1      51.898   4.696  18.700  0.00  0.00    +0.000 OA
ATOM     32  C   UNL     1      49.759   4.019  17.920  0.00  0.00    +0.000 A 
ATOM     33  H   UNL     1      52.668   2.486  17.921  0.00  0.00    +0.000 HD
ENDBRANCH  21  23
ENDBRANCH  19  21
ENDBRANCH  18  19
ENDBRANCH   4  18
TORSDOF 8
ENDMDL
