MODEL 1
REMARK VINA RESULT:    -8.528      0.000      0.000
REMARK INTER + INTRA:         -13.885
REMARK INTER:                 -12.516
REMARK INTRA:                  -1.369
REMARK UNBOUND:                -1.369
REMARK  Name = 
REMARK  9 active torsions:
REMARK  status: ('A' for Active; 'I' for Inactive)
REMARK    1  A    between atoms: C_1  and  O_2
REMARK    2  A    between atoms: O_2  and  C_3
REMARK    3  A    between atoms: C_10  and  C_11
REMARK    4  A    between atoms: N_13  and  C_14
REMARK    5  A    between atoms: C_14  and  C_15
REMARK    6  A    between atoms: C_18  and  C_19
REMARK    7  A    between atoms: C_19  and  N_20
REMARK    8  A    between atoms: N_20  and  C_21
REMARK    9  A    between atoms: C_21  and  C_22
REMARK                            x       y       z     vdW  Elec       q    Type
REMARK                         _______ _______ _______ _____ _____    ______ ____
ROOT
ATOM      1  C   UNL     1      46.894   6.064  12.569  0.00  0.00    +0.000 A 
ATOM      2  C   UNL     1      46.331   6.335  11.314  0.00  0.00    +0.000 A 
ATOM      3  C   UNL     1      45.323   5.518  10.793  0.00  0.00    +0.000 A 
ATOM      4  C   UNL     1      44.850   4.411  11.513  0.00  0.00    +0.000 A 
ATOM      5  C   UNL     1      45.434   4.125  12.755  0.00  0.00    +0.000 A 
ATOM      6  C   UNL     1      46.441   4.945  13.279  0.00  0.00    +0.000 A 
ENDROOT
BRANCH   1   7
ATOM      7  C   UNL     1      47.926   6.990  13.161  0.00  0.00    +0.000 C 
BRANCH   7  10
ATOM      8  C   UNL     1      49.006   7.006  15.367  0.00  0.00    +0.000 C 
ATOM      9  O   UNL     1      50.118   6.992  14.838  0.00  0.00    +0.000 OA
ATOM     10  N   UNL     1      47.868   6.992  14.605  0.00  0.00    +0.000 N 
ATOM     11  H   UNL     1      46.957   7.014  15.046  0.00  0.00    +0.000 HD
BRANCH   8  19
ATOM     12  C   UNL     1      48.909   4.587  17.827  0.00  0.00    +0.000 A 
ATOM     13  N   UNL     1      48.796   3.868  18.962  0.00  0.00    +0.000 NA
ATOM     14  C   UNL     1      48.619   4.527  20.110  0.00  0.00    +0.000 A 
ATOM     15  N   UNL     1      48.545   5.845  20.272  0.00  0.00    +0.000 NA
ATOM     16  C   UNL     1      48.646   6.521  19.116  0.00  0.00    +0.000 A 
ATOM     17  S   UNL     1      48.579   8.218  19.135  0.00  0.00    +0.000 S 
ATOM     18  C   UNL     1      48.754   8.290  17.448  0.00  0.00    +0.000 A 
ATOM     19  C   UNL     1      48.866   7.047  16.834  0.00  0.00    +0.000 A 
ATOM     20  C   UNL     1      48.815   5.989  17.840  0.00  0.00    +0.000 A 
BRANCH  12  22
ATOM     21  C   UNL     1      47.962   3.123  16.281  0.00  0.00    +0.000 C 
ATOM     22  O   UNL     1      49.099   3.906  16.643  0.00  0.00    +0.000 OA
ENDBRANCH  12  22
ENDBRANCH   8  19
ENDBRANCH   7  10
ENDBRANCH   1   7
BRANCH   4  23
ATOM     23  C   UNL     1      43.701   3.577  10.985  0.00  0.00    +0.000 C 
BRANCH  23  24
ATOM     24  N   UNL     1      43.867   3.258   9.570  0.00  0.00    +0.000 NA
ATOM     25  H   UNL     1      44.325   4.045   9.110  0.00  0.00    +0.000 HD
BRANCH  24  26
ATOM     26  C   UNL     1      44.693   2.061   9.381  0.00  0.00    +0.000 C 
BRANCH  26  27
ATOM     27  C   UNL     1      45.725   2.290   8.305  0.00  0.00    +0.000 A 
ATOM     28  C   UNL     1      45.973   3.583   7.817  0.00  0.00    +0.000 A 
ATOM     29  C   UNL     1      46.961   3.803   6.854  0.00  0.00    +0.000 A 
ATOM     30  C   UNL     1      47.704   2.733   6.357  0.00  0.00    +0.000 A 
ATOM     31  C   UNL     1      47.449   1.441   6.813  0.00  0.00    +0.000 A 
ATOM     32  C   UNL     1      46.463   1.229   7.776  0.00  0.00    +0.000 A 
ATOM     33  F   UNL     1      46.240  -0.023   8.199  0.00  0.00    +0.000 F 
ENDBRANCH  26  27
ENDBRANCH  24  26
ENDBRANCH  23  24
ENDBRANCH   4  23
TORSDOF 8
ENDMDL
MODEL 2
REMARK VINA RESULT:    -7.921      1.646      2.049
REMARK INTER + INTRA:         -12.994
REMARK INTER:                 -11.589
REMARK INTRA:                  -1.405
REMARK UNBOUND:                -1.369
REMARK  Name = 
REMARK  9 active torsions:
REMARK  status: ('A' for Active; 'I' for Inactive)
REMARK    1  A    between atoms: C_1  and  O_2
REMARK    2  A    between atoms: O_2  and  C_3
REMARK    3  A    between atoms: C_10  and  C_11
REMARK    4  A    between atoms: N_13  and  C_14
REMARK    5  A    between atoms: C_14  and  C_15
REMARK    6  A    between atoms: C_18  and  C_19
REMARK    7  A    between atoms: C_19  and  N_20
REMARK    8  A    between atoms: N_20  and  C_21
REMARK    9  A    between atoms: C_21  and  C_22
REMARK                            x       y       z     vdW  Elec       q    Type
REMARK                         _______ _______ _______ _____ _____    ______ ____
ROOT
ATOM      1  C   UNL     1      46.654   6.431  12.649  0.00  0.00    +0.000 A 
ATOM      2  C   UNL     1      46.487   5.282  13.434  0.00  0.00    +0.000 A 
ATOM      3  C   UNL     1      45.650   4.244  13.012  0.00  0.00    +0.000 A 
ATOM      4  C   UNL     1      44.962   4.326  11.792  0.00  0.00    +0.000 A 
ATOM      5  C   UNL     1      45.108   5.488  11.022  0.00  0.00    +0.000 A 
ATOM      6  C   UNL     1      45.948   6.526  11.443  0.00  0.00    +0.000 A 
ENDROOT
BRANCH   1   7
ATOM      7  C   UNL     1      47.615   7.513  13.070  0.00  0.00    +0.000 C 
BRANCH   7  10
ATOM      8  C   UNL     1      49.313   7.721  14.833  0.00  0.00    +0.000 C 
ATOM      9  O   UNL     1      48.966   8.883  15.049  0.00  0.00    +0.000 OA
ATOM     10  N   UNL     1      48.702   6.979  13.857  0.00  0.00    +0.000 N 
ATOM     11  H   UNL     1      48.986   6.021  13.690  0.00  0.00    +0.000 HD
BRANCH   8  19
ATOM     12  C   UNL     1      49.419   5.090  17.064  0.00  0.00    +0.000 A 
ATOM     13  N   UNL     1      49.736   4.156  17.984  0.00  0.00    +0.000 NA
ATOM     14  C   UNL     1      51.004   4.084  18.397  0.00  0.00    +0.000 A 
ATOM     15  N   UNL     1      52.020   4.839  17.992  0.00  0.00    +0.000 NA
ATOM     16  C   UNL     1      51.659   5.765  17.089  0.00  0.00    +0.000 A 
ATOM     17  S   UNL     1      52.833   6.815  16.456  0.00  0.00    +0.000 S 
ATOM     18  C   UNL     1      51.678   7.600  15.490  0.00  0.00    +0.000 A 
ATOM     19  C   UNL     1      50.389   7.093  15.620  0.00  0.00    +0.000 A 
ATOM     20  C   UNL     1      50.385   5.983  16.570  0.00  0.00    +0.000 A 
BRANCH  12  22
ATOM     21  C   UNL     1      47.222   4.436  17.484  0.00  0.00    +0.000 C 
ATOM     22  O   UNL     1      48.111   5.159  16.633  0.00  0.00    +0.000 OA
ENDBRANCH  12  22
ENDBRANCH   8  19
ENDBRANCH   7  10
ENDBRANCH   1   7
BRANCH   4  23
ATOM     23  C   UNL     1      44.124   3.166  11.297  0.00  0.00    +0.000 C 
BRANCH  23  24
ATOM     24  N   UNL     1      43.989   3.176   9.843  0.00  0.00    +0.000 NA
ATOM     25  H   UNL     1      44.500   3.978   9.473  0.00  0.00    +0.000 HD
BRANCH  24  26
ATOM     26  C   UNL     1      44.536   1.955   9.242  0.00  0.00    +0.000 C 
BRANCH  26  27
ATOM     27  C   UNL     1      45.669   2.285   8.303  0.00  0.00    +0.000 A 
ATOM     28  C   UNL     1      45.914   3.613   7.917  0.00  0.00    +0.000 A 
ATOM     29  C   UNL     1      46.991   3.925   7.084  0.00  0.00    +0.000 A 
ATOM     30  C   UNL     1      47.831   2.915   6.617  0.00  0.00    +0.000 A 
ATOM     31  C   UNL     1      47.583   1.590   6.971  0.00  0.00    +0.000 A 
ATOM     32  C   UNL     1      46.507   1.285   7.804  0.00  0.00    +0.000 A 
ATOM     33  F   UNL     1      46.293   0.003   8.130  0.00  0.00    +0.000 F 
ENDBRANCH  26  27
ENDBRANCH  24  26
ENDBRANCH  23  24
ENDBRANCH   4  23
TORSDOF 8
ENDMDL
MODEL 3
REMARK VINA RESULT:    -7.533      1.797      3.340
REMARK INTER + INTRA:         -12.425
REMARK INTER:                 -11.372
REMARK INTRA:                  -1.053
REMARK UNBOUND:                -1.369
REMARK  Name = 
REMARK  9 active torsions:
REMARK  status: ('A' for Active; 'I' for Inactive)
REMARK    1  A    between atoms: C_1  and  O_2
REMARK    2  A    between atoms: O_2  and  C_3
REMARK    3  A    between atoms: C_10  and  C_11
REMARK    4  A    between atoms: N_13  and  C_14
REMARK    5  A    between atoms: C_14  and  C_15
REMARK    6  A    between atoms: C_18  and  C_19
REMARK    7  A    between atoms: C_19  and  N_20
REMARK    8  A    between atoms: N_20  and  C_21
REMARK    9  A    between atoms: C_21  and  C_22
REMARK                            x       y       z     vdW  Elec       q    Type
REMARK                         _______ _______ _______ _____ _____    ______ ____
ROOT
ATOM      1  C   UNL     1      46.304   4.415  13.521  0.00  0.00    +0.000 A 
ATOM      2  C   UNL     1      46.016   5.682  12.996  0.00  0.00    +0.000 A 
ATOM      3  C   UNL     1      45.158   5.823  11.901  0.00  0.00    +0.000 A 
ATOM      4  C   UNL     1      44.564   4.702  11.304  0.00  0.00    +0.000 A 
ATOM      5  C   UNL     1      44.876   3.433  11.811  0.00  0.00    +0.000 A 
ATOM      6  C   UNL     1      45.732   3.291  12.909  0.00  0.00    +0.000 A 
ENDROOT
BRANCH   1   7
ATOM      7  C   UNL     1      47.168   4.272  14.748  0.00  0.00    +0.000 C 
BRANCH   7  10
ATOM      8  C   UNL     1      48.527   5.702  16.212  0.00  0.00    +0.000 C 
ATOM      9  O   UNL     1      49.171   4.723  16.592  0.00  0.00    +0.000 OA
ATOM     10  N   UNL     1      47.507   5.559  15.309  0.00  0.00    +0.000 N 
ATOM     11  H   UNL     1      46.987   6.369  14.993  0.00  0.00    +0.000 HD
BRANCH   8  19
ATOM     12  C   UNL     1      49.123   8.736  14.679  0.00  0.00    +0.000 A 
ATOM     13  N   UNL     1      49.432  10.007  14.352  0.00  0.00    +0.000 NA
ATOM     14  C   UNL     1      49.689  10.867  15.341  0.00  0.00    +0.000 A 
ATOM     15  N   UNL     1      49.671  10.612  16.647  0.00  0.00    +0.000 NA
ATOM     16  C   UNL     1      49.375   9.333  16.927  0.00  0.00    +0.000 A 
ATOM     17  S   UNL     1      49.300   8.831  18.547  0.00  0.00    +0.000 S 
ATOM     18  C   UNL     1      48.918   7.242  18.086  0.00  0.00    +0.000 A 
ATOM     19  C   UNL     1      48.838   7.053  16.710  0.00  0.00    +0.000 A 
ATOM     20  C   UNL     1      49.099   8.313  16.019  0.00  0.00    +0.000 A 
BRANCH  12  22
ATOM     21  C   UNL     1      48.324   8.504  12.502  0.00  0.00    +0.000 C 
ATOM     22  O   UNL     1      48.850   7.851  13.657  0.00  0.00    +0.000 OA
ENDBRANCH  12  22
ENDBRANCH   8  19
ENDBRANCH   7  10
ENDBRANCH   1   7
BRANCH   4  23
ATOM     23  C   UNL     1      43.570   4.863  10.172  0.00  0.00    +0.000 C 
BRANCH  23  24
ATOM     24  N   UNL     1      44.024   4.199   8.953  0.00  0.00    +0.000 NA
ATOM     25  H   UNL     1      43.459   4.531   8.171  0.00  0.00    +0.000 HD
BRANCH  24  26
ATOM     26  C   UNL     1      45.432   4.494   8.671  0.00  0.00    +0.000 C 
BRANCH  26  27
ATOM     27  C   UNL     1      46.058   3.383   7.865  0.00  0.00    +0.000 A 
ATOM     28  C   UNL     1      46.657   3.650   6.623  0.00  0.00    +0.000 A 
ATOM     29  C   UNL     1      47.277   2.630   5.898  0.00  0.00    +0.000 A 
ATOM     30  C   UNL     1      47.296   1.328   6.396  0.00  0.00    +0.000 A 
ATOM     31  C   UNL     1      46.681   1.044   7.615  0.00  0.00    +0.000 A 
ATOM     32  C   UNL     1      46.066   2.067   8.335  0.00  0.00    +0.000 A 
ATOM     33  F   UNL     1      45.484   1.767   9.505  0.00  0.00    +0.000 F 
ENDBRANCH  26  27
ENDBRANCH  24  26
ENDBRANCH  23  24
ENDBRANCH   4  23
TORSDOF 8
ENDMDL
MODEL 4
REMARK VINA RESULT:    -7.515      1.491      2.062
REMARK INTER + INTRA:         -12.398
REMARK INTER:                 -11.159
REMARK INTRA:                  -1.239
REMARK UNBOUND:                -1.369
REMARK  Name = 
REMARK  9 active torsions:
REMARK  status: ('A' for Active; 'I' for Inactive)
REMARK    1  A    between atoms: C_1  and  O_2
REMARK    2  A    between atoms: O_2  and  C_3
REMARK    3  A    between atoms: C_10  and  C_11
REMARK    4  A    between atoms: N_13  and  C_14
REMARK    5  A    between atoms: C_14  and  C_15
REMARK    6  A    between atoms: C_18  and  C_19
REMARK    7  A    between atoms: C_19  and  N_20
REMARK    8  A    between atoms: N_20  and  C_21
REMARK    9  A    between atoms: C_21  and  C_22
REMARK                            x       y       z     vdW  Elec       q    Type
REMARK                         _______ _______ _______ _____ _____    ______ ____
ROOT
ATOM      1  C   UNL     1      46.776   6.732  12.882  0.00  0.00    +0.000 A 
ATOM      2  C   UNL     1      46.983   5.433  13.367  0.00  0.00    +0.000 A 
ATOM      3  C   UNL     1      46.171   4.376  12.945  0.00  0.00    +0.000 A 
ATOM      4  C   UNL     1      45.134   4.588  12.026  0.00  0.00    +0.000 A 
ATOM      5  C   UNL     1      44.909   5.892  11.563  0.00  0.00    +0.000 A 
ATOM      6  C   UNL     1      45.724   6.951  11.983  0.00  0.00    +0.000 A 
ENDROOT
BRANCH   1   7
ATOM      7  C   UNL     1      47.700   7.855  13.279  0.00  0.00    +0.000 C 
BRANCH   7  10
ATOM      8  C   UNL     1      48.506   8.085  15.588  0.00  0.00    +0.000 C 
ATOM      9  O   UNL     1      49.592   7.598  15.271  0.00  0.00    +0.000 OA
ATOM     10  N   UNL     1      47.509   8.233  14.661  0.00  0.00    +0.000 N 
ATOM     11  H   UNL     1      46.622   8.643  14.925  0.00  0.00    +0.000 HD
BRANCH   8  19
ATOM     12  C   UNL     1      48.258   6.451  18.617  0.00  0.00    +0.000 A 
ATOM     13  N   UNL     1      48.068   6.074  19.898  0.00  0.00    +0.000 NA
ATOM     14  C   UNL     1      47.789   7.021  20.798  0.00  0.00    +0.000 A 
ATOM     15  N   UNL     1      47.679   8.328  20.575  0.00  0.00    +0.000 NA
ATOM     16  C   UNL     1      47.859   8.657  19.285  0.00  0.00    +0.000 A 
ATOM     17  S   UNL     1      47.761  10.287  18.820  0.00  0.00    +0.000 S 
ATOM     18  C   UNL     1      48.067   9.890  17.197  0.00  0.00    +0.000 A 
ATOM     19  C   UNL     1      48.250   8.530  16.969  0.00  0.00    +0.000 A 
ATOM     20  C   UNL     1      48.138   7.796  18.227  0.00  0.00    +0.000 A 
BRANCH  12  22
ATOM     21  C   UNL     1      47.402   4.720  17.313  0.00  0.00    +0.000 C 
ATOM     22  O   UNL     1      48.554   5.473  17.691  0.00  0.00    +0.000 OA
ENDBRANCH  12  22
ENDBRANCH   8  19
ENDBRANCH   7  10
ENDBRANCH   1   7
BRANCH   4  23
ATOM     23  C   UNL     1      44.310   3.428  11.506  0.00  0.00    +0.000 C 
BRANCH  23  24
ATOM     24  N   UNL     1      45.124   2.482  10.747  0.00  0.00    +0.000 NA
ATOM     25  H   UNL     1      45.184   1.609  11.272  0.00  0.00    +0.000 HD
BRANCH  24  26
ATOM     26  C   UNL     1      44.536   2.198   9.433  0.00  0.00    +0.000 C 
BRANCH  26  27
ATOM     27  C   UNL     1      45.590   2.258   8.355  0.00  0.00    +0.000 A 
ATOM     28  C   UNL     1      46.308   1.108   7.993  0.00  0.00    +0.000 A 
ATOM     29  C   UNL     1      47.251   1.151   6.963  0.00  0.00    +0.000 A 
ATOM     30  C   UNL     1      47.497   2.348   6.290  0.00  0.00    +0.000 A 
ATOM     31  C   UNL     1      46.811   3.503   6.659  0.00  0.00    +0.000 A 
ATOM     32  C   UNL     1      45.870   3.452   7.686  0.00  0.00    +0.000 A 
ATOM     33  F   UNL     1      45.222   4.578   8.019  0.00  0.00    +0.000 F 
ENDBRANCH  26  27
ENDBRANCH  24  26
ENDBRANCH  23  24
ENDBRANCH   4  23
TORSDOF 8
ENDMDL
MODEL 5
REMARK VINA RESULT:    -7.328      1.592      2.396
REMARK INTER + INTRA:         -12.124
REMARK INTER:                 -11.600
REMARK INTRA:                  -0.523
REMARK UNBOUND:                -1.369
REMARK  Name = 
REMARK  9 active torsions:
REMARK  status: ('A' for Active; 'I' for Inactive)
REMARK    1  A    between atoms: C_1  and  O_2
REMARK    2  A    between atoms: O_2  and  C_3
REMARK    3  A    between atoms: C_10  and  C_11
REMARK    4  A    between atoms: N_13  and  C_14
REMARK    5  A    between atoms: C_14  and  C_15
REMARK    6  A    between atoms: C_18  and  C_19
REMARK    7  A    between atoms: C_19  and  N_20
REMARK    8  A    between atoms: N_20  and  C_21
REMARK    9  A    between atoms: C_21  and  C_22
REMARK                            x       y       z     vdW  Elec       q    Type
REMARK                         _______ _______ _______ _____ _____    ______ ____
ROOT
ATOM      1  C   UNL     1      46.519   4.396  13.714  0.00  0.00    +0.000 A 
ATOM      2  C   UNL     1      46.100   5.654  13.262  0.00  0.00    +0.000 A 
ATOM      3  C   UNL     1      45.176   5.767  12.219  0.00  0.00    +0.000 A 
ATOM      4  C   UNL     1      44.644   4.625  11.603  0.00  0.00    +0.000 A 
ATOM      5  C   UNL     1      45.085   3.367  12.037  0.00  0.00    +0.000 A 
ATOM      6  C   UNL     1      46.008   3.254  13.084  0.00  0.00    +0.000 A 
ENDROOT
BRANCH   1   7
ATOM      7  C   UNL     1      47.456   4.277  14.889  0.00  0.00    +0.000 C 
BRANCH   7  10
ATOM      8  C   UNL     1      48.549   5.745  16.527  0.00  0.00    +0.000 C 
ATOM      9  O   UNL     1      49.392   4.878  16.761  0.00  0.00    +0.000 OA
ATOM     10  N   UNL     1      47.547   5.519  15.622  0.00  0.00    +0.000 N 
ATOM     11  H   UNL     1      46.862   6.239  15.425  0.00  0.00    +0.000 HD
BRANCH   8  19
ATOM     12  C   UNL     1      47.945   6.780  19.763  0.00  0.00    +0.000 A 
ATOM     13  N   UNL     1      47.732   7.454  20.911  0.00  0.00    +0.000 NA
ATOM     14  C   UNL     1      47.912   8.778  20.907  0.00  0.00    +0.000 A 
ATOM     15  N   UNL     1      48.293   9.529  19.878  0.00  0.00    +0.000 NA
ATOM     16  C   UNL     1      48.478   8.821  18.752  0.00  0.00    +0.000 A 
ATOM     17  S   UNL     1      48.973   9.619  17.338  0.00  0.00    +0.000 S 
ATOM     18  C   UNL     1      48.969   8.166  16.460  0.00  0.00    +0.000 A 
ATOM     19  C   UNL     1      48.598   7.052  17.206  0.00  0.00    +0.000 A 
ATOM     20  C   UNL     1      48.318   7.448  18.584  0.00  0.00    +0.000 A 
BRANCH  12  22
ATOM     21  C   UNL     1      48.809   4.735  20.469  0.00  0.00    +0.000 C 
ATOM     22  O   UNL     1      47.766   5.413  19.771  0.00  0.00    +0.000 OA
ENDBRANCH  12  22
ENDBRANCH   8  19
ENDBRANCH   7  10
ENDBRANCH   1   7
BRANCH   4  23
ATOM     23  C   UNL     1      43.580   4.747  10.532  0.00  0.00    +0.000 C 
BRANCH  23  24
ATOM     24  N   UNL     1      43.927   3.987   9.334  0.00  0.00    +0.000 NA
ATOM     25  H   UNL     1      43.184   4.107   8.645  0.00  0.00    +0.000 HD
BRANCH  24  26
ATOM     26  C   UNL     1      45.188   4.451   8.747  0.00  0.00    +0.000 C 
BRANCH  26  27
ATOM     27  C   UNL     1      45.933   3.304   8.111  0.00  0.00    +0.000 A 
ATOM     28  C   UNL     1      46.907   3.542   7.128  0.00  0.00    +0.000 A 
ATOM     29  C   UNL     1      47.631   2.484   6.572  0.00  0.00    +0.000 A 
ATOM     30  C   UNL     1      47.382   1.175   6.981  0.00  0.00    +0.000 A 
ATOM     31  C   UNL     1      46.399   0.923   7.937  0.00  0.00    +0.000 A 
ATOM     32  C   UNL     1      45.682   1.983   8.489  0.00  0.00    +0.000 A 
ATOM     33  F   UNL     1      44.744   1.713   9.408  0.00  0.00    +0.000 F 
ENDBRANCH  26  27
ENDBRANCH  24  26
ENDBRANCH  23  24
ENDBRANCH   4  23
TORSDOF 8
ENDMDL
MODEL 6
REMARK VINA RESULT:    -7.172      2.096      2.619
REMARK INTER + INTRA:         -11.895
REMARK INTER:                 -10.713
REMARK INTRA:                  -1.182
REMARK UNBOUND:                -1.369
REMARK  Name = 
REMARK  9 active torsions:
REMARK  status: ('A' for Active; 'I' for Inactive)
REMARK    1  A    between atoms: C_1  and  O_2
REMARK    2  A    between atoms: O_2  and  C_3
REMARK    3  A    between atoms: C_10  and  C_11
REMARK    4  A    between atoms: N_13  and  C_14
REMARK    5  A    between atoms: C_14  and  C_15
REMARK    6  A    between atoms: C_18  and  C_19
REMARK    7  A    between atoms: C_19  and  N_20
REMARK    8  A    between atoms: N_20  and  C_21
REMARK    9  A    between atoms: C_21  and  C_22
REMARK                            x       y       z     vdW  Elec       q    Type
REMARK                         _______ _______ _______ _____ _____    ______ ____
ROOT
ATOM      1  C   UNL     1      47.478   6.376  13.215  0.00  0.00    +0.000 A 
ATOM      2  C   UNL     1      47.028   6.777  11.949  0.00  0.00    +0.000 A 
ATOM      3  C   UNL     1      46.080   6.018  11.256  0.00  0.00    +0.000 A 
ATOM      4  C   UNL     1      45.555   4.842  11.810  0.00  0.00    +0.000 A 
ATOM      5  C   UNL     1      46.027   4.427  13.063  0.00  0.00    +0.000 A 
ATOM      6  C   UNL     1      46.974   5.188  13.759  0.00  0.00    +0.000 A 
ENDROOT
BRANCH   1   7
ATOM      7  C   UNL     1      48.442   7.236  13.992  0.00  0.00    +0.000 C 
BRANCH   7  10
ATOM      8  C   UNL     1      48.824   7.277  16.418  0.00  0.00    +0.000 C 
ATOM      9  O   UNL     1      48.494   8.463  16.463  0.00  0.00    +0.000 OA
ATOM     10  N   UNL     1      48.839   6.601  15.228  0.00  0.00    +0.000 N 
ATOM     11  H   UNL     1      49.102   5.623  15.198  0.00  0.00    +0.000 HD
BRANCH   8  19
ATOM     12  C   UNL     1      51.795   6.863  18.126  0.00  0.00    +0.000 A 
ATOM     13  N   UNL     1      52.801   6.503  18.948  0.00  0.00    +0.000 NA
ATOM     14  C   UNL     1      52.517   5.703  19.978  0.00  0.00    +0.000 A 
ATOM     15  N   UNL     1      51.325   5.209  20.302  0.00  0.00    +0.000 NA
ATOM     16  C   UNL     1      50.355   5.579  19.450  0.00  0.00    +0.000 A 
ATOM     17  S   UNL     1      48.766   5.045  19.714  0.00  0.00    +0.000 S 
ATOM     18  C   UNL     1      48.212   5.861  18.332  0.00  0.00    +0.000 A 
ATOM     19  C   UNL     1      49.205   6.550  17.642  0.00  0.00    +0.000 A 
ATOM     20  C   UNL     1      50.486   6.390  18.325  0.00  0.00    +0.000 A 
BRANCH  12  22
ATOM     21  C   UNL     1      52.599   6.982  15.942  0.00  0.00    +0.000 C 
ATOM     22  O   UNL     1      52.088   7.696  17.067  0.00  0.00    +0.000 OA
ENDBRANCH  12  22
ENDBRANCH   8  19
ENDBRANCH   7  10
ENDBRANCH   1   7
BRANCH   4  23
ATOM     23  C   UNL     1      44.467   4.067  11.096  0.00  0.00    +0.000 C 
BRANCH  23  24
ATOM     24  N   UNL     1      44.899   2.715  10.754  0.00  0.00    +0.000 NA
ATOM     25  H   UNL     1      44.518   2.067  11.443  0.00  0.00    +0.000 HD
BRANCH  24  26
ATOM     26  C   UNL     1      44.423   2.318   9.424  0.00  0.00    +0.000 C 
BRANCH  26  27
ATOM     27  C   UNL     1      45.566   2.276   8.441  0.00  0.00    +0.000 A 
ATOM     28  C   UNL     1      46.238   1.072   8.176  0.00  0.00    +0.000 A 
ATOM     29  C   UNL     1      47.266   1.022   7.231  0.00  0.00    +0.000 A 
ATOM     30  C   UNL     1      47.644   2.177   6.548  0.00  0.00    +0.000 A 
ATOM     31  C   UNL     1      47.003   3.385   6.821  0.00  0.00    +0.000 A 
ATOM     32  C   UNL     1      45.977   3.427   7.763  0.00  0.00    +0.000 A 
ATOM     33  F   UNL     1      45.377   4.600   8.006  0.00  0.00    +0.000 F 
ENDBRANCH  26  27
ENDBRANCH  24  26
ENDBRANCH  23  24
ENDBRANCH   4  23
TORSDOF 8
ENDMDL
MODEL 7
REMARK VINA RESULT:    -6.843      1.668      2.089
REMARK INTER + INTRA:         -11.411
REMARK INTER:                 -10.153
REMARK INTRA:                  -1.258
REMARK UNBOUND:                -1.369
REMARK  Name = 
REMARK  9 active torsions:
REMARK  status: ('A' for Active; 'I' for Inactive)
REMARK    1  A    between atoms: C_1  and  O_2
REMARK    2  A    between atoms: O_2  and  C_3
REMARK    3  A    between atoms: C_10  and  C_11
REMARK    4  A    between atoms: N_13  and  C_14
REMARK    5  A    between atoms: C_14  and  C_15
REMARK    6  A    between atoms: C_18  and  C_19
REMARK    7  A    between atoms: C_19  and  N_20
REMARK    8  A    between atoms: N_20  and  C_21
REMARK    9  A    between atoms: C_21  and  C_22
REMARK                            x       y       z     vdW  Elec       q    Type
REMARK                         _______ _______ _______ _____ _____    ______ ____
ROOT
ATOM      1  C   UNL     1      47.907   8.001  13.305  0.00  0.00    +0.000 A 
ATOM      2  C   UNL     1      46.739   8.767  13.189  0.00  0.00    +0.000 A 
ATOM      3  C   UNL     1      45.588   8.230  12.604  0.00  0.00    +0.000 A 
ATOM      4  C   UNL     1      45.574   6.914  12.122  0.00  0.00    +0.000 A 
ATOM      5  C   UNL     1      46.751   6.158  12.212  0.00  0.00    +0.000 A 
ATOM      6  C   UNL     1      47.903   6.694  12.801  0.00  0.00    +0.000 A 
ENDROOT
BRANCH   1   7
ATOM      7  C   UNL     1      49.122   8.556  14.005  0.00  0.00    +0.000 C 
BRANCH   7  10
ATOM      8  C   UNL     1      50.500   7.487  15.734  0.00  0.00    +0.000 C 
ATOM      9  O   UNL     1      51.479   7.511  14.987  0.00  0.00    +0.000 OA
ATOM     10  N   UNL     1      49.290   7.973  15.315  0.00  0.00    +0.000 N 
ATOM     11  H   UNL     1      48.490   7.959  15.937  0.00  0.00    +0.000 HD
BRANCH   8  19
ATOM     12  C   UNL     1      48.901   4.931  17.413  0.00  0.00    +0.000 A 
ATOM     13  N   UNL     1      48.416   4.043  18.305  0.00  0.00    +0.000 NA
ATOM     14  C   UNL     1      48.921   4.052  19.541  0.00  0.00    +0.000 A 
ATOM     15  N   UNL     1      49.876   4.850  20.008  0.00  0.00    +0.000 NA
ATOM     16  C   UNL     1      50.320   5.728  19.094  0.00  0.00    +0.000 A 
ATOM     17  S   UNL     1      51.547   6.822  19.516  0.00  0.00    +0.000 S 
ATOM     18  C   UNL     1      51.527   7.515  17.966  0.00  0.00    +0.000 A 
ATOM     19  C   UNL     1      50.602   6.942  17.099  0.00  0.00    +0.000 A 
ATOM     20  C   UNL     1      49.890   5.861  17.776  0.00  0.00    +0.000 A 
BRANCH  12  22
ATOM     21  C   UNL     1      47.141   4.217  16.063  0.00  0.00    +0.000 C 
ATOM     22  O   UNL     1      48.384   4.916  16.135  0.00  0.00    +0.000 OA
ENDBRANCH  12  22
ENDBRANCH   8  19
ENDBRANCH   7  10
ENDBRANCH   1   7
BRANCH   4  23
ATOM     23  C   UNL     1      44.303   6.306  11.565  0.00  0.00    +0.000 C 
BRANCH  23  24
ATOM     24  N   UNL     1      44.505   5.753  10.229  0.00  0.00    +0.000 NA
ATOM     25  H   UNL     1      45.462   5.949   9.936  0.00  0.00    +0.000 HD
BRANCH  24  26
ATOM     26  C   UNL     1      44.299   4.301  10.210  0.00  0.00    +0.000 C 
BRANCH  26  27
ATOM     27  C   UNL     1      45.136   3.658   9.133  0.00  0.00    +0.000 A 
ATOM     28  C   UNL     1      45.936   4.442   8.286  0.00  0.00    +0.000 A 
ATOM     29  C   UNL     1      46.747   3.845   7.318  0.00  0.00    +0.000 A 
ATOM     30  C   UNL     1      46.760   2.458   7.175  0.00  0.00    +0.000 A 
ATOM     31  C   UNL     1      45.950   1.670   7.991  0.00  0.00    +0.000 A 
ATOM     32  C   UNL     1      45.145   2.272   8.956  0.00  0.00    +0.000 A 
ATOM     33  F   UNL     1      44.378   1.491   9.729  0.00  0.00    +0.000 F 
ENDBRANCH  26  27
ENDBRANCH  24  26
ENDBRANCH  23  24
ENDBRANCH   4  23
TORSDOF 8
ENDMDL
MODEL 8
REMARK VINA RESULT:    -6.424      2.956      3.512
REMARK INTER + INTRA:         -10.797
REMARK INTER:                  -9.641
REMARK INTRA:                  -1.155
REMARK UNBOUND:                -1.369
REMARK  Name = 
REMARK  9 active torsions:
REMARK  status: ('A' for Active; 'I' for Inactive)
REMARK    1  A    between atoms: C_1  and  O_2
REMARK    2  A    between atoms: O_2  and  C_3
REMARK    3  A    between atoms: C_10  and  C_11
REMARK    4  A    between atoms: N_13  and  C_14
REMARK    5  A    between atoms: C_14  and  C_15
REMARK    6  A    between atoms: C_18  and  C_19
REMARK    7  A    between atoms: C_19  and  N_20
REMARK    8  A    between atoms: N_20  and  C_21
REMARK    9  A    between atoms: C_21  and  C_22
REMARK                            x       y       z     vdW  Elec       q    Type
REMARK                         _______ _______ _______ _____ _____    ______ ____
ROOT
ATOM      1  C   UNL     1      46.811   6.940  12.415  0.00  0.00    +0.000 A 
ATOM      2  C   UNL     1      46.987   5.662  12.963  0.00  0.00    +0.000 A 
ATOM      3  C   UNL     1      46.085   4.633  12.676  0.00  0.00    +0.000 A 
ATOM      4  C   UNL     1      44.988   4.852  11.831  0.00  0.00    +0.000 A 
ATOM      5  C   UNL     1      44.798   6.138  11.306  0.00  0.00    +0.000 A 
ATOM      6  C   UNL     1      45.702   7.169  11.591  0.00  0.00    +0.000 A 
ENDROOT
BRANCH   1   7
ATOM      7  C   UNL     1      47.826   8.027  12.665  0.00  0.00    +0.000 C 
BRANCH   7  10
ATOM      8  C   UNL     1      48.777   9.284  14.549  0.00  0.00    +0.000 C 
ATOM      9  O   UNL     1      49.270  10.103  13.771  0.00  0.00    +0.000 OA
ATOM     10  N   UNL     1      48.059   8.217  14.078  0.00  0.00    +0.000 N 
ATOM     11  H   UNL     1      47.649   7.553  14.723  0.00  0.00    +0.000 HD
BRANCH   8  19
ATOM     12  C   UNL     1      51.494   9.825  16.608  0.00  0.00    +0.000 A 
ATOM     13  N   UNL     1      52.361   9.983  17.628  0.00  0.00    +0.000 NA
ATOM     14  C   UNL     1      51.875   9.993  18.872  0.00  0.00    +0.000 A 
ATOM     15  N   UNL     1      50.601   9.868  19.233  0.00  0.00    +0.000 NA
ATOM     16  C   UNL     1      49.774   9.697  18.189  0.00  0.00    +0.000 A 
ATOM     17  S   UNL     1      48.108   9.528  18.465  0.00  0.00    +0.000 S 
ATOM     18  C   UNL     1      47.802   9.364  16.803  0.00  0.00    +0.000 A 
ATOM     19  C   UNL     1      48.940   9.432  16.006  0.00  0.00    +0.000 A 
ATOM     20  C   UNL     1      50.119   9.647  16.841  0.00  0.00    +0.000 A 
BRANCH  12  22
ATOM     21  C   UNL     1      52.368   8.515  14.891  0.00  0.00    +0.000 C 
ATOM     22  O   UNL     1      51.996   9.823  15.324  0.00  0.00    +0.000 OA
ENDBRANCH  12  22
ENDBRANCH   8  19
ENDBRANCH   7  10
ENDBRANCH   1   7
BRANCH   4  23
ATOM     23  C   UNL     1      44.061   3.715  11.453  0.00  0.00    +0.000 C 
BRANCH  23  24
ATOM     24  N   UNL     1      44.794   2.580  10.898  0.00  0.00    +0.000 NA
ATOM     25  H   UNL     1      44.657   1.774  11.508  0.00  0.00    +0.000 HD
BRANCH  24  26
ATOM     26  C   UNL     1      44.316   2.236   9.555  0.00  0.00    +0.000 C 
BRANCH  26  27
ATOM     27  C   UNL     1      45.435   2.343   8.549  0.00  0.00    +0.000 A 
ATOM     28  C   UNL     1      46.180   1.210   8.184  0.00  0.00    +0.000 A 
ATOM     29  C   UNL     1      47.186   1.298   7.219  0.00  0.00    +0.000 A 
ATOM     30  C   UNL     1      47.469   2.522   6.614  0.00  0.00    +0.000 A 
ATOM     31  C   UNL     1      46.755   3.660   6.986  0.00  0.00    +0.000 A 
ATOM     32  C   UNL     1      45.752   3.564   7.949  0.00  0.00    +0.000 A 
ATOM     33  F   UNL     1      45.079   4.674   8.287  0.00  0.00    +0.000 F 
ENDBRANCH  26  27
ENDBRANCH  24  26
ENDBRANCH  23  24
ENDBRANCH   4  23
TORSDOF 8
ENDMDL
MODEL 9
REMARK VINA RESULT:    -6.310      5.581      7.979
REMARK INTER + INTRA:         -10.629
REMARK INTER:                  -9.477
REMARK INTRA:                  -1.152
REMARK UNBOUND:                -1.369
REMARK  Name = 
REMARK  9 active torsions:
REMARK  status: ('A' for Active; 'I' for Inactive)
REMARK    1  A    between atoms: C_1  and  O_2
REMARK    2  A    between atoms: O_2  and  C_3
REMARK    3  A    between atoms: C_10  and  C_11
REMARK    4  A    between atoms: N_13  and  C_14
REMARK    5  A    between atoms: C_14  and  C_15
REMARK    6  A    between atoms: C_18  and  C_19
REMARK    7  A    between atoms: C_19  and  N_20
REMARK    8  A    between atoms: N_20  and  C_21
REMARK    9  A    between atoms: C_21  and  C_22
REMARK                            x       y       z     vdW  Elec       q    Type
REMARK                         _______ _______ _______ _____ _____    ______ ____
ROOT
ATOM      1  C   UNL     1      49.696   8.676  11.692  0.00  0.00    +0.000 A 
ATOM      2  C   UNL     1      48.758   9.665  12.019  0.00  0.00    +0.000 A 
ATOM      3  C   UNL     1      47.422   9.329  12.262  0.00  0.00    +0.000 A 
ATOM      4  C   UNL     1      46.991   7.997  12.187  0.00  0.00    +0.000 A 
ATOM      5  C   UNL     1      47.923   7.013  11.832  0.00  0.00    +0.000 A 
ATOM      6  C   UNL     1      49.261   7.348  11.592  0.00  0.00    +0.000 A 
ENDROOT
BRANCH   1   7
ATOM      7  C   UNL     1      51.150   9.030  11.505  0.00  0.00    +0.000 C 
BRANCH   7  10
ATOM      8  C   UNL     1      52.837   7.995  10.052  0.00  0.00    +0.000 C 
ATOM      9  O   UNL     1      53.014   9.067   9.471  0.00  0.00    +0.000 OA
ATOM     10  N   UNL     1      51.919   7.890  11.062  0.00  0.00    +0.000 N 
ATOM     11  H   UNL     1      51.785   7.009  11.543  0.00  0.00    +0.000 HD
BRANCH   8  19
ATOM     12  C   UNL     1      53.084   6.101   7.177  0.00  0.00    +0.000 A 
ATOM     13  N   UNL     1      53.335   5.179   6.226  0.00  0.00    +0.000 NA
ATOM     14  C   UNL     1      54.185   4.190   6.516  0.00  0.00    +0.000 A 
ATOM     15  N   UNL     1      54.835   4.007   7.662  0.00  0.00    +0.000 NA
ATOM     16  C   UNL     1      54.545   4.938   8.585  0.00  0.00    +0.000 A 
ATOM     17  S   UNL     1      55.292   4.862  10.108  0.00  0.00    +0.000 S 
ATOM     18  C   UNL     1      54.465   6.248  10.634  0.00  0.00    +0.000 A 
ATOM     19  C   UNL     1      53.612   6.797   9.682  0.00  0.00    +0.000 A 
ATOM     20  C   UNL     1      53.675   6.016   8.449  0.00  0.00    +0.000 A 
BRANCH  12  22
ATOM     21  C   UNL     1      52.852   8.190   6.171  0.00  0.00    +0.000 C 
ATOM     22  O   UNL     1      52.212   7.126   6.873  0.00  0.00    +0.000 OA
ENDBRANCH  12  22
ENDBRANCH   8  19
ENDBRANCH   7  10
ENDBRANCH   1   7
BRANCH   4  23
ATOM     23  C   UNL     1      45.564   7.625  12.533  0.00  0.00    +0.000 C 
BRANCH  23  24
ATOM     24  N   UNL     1      45.418   6.191  12.766  0.00  0.00    +0.000 NA
ATOM     25  H   UNL     1      45.396   6.024  13.772  0.00  0.00    +0.000 HD
BRANCH  24  26
ATOM     26  C   UNL     1      44.178   5.673  12.178  0.00  0.00    +0.000 C 
BRANCH  26  27
ATOM     27  C   UNL     1      44.477   4.810  10.978  0.00  0.00    +0.000 A 
ATOM     28  C   UNL     1      45.266   5.299   9.925  0.00  0.00    +0.000 A 
ATOM     29  C   UNL     1      45.582   4.485   8.834  0.00  0.00    +0.000 A 
ATOM     30  C   UNL     1      45.104   3.176   8.776  0.00  0.00    +0.000 A 
ATOM     31  C   UNL     1      44.298   2.687   9.803  0.00  0.00    +0.000 A 
ATOM     32  C   UNL     1      43.988   3.504  10.889  0.00  0.00    +0.000 A 
ATOM     33  F   UNL     1      43.212   3.008  11.863  0.00  0.00    +0.000 F 
ENDBRANCH  26  27
ENDBRANCH  24  26
ENDBRANCH  23  24
ENDBRANCH   4  23
TORSDOF 8
ENDMDL
