MODEL 1
REMARK VINA RESULT:    -7.935      0.000      0.000
REMARK INTER + INTRA:         -11.516
REMARK INTER:                 -10.718
REMARK INTRA:                  -0.798
REMARK UNBOUND:                -0.798
REMARK  Name = 
REMARK  6 active torsions:
REMARK  status: ('A' for Active; 'I' for Inactive)
REMARK    1  A    between atoms: C_2  and  C_3
REMARK    2  A    between atoms: C_7  and  N_8
REMARK    3  A    between atoms: N_8  and  C_9
REMARK    4  A    between atoms: C_9  and  C_10
REMARK    5  A    between atoms: C_10  and  C_13
REMARK    6  A    between atoms: C_17  and  C_18
REMARK                            x       y       z     vdW  Elec       q    Type
REMARK                         _______ _______ _______ _____ _____    ______ ____
ROOT
ATOM      1  C   UNL     1      44.067   2.927  10.872  0.00  0.00    +0.000 C 
ATOM      2  F   UNL     1      43.368   1.756  10.843  0.00  0.00    +0.000 F 
ATOM      3  F   UNL     1      43.126   3.906  11.046  0.00  0.00    +0.000 F 
ENDROOT
BRANCH   1   4
ATOM      4  C   UNL     1      44.893   3.138   9.616  0.00  0.00    +0.000 A 
ATOM      5  C   UNL     1      45.152   4.434   9.144  0.00  0.00    +0.000 A 
ATOM      6  C   UNL     1      45.987   4.635   8.045  0.00  0.00    +0.000 A 
ATOM      7  C   UNL     1      46.591   3.547   7.413  0.00  0.00    +0.000 A 
ATOM      8  C   UNL     1      46.347   2.247   7.869  0.00  0.00    +0.000 A 
ATOM      9  C   UNL     1      45.486   2.046   8.957  0.00  0.00    +0.000 A 
BRANCH   8  10
ATOM     10  C   UNL     1      47.056   1.066   7.304  0.00  0.00    +0.000 C 
ATOM     11  N   UNL     1      46.700  -0.172   7.755  0.00  0.00    +0.000 N 
ATOM     12  O   UNL     1      47.927   1.199   6.453  0.00  0.00    +0.000 OA
ATOM     13  H   UNL     1      46.127  -0.331   8.570  0.00  0.00    +0.000 HD
ATOM     14  H   UNL     1      47.221  -0.958   7.383  0.00  0.00    +0.000 HD
ENDBRANCH   8  10
ENDBRANCH   1   4
BRANCH   1  15
ATOM     15  C   UNL     1      45.001   2.934  12.114  0.00  0.00    +0.000 C 
BRANCH  15  16
ATOM     16  N   UNL     1      44.689   3.997  13.090  0.00  0.00    +0.000 N 
ATOM     17  H   UNL     1      43.693   4.191  13.193  0.00  0.00    +0.000 HD
BRANCH  16  22
ATOM     18  C   UNL     1      46.057   7.460  12.894  0.00  0.00    +0.000 A 
ATOM     19  C   UNL     1      47.355   7.185  13.295  0.00  0.00    +0.000 A 
ATOM     20  N   UNL     1      47.780   5.952  13.646  0.00  0.00    +0.000 NA
ATOM     21  C   UNL     1      46.863   4.953  13.582  0.00  0.00    +0.000 A 
ATOM     22  C   UNL     1      45.520   5.107  13.217  0.00  0.00    +0.000 A 
ATOM     23  C   UNL     1      45.141   6.403  12.851  0.00  0.00    +0.000 A 
BRANCH  18  25
ATOM     24  N   UNL     1      45.357   9.854  12.216  0.00  0.00    +0.000 NA
ATOM     25  C   UNL     1      45.673   8.782  12.527  0.00  0.00    +0.000 C 
ENDBRANCH  18  25
ENDBRANCH  16  22
ENDBRANCH  15  16
ENDBRANCH   1  15
TORSDOF 6
ENDMDL
MODEL 2
REMARK VINA RESULT:    -7.848      0.802      1.811
REMARK INTER + INTRA:         -11.399
REMARK INTER:                 -10.651
REMARK INTRA:                  -0.748
REMARK UNBOUND:                -0.798
REMARK  Name = 
REMARK  6 active torsions:
REMARK  status: ('A' for Active; 'I' for Inactive)
REMARK    1  A    between atoms: C_2  and  C_3
REMARK    2  A    between atoms: C_7  and  N_8
REMARK    3  A    between atoms: N_8  and  C_9
REMARK    4  A    between atoms: C_9  and  C_10
REMARK    5  A    between atoms: C_10  and  C_13
REMARK    6  A    between atoms: C_17  and  C_18
REMARK                            x       y       z     vdW  Elec       q    Type
REMARK                         _______ _______ _______ _____ _____    ______ ____
ROOT
ATOM      1  C   UNL     1      44.081   2.938  10.894  0.00  0.00    +0.000 C 
ATOM      2  F   UNL     1      43.389   1.763  10.885  0.00  0.00    +0.000 F 
ATOM      3  F   UNL     1      43.135   3.913  11.064  0.00  0.00    +0.000 F 
ENDROOT
BRANCH   1   4
ATOM      4  C   UNL     1      44.894   3.138   9.628  0.00  0.00    +0.000 A 
ATOM      5  C   UNL     1      45.138   4.429   9.136  0.00  0.00    +0.000 A 
ATOM      6  C   UNL     1      45.962   4.623   8.027  0.00  0.00    +0.000 A 
ATOM      7  C   UNL     1      46.570   3.531   7.405  0.00  0.00    +0.000 A 
ATOM      8  C   UNL     1      46.340   2.235   7.880  0.00  0.00    +0.000 A 
ATOM      9  C   UNL     1      45.490   2.042   8.979  0.00  0.00    +0.000 A 
BRANCH   8  10
ATOM     10  C   UNL     1      47.054   1.052   7.325  0.00  0.00    +0.000 C 
ATOM     11  N   UNL     1      46.675  -0.186   7.757  0.00  0.00    +0.000 N 
ATOM     12  O   UNL     1      47.949   1.184   6.500  0.00  0.00    +0.000 OA
ATOM     13  H   UNL     1      46.078  -0.346   8.555  0.00  0.00    +0.000 HD
ATOM     14  H   UNL     1      47.199  -0.974   7.393  0.00  0.00    +0.000 HD
ENDBRANCH   8  10
ENDBRANCH   1   4
BRANCH   1  15
ATOM     15  C   UNL     1      45.025   2.967  12.127  0.00  0.00    +0.000 C 
BRANCH  15  16
ATOM     16  N   UNL     1      44.730   4.053  13.081  0.00  0.00    +0.000 N 
ATOM     17  H   UNL     1      43.742   4.141  13.321  0.00  0.00    +0.000 HD
BRANCH  16  22
ATOM     18  C   UNL     1      47.324   6.687  13.561  0.00  0.00    +0.000 A 
ATOM     19  C   UNL     1      46.608   7.765  13.064  0.00  0.00    +0.000 A 
ATOM     20  N   UNL     1      45.358   7.661  12.563  0.00  0.00    +0.000 NA
ATOM     21  C   UNL     1      44.802   6.422  12.573  0.00  0.00    +0.000 A 
ATOM     22  C   UNL     1      45.429   5.255  13.025  0.00  0.00    +0.000 A 
ATOM     23  C   UNL     1      46.717   5.427  13.545  0.00  0.00    +0.000 A 
BRANCH  18  25
ATOM     24  N   UNL     1      49.710   7.010  14.501  0.00  0.00    +0.000 NA
ATOM     25  C   UNL     1      48.637   6.865  14.086  0.00  0.00    +0.000 C 
ENDBRANCH  18  25
ENDBRANCH  16  22
ENDBRANCH  15  16
ENDBRANCH   1  15
TORSDOF 6
ENDMDL
MODEL 3
REMARK VINA RESULT:    -7.699      2.844      6.314
REMARK INTER + INTRA:         -11.197
REMARK INTER:                 -10.516
REMARK INTRA:                  -0.681
REMARK UNBOUND:                -0.798
REMARK  Name = 
REMARK  6 active torsions:
REMARK  status: ('A' for Active; 'I' for Inactive)
REMARK    1  A    between atoms: C_2  and  C_3
REMARK    2  A    between atoms: C_7  and  N_8
REMARK    3  A    between atoms: N_8  and  C_9
REMARK    4  A    between atoms: C_9  and  C_10
REMARK    5  A    between atoms: C_10  and  C_13
REMARK    6  A    between atoms: C_17  and  C_18
REMARK                            x       y       z     vdW  Elec       q    Type
REMARK                         _______ _______ _______ _____ _____    ______ ____
ROOT
ATOM      1  C   UNL     1      43.406   5.765  11.704  0.00  0.00    +0.000 C 
ATOM      2  F   UNL     1      42.962   6.918  11.127  0.00  0.00    +0.000 F 
ATOM      3  F   UNL     1      42.556   5.533  12.751  0.00  0.00    +0.000 F 
ENDROOT
BRANCH   1   4
ATOM      4  C   UNL     1      44.854   5.861  12.148  0.00  0.00    +0.000 A 
ATOM      5  C   UNL     1      45.677   6.892  11.670  0.00  0.00    +0.000 A 
ATOM      6  C   UNL     1      46.980   7.039  12.147  0.00  0.00    +0.000 A 
ATOM      7  C   UNL     1      47.473   6.171  13.123  0.00  0.00    +0.000 A 
ATOM      8  C   UNL     1      46.668   5.137  13.613  0.00  0.00    +0.000 A 
ATOM      9  C   UNL     1      45.368   4.976  13.112  0.00  0.00    +0.000 A 
BRANCH   8  10
ATOM     10  C   UNL     1      47.105   4.259  14.733  0.00  0.00    +0.000 C 
ATOM     11  N   UNL     1      47.103   4.779  15.995  0.00  0.00    +0.000 N 
ATOM     12  O   UNL     1      47.449   3.101  14.531  0.00  0.00    +0.000 OA
ATOM     13  H   UNL     1      47.004   5.762  16.198  0.00  0.00    +0.000 HD
ATOM     14  H   UNL     1      47.439   4.175  16.736  0.00  0.00    +0.000 HD
ENDBRANCH   8  10
ENDBRANCH   1   4
BRANCH   1  15
ATOM     15  C   UNL     1      43.250   4.595  10.693  0.00  0.00    +0.000 C 
BRANCH  15  16
ATOM     16  N   UNL     1      44.037   4.764   9.456  0.00  0.00    +0.000 N 
ATOM     17  H   UNL     1      43.578   5.333   8.744  0.00  0.00    +0.000 HD
BRANCH  16  22
ATOM     18  C   UNL     1      46.247   2.690   7.285  0.00  0.00    +0.000 A 
ATOM     19  C   UNL     1      46.119   1.487   7.961  0.00  0.00    +0.000 A 
ATOM     20  N   UNL     1      45.384   1.339   9.084  0.00  0.00    +0.000 NA
ATOM     21  C   UNL     1      44.744   2.446   9.540  0.00  0.00    +0.000 A 
ATOM     22  C   UNL     1      44.813   3.720   8.962  0.00  0.00    +0.000 A 
ATOM     23  C   UNL     1      45.578   3.809   7.794  0.00  0.00    +0.000 A 
BRANCH  18  25
ATOM     24  N   UNL     1      47.670   2.863   5.134  0.00  0.00    +0.000 NA
ATOM     25  C   UNL     1      47.031   2.779   6.099  0.00  0.00    +0.000 C 
ENDBRANCH  18  25
ENDBRANCH  16  22
ENDBRANCH  15  16
ENDBRANCH   1  15
TORSDOF 6
ENDMDL
MODEL 4
REMARK VINA RESULT:    -7.481      2.611      6.253
REMARK INTER + INTRA:         -10.903
REMARK INTER:                 -10.334
REMARK INTRA:                  -0.569
REMARK UNBOUND:                -0.798
REMARK  Name = 
REMARK  6 active torsions:
REMARK  status: ('A' for Active; 'I' for Inactive)
REMARK    1  A    between atoms: C_2  and  C_3
REMARK    2  A    between atoms: C_7  and  N_8
REMARK    3  A    between atoms: N_8  and  C_9
REMARK    4  A    between atoms: C_9  and  C_10
REMARK    5  A    between atoms: C_10  and  C_13
REMARK    6  A    between atoms: C_17  and  C_18
REMARK                            x       y       z     vdW  Elec       q    Type
REMARK                         _______ _______ _______ _____ _____    ______ ____
ROOT
ATOM      1  C   UNL     1      44.294   3.520  12.443  0.00  0.00    +0.000 C 
ATOM      2  F   UNL     1      43.447   3.351  13.498  0.00  0.00    +0.000 F 
ATOM      3  F   UNL     1      45.211   2.508  12.550  0.00  0.00    +0.000 F 
ENDROOT
BRANCH   1   4
ATOM      4  C   UNL     1      44.946   4.890  12.439  0.00  0.00    +0.000 A 
ATOM      5  C   UNL     1      44.242   6.011  11.975  0.00  0.00    +0.000 A 
ATOM      6  C   UNL     1      44.804   7.286  12.057  0.00  0.00    +0.000 A 
ATOM      7  C   UNL     1      46.069   7.461  12.620  0.00  0.00    +0.000 A 
ATOM      8  C   UNL     1      46.787   6.356  13.089  0.00  0.00    +0.000 A 
ATOM      9  C   UNL     1      46.231   5.073  12.981  0.00  0.00    +0.000 A 
BRANCH   8  10
ATOM     10  C   UNL     1      48.087   6.503  13.801  0.00  0.00    +0.000 C 
ATOM     11  N   UNL     1      48.065   6.594  15.163  0.00  0.00    +0.000 N 
ATOM     12  O   UNL     1      49.145   6.534  13.185  0.00  0.00    +0.000 OA
ATOM     13  H   UNL     1      47.229   6.753  15.703  0.00  0.00    +0.000 HD
ATOM     14  H   UNL     1      48.958   6.729  15.622  0.00  0.00    +0.000 HD
ENDBRANCH   8  10
ENDBRANCH   1   4
BRANCH   1  15
ATOM     15  C   UNL     1      43.508   3.315  11.119  0.00  0.00    +0.000 C 
BRANCH  15  16
ATOM     16  N   UNL     1      44.194   2.444  10.144  0.00  0.00    +0.000 N 
ATOM     17  H   UNL     1      44.513   1.555  10.530  0.00  0.00    +0.000 HD
BRANCH  16  22
ATOM     18  C   UNL     1      46.753   2.839   7.461  0.00  0.00    +0.000 A 
ATOM     19  C   UNL     1      46.796   4.223   7.428  0.00  0.00    +0.000 A 
ATOM     20  N   UNL     1      46.021   5.011   8.205  0.00  0.00    +0.000 NA
ATOM     21  C   UNL     1      45.174   4.377   9.057  0.00  0.00    +0.000 A 
ATOM     22  C   UNL     1      45.021   2.990   9.166  0.00  0.00    +0.000 A 
ATOM     23  C   UNL     1      45.860   2.226   8.347  0.00  0.00    +0.000 A 
BRANCH  18  25
ATOM     24  N   UNL     1      48.305   1.443   5.936  0.00  0.00    +0.000 NA
ATOM     25  C   UNL     1      47.605   2.064   6.622  0.00  0.00    +0.000 C 
ENDBRANCH  18  25
ENDBRANCH  16  22
ENDBRANCH  15  16
ENDBRANCH   1  15
TORSDOF 6
ENDMDL
MODEL 5
REMARK VINA RESULT:    -7.194      3.025      6.806
REMARK INTER + INTRA:         -10.516
REMARK INTER:                  -9.784
REMARK INTRA:                  -0.732
REMARK UNBOUND:                -0.798
REMARK  Name = 
REMARK  6 active torsions:
REMARK  status: ('A' for Active; 'I' for Inactive)
REMARK    1  A    between atoms: C_2  and  C_3
REMARK    2  A    between atoms: C_7  and  N_8
REMARK    3  A    between atoms: N_8  and  C_9
REMARK    4  A    between atoms: C_9  and  C_10
REMARK    5  A    between atoms: C_10  and  C_13
REMARK    6  A    between atoms: C_17  and  C_18
REMARK                            x       y       z     vdW  Elec       q    Type
REMARK                         _______ _______ _______ _____ _____    ______ ____
ROOT
ATOM      1  C   UNL     1      45.125   4.515  12.604  0.00  0.00    +0.000 C 
ATOM      2  F   UNL     1      44.397   4.541  13.757  0.00  0.00    +0.000 F 
ATOM      3  F   UNL     1      45.504   3.209  12.445  0.00  0.00    +0.000 F 
ENDROOT
BRANCH   1   4
ATOM      4  C   UNL     1      46.314   5.457  12.650  0.00  0.00    +0.000 A 
ATOM      5  C   UNL     1      46.573   6.328  11.581  0.00  0.00    +0.000 A 
ATOM      6  C   UNL     1      47.608   7.261  11.659  0.00  0.00    +0.000 A 
ATOM      7  C   UNL     1      48.387   7.350  12.815  0.00  0.00    +0.000 A 
ATOM      8  C   UNL     1      48.144   6.491  13.892  0.00  0.00    +0.000 A 
ATOM      9  C   UNL     1      47.120   5.537  13.800  0.00  0.00    +0.000 A 
BRANCH   8  10
ATOM     10  C   UNL     1      48.869   6.624  15.186  0.00  0.00    +0.000 C 
ATOM     11  N   UNL     1      49.473   7.815  15.464  0.00  0.00    +0.000 N 
ATOM     12  O   UNL     1      48.915   5.695  15.982  0.00  0.00    +0.000 OA
ATOM     13  H   UNL     1      49.620   8.544  14.782  0.00  0.00    +0.000 HD
ATOM     14  H   UNL     1      49.990   7.870  16.333  0.00  0.00    +0.000 HD
ENDBRANCH   8  10
ENDBRANCH   1   4
BRANCH   1  15
ATOM     15  C   UNL     1      44.207   4.896  11.410  0.00  0.00    +0.000 C 
BRANCH  15  16
ATOM     16  N   UNL     1      43.893   3.767  10.513  0.00  0.00    +0.000 N 
ATOM     17  H   UNL     1      43.494   2.956  10.985  0.00  0.00    +0.000 HD
BRANCH  16  22
ATOM     18  C   UNL     1      46.093   1.955   8.109  0.00  0.00    +0.000 A 
ATOM     19  C   UNL     1      46.562   3.051   7.402  0.00  0.00    +0.000 A 
ATOM     20  N   UNL     1      46.175   4.320   7.654  0.00  0.00    +0.000 NA
ATOM     21  C   UNL     1      45.286   4.493   8.665  0.00  0.00    +0.000 A 
ATOM     22  C   UNL     1      44.721   3.468   9.434  0.00  0.00    +0.000 A 
ATOM     23  C   UNL     1      45.170   2.177   9.137  0.00  0.00    +0.000 A 
BRANCH  18  25
ATOM     24  N   UNL     1      46.929  -0.428   7.557  0.00  0.00    +0.000 NA
ATOM     25  C   UNL     1      46.548   0.640   7.800  0.00  0.00    +0.000 C 
ENDBRANCH  18  25
ENDBRANCH  16  22
ENDBRANCH  15  16
ENDBRANCH   1  15
TORSDOF 6
ENDMDL
MODEL 6
REMARK VINA RESULT:    -7.108      2.845      6.808
REMARK INTER + INTRA:         -10.400
REMARK INTER:                  -9.735
REMARK INTRA:                  -0.665
REMARK UNBOUND:                -0.798
REMARK  Name = 
REMARK  6 active torsions:
REMARK  status: ('A' for Active; 'I' for Inactive)
REMARK    1  A    between atoms: C_2  and  C_3
REMARK    2  A    between atoms: C_7  and  N_8
REMARK    3  A    between atoms: N_8  and  C_9
REMARK    4  A    between atoms: C_9  and  C_10
REMARK    5  A    between atoms: C_10  and  C_13
REMARK    6  A    between atoms: C_17  and  C_18
REMARK                            x       y       z     vdW  Elec       q    Type
REMARK                         _______ _______ _______ _____ _____    ______ ____
ROOT
ATOM      1  C   UNL     1      43.476   5.193  12.090  0.00  0.00    +0.000 C 
ATOM      2  F   UNL     1      42.594   6.031  11.472  0.00  0.00    +0.000 F 
ATOM      3  F   UNL     1      42.823   4.739  13.204  0.00  0.00    +0.000 F 
ENDROOT
BRANCH   1   4
ATOM      4  C   UNL     1      44.785   5.882  12.430  0.00  0.00    +0.000 A 
ATOM      5  C   UNL     1      45.932   5.127  12.717  0.00  0.00    +0.000 A 
ATOM      6  C   UNL     1      47.158   5.754  12.938  0.00  0.00    +0.000 A 
ATOM      7  C   UNL     1      47.261   7.144  12.856  0.00  0.00    +0.000 A 
ATOM      8  C   UNL     1      46.129   7.915  12.570  0.00  0.00    +0.000 A 
ATOM      9  C   UNL     1      44.892   7.283  12.375  0.00  0.00    +0.000 A 
BRANCH   8  10
ATOM     10  C   UNL     1      46.209   9.387  12.358  0.00  0.00    +0.000 C 
ATOM     11  N   UNL     1      45.064  10.117  12.493  0.00  0.00    +0.000 N 
ATOM     12  O   UNL     1      47.271   9.928  12.079  0.00  0.00    +0.000 OA
ATOM     13  H   UNL     1      44.141   9.713  12.544  0.00  0.00    +0.000 HD
ATOM     14  H   UNL     1      45.135  11.112  12.309  0.00  0.00    +0.000 HD
ENDBRANCH   8  10
ENDBRANCH   1   4
BRANCH   1  15
ATOM     15  C   UNL     1      43.754   3.974  11.169  0.00  0.00    +0.000 C 
BRANCH  15  16
ATOM     16  N   UNL     1      43.751   4.299   9.729  0.00  0.00    +0.000 N 
ATOM     17  H   UNL     1      42.823   4.315   9.306  0.00  0.00    +0.000 HD
BRANCH  16  22
ATOM     18  C   UNL     1      46.190   2.088   7.978  0.00  0.00    +0.000 A 
ATOM     19  C   UNL     1      46.972   3.074   7.397  0.00  0.00    +0.000 A 
ATOM     20  N   UNL     1      46.722   4.394   7.527  0.00  0.00    +0.000 NA
ATOM     21  C   UNL     1      45.645   4.737   8.280  0.00  0.00    +0.000 A 
ATOM     22  C   UNL     1      44.767   3.838   8.897  0.00  0.00    +0.000 A 
ATOM     23  C   UNL     1      45.084   2.484   8.739  0.00  0.00    +0.000 A 
BRANCH  18  25
ATOM     24  N   UNL     1      46.775  -0.410   7.663  0.00  0.00    +0.000 NA
ATOM     25  C   UNL     1      46.513   0.710   7.811  0.00  0.00    +0.000 C 
ENDBRANCH  18  25
ENDBRANCH  16  22
ENDBRANCH  15  16
ENDBRANCH   1  15
TORSDOF 6
ENDMDL
MODEL 7
REMARK VINA RESULT:    -6.812      1.847      2.931
REMARK INTER + INTRA:         -10.000
REMARK INTER:                  -9.672
REMARK INTRA:                  -0.328
REMARK UNBOUND:                -0.798
REMARK  Name = 
REMARK  6 active torsions:
REMARK  status: ('A' for Active; 'I' for Inactive)
REMARK    1  A    between atoms: C_2  and  C_3
REMARK    2  A    between atoms: C_7  and  N_8
REMARK    3  A    between atoms: N_8  and  C_9
REMARK    4  A    between atoms: C_9  and  C_10
REMARK    5  A    between atoms: C_10  and  C_13
REMARK    6  A    between atoms: C_17  and  C_18
REMARK                            x       y       z     vdW  Elec       q    Type
REMARK                         _______ _______ _______ _____ _____    ______ ____
ROOT
ATOM      1  C   UNL     1      44.430   3.477  11.413  0.00  0.00    +0.000 C 
ATOM      2  F   UNL     1      44.965   2.486  12.182  0.00  0.00    +0.000 F 
ATOM      3  F   UNL     1      43.081   3.248  11.414  0.00  0.00    +0.000 F 
ENDROOT
BRANCH   1   4
ATOM      4  C   UNL     1      45.010   3.495  10.010  0.00  0.00    +0.000 A 
ATOM      5  C   UNL     1      45.132   4.703   9.307  0.00  0.00    +0.000 A 
ATOM      6  C   UNL     1      45.749   4.737   8.056  0.00  0.00    +0.000 A 
ATOM      7  C   UNL     1      46.271   3.568   7.498  0.00  0.00    +0.000 A 
ATOM      8  C   UNL     1      46.160   2.354   8.184  0.00  0.00    +0.000 A 
ATOM      9  C   UNL     1      45.515   2.319   9.429  0.00  0.00    +0.000 A 
BRANCH   8  10
ATOM     10  C   UNL     1      46.799   1.105   7.686  0.00  0.00    +0.000 C 
ATOM     11  N   UNL     1      47.843   1.222   6.814  0.00  0.00    +0.000 N 
ATOM     12  O   UNL     1      46.407   0.005   8.053  0.00  0.00    +0.000 OA
ATOM     13  H   UNL     1      48.090   2.080   6.344  0.00  0.00    +0.000 HD
ATOM     14  H   UNL     1      48.239   0.359   6.461  0.00  0.00    +0.000 HD
ENDBRANCH   8  10
ENDBRANCH   1   4
BRANCH   1  15
ATOM     15  C   UNL     1      44.683   4.849  12.097  0.00  0.00    +0.000 C 
BRANCH  15  16
ATOM     16  N   UNL     1      46.098   5.270  12.088  0.00  0.00    +0.000 N 
ATOM     17  H   UNL     1      46.614   4.983  11.256  0.00  0.00    +0.000 HD
BRANCH  16  22
ATOM     18  C   UNL     1      47.296   4.565  15.548  0.00  0.00    +0.000 A 
ATOM     19  C   UNL     1      48.242   5.573  15.641  0.00  0.00    +0.000 A 
ATOM     20  N   UNL     1      48.518   6.430  14.634  0.00  0.00    +0.000 NA
ATOM     21  C   UNL     1      47.804   6.271  13.490  0.00  0.00    +0.000 A 
ATOM     22  C   UNL     1      46.841   5.280  13.265  0.00  0.00    +0.000 A 
ATOM     23  C   UNL     1      46.588   4.431  14.348  0.00  0.00    +0.000 A 
BRANCH  18  25
ATOM     24  N   UNL     1      46.848   2.986  17.545  0.00  0.00    +0.000 NA
ATOM     25  C   UNL     1      47.044   3.699  16.651  0.00  0.00    +0.000 C 
ENDBRANCH  18  25
ENDBRANCH  16  22
ENDBRANCH  15  16
ENDBRANCH   1  15
TORSDOF 6
ENDMDL
MODEL 8
REMARK VINA RESULT:    -6.741      3.043      6.441
REMARK INTER + INTRA:          -9.903
REMARK INTER:                  -9.190
REMARK INTRA:                  -0.713
REMARK UNBOUND:                -0.798
REMARK  Name = 
REMARK  6 active torsions:
REMARK  status: ('A' for Active; 'I' for Inactive)
REMARK    1  A    between atoms: C_2  and  C_3
REMARK    2  A    between atoms: C_7  and  N_8
REMARK    3  A    between atoms: N_8  and  C_9
REMARK    4  A    between atoms: C_9  and  C_10
REMARK    5  A    between atoms: C_10  and  C_13
REMARK    6  A    between atoms: C_17  and  C_18
REMARK                            x       y       z     vdW  Elec       q    Type
REMARK                         _______ _______ _______ _____ _____    ______ ____
ROOT
ATOM      1  C   UNL     1      45.152   7.118  11.600  0.00  0.00    +0.000 C 
ATOM      2  F   UNL     1      45.602   7.100  10.313  0.00  0.00    +0.000 F 
ATOM      3  F   UNL     1      44.595   8.357  11.771  0.00  0.00    +0.000 F 
ENDROOT
BRANCH   1   4
ATOM      4  C   UNL     1      46.257   6.840  12.602  0.00  0.00    +0.000 A 
ATOM      5  C   UNL     1      47.178   7.842  12.943  0.00  0.00    +0.000 A 
ATOM      6  C   UNL     1      48.136   7.619  13.932  0.00  0.00    +0.000 A 
ATOM      7  C   UNL     1      48.177   6.399  14.609  0.00  0.00    +0.000 A 
ATOM      8  C   UNL     1      47.267   5.387  14.285  0.00  0.00    +0.000 A 
ATOM      9  C   UNL     1      46.322   5.604  13.272  0.00  0.00    +0.000 A 
BRANCH   8  10
ATOM     10  C   UNL     1      47.195   4.114  15.055  0.00  0.00    +0.000 C 
ATOM     11  N   UNL     1      46.865   4.182  16.377  0.00  0.00    +0.000 N 
ATOM     12  O   UNL     1      47.417   3.037  14.517  0.00  0.00    +0.000 OA
ATOM     13  H   UNL     1      46.847   5.039  16.910  0.00  0.00    +0.000 HD
ATOM     14  H   UNL     1      46.857   3.308  16.889  0.00  0.00    +0.000 HD
ENDBRANCH   8  10
ENDBRANCH   1   4
BRANCH   1  15
ATOM     15  C   UNL     1      44.025   6.061  11.763  0.00  0.00    +0.000 C 
BRANCH  15  16
ATOM     16  N   UNL     1      43.554   5.488  10.487  0.00  0.00    +0.000 N 
ATOM     17  H   UNL     1      42.542   5.531  10.358  0.00  0.00    +0.000 HD
BRANCH  16  22
ATOM     18  C   UNL     1      45.396   3.187   8.204  0.00  0.00    +0.000 A 
ATOM     19  C   UNL     1      45.125   1.997   8.859  0.00  0.00    +0.000 A 
ATOM     20  N   UNL     1      44.410   1.922  10.002  0.00  0.00    +0.000 NA
ATOM     21  C   UNL     1      43.940   3.095  10.501  0.00  0.00    +0.000 A 
ATOM     22  C   UNL     1      44.166   4.361   9.947  0.00  0.00    +0.000 A 
ATOM     23  C   UNL     1      44.901   4.374   8.757  0.00  0.00    +0.000 A 
BRANCH  18  25
ATOM     24  N   UNL     1      46.770   3.198   6.015  0.00  0.00    +0.000 NA
ATOM     25  C   UNL     1      46.149   3.198   6.995  0.00  0.00    +0.000 C 
ENDBRANCH  18  25
ENDBRANCH  16  22
ENDBRANCH  15  16
ENDBRANCH   1  15
TORSDOF 6
ENDMDL
MODEL 9
REMARK VINA RESULT:    -6.641      3.393      7.247
REMARK INTER + INTRA:          -9.768
REMARK INTER:                  -9.185
REMARK INTRA:                  -0.583
REMARK UNBOUND:                -0.798
REMARK  Name = 
REMARK  6 active torsions:
REMARK  status: ('A' for Active; 'I' for Inactive)
REMARK    1  A    between atoms: C_2  and  C_3
REMARK    2  A    between atoms: C_7  and  N_8
REMARK    3  A    between atoms: N_8  and  C_9
REMARK    4  A    between atoms: C_9  and  C_10
REMARK    5  A    between atoms: C_10  and  C_13
REMARK    6  A    between atoms: C_17  and  C_18
REMARK                            x       y       z     vdW  Elec       q    Type
REMARK                         _______ _______ _______ _____ _____    ______ ____
ROOT
ATOM      1  C   UNL     1      45.155   5.865  11.700  0.00  0.00    +0.000 C 
ATOM      2  F   UNL     1      44.794   5.301  12.889  0.00  0.00    +0.000 F 
ATOM      3  F   UNL     1      46.455   5.488  11.500  0.00  0.00    +0.000 F 
ENDROOT
BRANCH   1   4
ATOM      4  C   UNL     1      44.986   7.373  11.701  0.00  0.00    +0.000 A 
ATOM      5  C   UNL     1      46.037   8.206  12.111  0.00  0.00    +0.000 A 
ATOM      6  C   UNL     1      45.919   9.594  12.025  0.00  0.00    +0.000 A 
ATOM      7  C   UNL     1      44.756  10.169  11.510  0.00  0.00    +0.000 A 
ATOM      8  C   UNL     1      43.696   9.355  11.095  0.00  0.00    +0.000 A 
ATOM      9  C   UNL     1      43.808   7.962  11.208  0.00  0.00    +0.000 A 
BRANCH   8  10
ATOM     10  C   UNL     1      42.484   9.914  10.434  0.00  0.00    +0.000 C 
ATOM     11  N   UNL     1      41.269   9.662  11.004  0.00  0.00    +0.000 N 
ATOM     12  O   UNL     1      42.573  10.585   9.415  0.00  0.00    +0.000 OA
ATOM     13  H   UNL     1      41.118   8.978  11.730  0.00  0.00    +0.000 HD
ATOM     14  H   UNL     1      40.456  10.022  10.517  0.00  0.00    +0.000 HD
ENDBRANCH   8  10
ENDBRANCH   1   4
BRANCH   1  15
ATOM     15  C   UNL     1      44.297   5.248  10.561  0.00  0.00    +0.000 C 
BRANCH  15  16
ATOM     16  N   UNL     1      45.026   5.076   9.289  0.00  0.00    +0.000 N 
ATOM     17  H   UNL     1      44.697   5.678   8.534  0.00  0.00    +0.000 HD
BRANCH  16  22
ATOM     18  C   UNL     1      46.678   2.315   7.406  0.00  0.00    +0.000 A 
ATOM     19  C   UNL     1      46.058   1.246   8.033  0.00  0.00    +0.000 A 
ATOM     20  N   UNL     1      45.169   1.388   9.040  0.00  0.00    +0.000 NA
ATOM     21  C   UNL     1      44.887   2.659   9.425  0.00  0.00    +0.000 A 
ATOM     22  C   UNL     1      45.463   3.817   8.888  0.00  0.00    +0.000 A 
ATOM     23  C   UNL     1      46.365   3.608   7.839  0.00  0.00    +0.000 A 
BRANCH  18  25
ATOM     24  N   UNL     1      48.341   1.921   5.466  0.00  0.00    +0.000 NA
ATOM     25  C   UNL     1      47.600   2.099   6.341  0.00  0.00    +0.000 C 
ENDBRANCH  18  25
ENDBRANCH  16  22
ENDBRANCH  15  16
ENDBRANCH   1  15
TORSDOF 6
ENDMDL
