MODEL 1
REMARK VINA RESULT:    -7.550      0.000      0.000
REMARK INTER + INTRA:         -10.317
REMARK INTER:                  -9.756
REMARK INTRA:                  -0.561
REMARK UNBOUND:                -0.561
REMARK  Name = 
REMARK  6 active torsions:
REMARK  status: ('A' for Active; 'I' for Inactive)
REMARK    1  A    between atoms: C_1  and  C_2
REMARK    2  A    between atoms: C_2  and  C_3
REMARK    3  A    between atoms: C_2  and  C_14
REMARK    4  A    between atoms: C_3  and  N_4
REMARK    5  A    between atoms: N_4  and  C_5
REMARK    6  A    between atoms: C_8  and  C_9
REMARK                            x       y       z     vdW  Elec       q    Type
REMARK                         _______ _______ _______ _____ _____    ______ ____
ROOT
ATOM      1  N   UNL     1      43.742   3.605  10.450  0.00  0.00    +0.000 N 
ATOM      2  H   UNL     1      43.447   4.581  10.402  0.00  0.00    +0.000 HD
ENDROOT
BRANCH   1   3
ATOM      3  C   UNL     1      44.673   3.296   9.452  0.00  0.00    +0.000 A 
ATOM      4  C   UNL     1      45.151   2.019   9.195  0.00  0.00    +0.000 A 
ATOM      5  N   UNL     1      46.038   1.700   8.234  0.00  0.00    +0.000 NA
ATOM      6  C   UNL     1      46.429   2.731   7.446  0.00  0.00    +0.000 A 
ATOM      7  N   UNL     1      45.989   3.998   7.533  0.00  0.00    +0.000 NA
ATOM      8  C   UNL     1      45.103   4.237   8.526  0.00  0.00    +0.000 A 
BRANCH   6   9
ATOM      9  C   UNL     1      47.475   2.395   6.411  0.00  0.00    +0.000 C 
ATOM     10  N   UNL     1      47.441   3.174   5.275  0.00  0.00    +0.000 N 
ATOM     11  O   UNL     1      48.300   1.496   6.526  0.00  0.00    +0.000 OA
ATOM     12  H   UNL     1      46.750   3.912   5.190  0.00  0.00    +0.000 HD
ATOM     13  H   UNL     1      48.106   3.002   4.538  0.00  0.00    +0.000 HD
ENDBRANCH   6   9
ENDBRANCH   1   3
BRANCH   1  14
ATOM     14  C   UNL     1      44.116   3.237  11.815  0.00  0.00    +0.000 C 
BRANCH  14  16
ATOM     15  C   UNL     1      42.961   5.220  12.964  0.00  0.00    +0.000 C 
ATOM     16  C   UNL     1      44.223   4.499  12.610  0.00  0.00    +0.000 C 
BRANCH  16  17
ATOM     17  C   UNL     1      45.517   5.190  12.681  0.00  0.00    +0.000 A 
ATOM     18  C   UNL     1      45.894   6.126  11.708  0.00  0.00    +0.000 A 
ATOM     19  C   UNL     1      47.105   6.815  11.822  0.00  0.00    +0.000 A 
ATOM     20  C   UNL     1      47.943   6.576  12.908  0.00  0.00    +0.000 A 
ATOM     21  C   UNL     1      47.582   5.641  13.874  0.00  0.00    +0.000 A 
ATOM     22  C   UNL     1      46.380   4.946  13.755  0.00  0.00    +0.000 A 
ENDBRANCH  16  17
ENDBRANCH  14  16
ENDBRANCH   1  14
TORSDOF 5
ENDMDL
MODEL 2
REMARK VINA RESULT:    -7.250      1.339      1.997
REMARK INTER + INTRA:          -9.930
REMARK INTER:                  -9.367
REMARK INTRA:                  -0.562
REMARK UNBOUND:                -0.561
REMARK  Name = 
REMARK  6 active torsions:
REMARK  status: ('A' for Active; 'I' for Inactive)
REMARK    1  A    between atoms: C_1  and  C_2
REMARK    2  A    between atoms: C_2  and  C_3
REMARK    3  A    between atoms: C_2  and  C_14
REMARK    4  A    between atoms: C_3  and  N_4
REMARK    5  A    between atoms: N_4  and  C_5
REMARK    6  A    between atoms: C_8  and  C_9
REMARK                            x       y       z     vdW  Elec       q    Type
REMARK                         _______ _______ _______ _____ _____    ______ ____
ROOT
ATOM      1  N   UNL     1      44.012   5.018   9.949  0.00  0.00    +0.000 N 
ATOM      2  H   UNL     1      44.332   5.956   9.706  0.00  0.00    +0.000 HD
ENDROOT
BRANCH   1   3
ATOM      3  C   UNL     1      44.771   4.030   9.313  0.00  0.00    +0.000 A 
ATOM      4  C   UNL     1      44.604   2.667   9.508  0.00  0.00    +0.000 A 
ATOM      5  N   UNL     1      45.317   1.701   8.898  0.00  0.00    +0.000 NA
ATOM      6  C   UNL     1      46.225   2.140   7.994  0.00  0.00    +0.000 A 
ATOM      7  N   UNL     1      46.437   3.422   7.650  0.00  0.00    +0.000 NA
ATOM      8  C   UNL     1      45.684   4.331   8.310  0.00  0.00    +0.000 A 
BRANCH   6   9
ATOM      9  C   UNL     1      47.076   1.068   7.357  0.00  0.00    +0.000 C 
ATOM     10  N   UNL     1      46.718  -0.224   7.674  0.00  0.00    +0.000 N 
ATOM     11  O   UNL     1      48.030   1.288   6.619  0.00  0.00    +0.000 OA
ATOM     12  H   UNL     1      45.929  -0.393   8.289  0.00  0.00    +0.000 HD
ATOM     13  H   UNL     1      47.246  -0.991   7.289  0.00  0.00    +0.000 HD
ENDBRANCH   6   9
ENDBRANCH   1   3
BRANCH   1  14
ATOM     14  C   UNL     1      43.854   4.876  11.396  0.00  0.00    +0.000 C 
BRANCH  14  16
ATOM     15  C   UNL     1      45.730   3.975  12.899  0.00  0.00    +0.000 C 
ATOM     16  C   UNL     1      45.202   5.061  12.017  0.00  0.00    +0.000 C 
BRANCH  16  17
ATOM     17  C   UNL     1      45.783   6.409  12.072  0.00  0.00    +0.000 A 
ATOM     18  C   UNL     1      45.011   7.516  12.451  0.00  0.00    +0.000 A 
ATOM     19  C   UNL     1      45.594   8.783  12.551  0.00  0.00    +0.000 A 
ATOM     20  C   UNL     1      46.950   8.950  12.278  0.00  0.00    +0.000 A 
ATOM     21  C   UNL     1      47.721   7.859  11.891  0.00  0.00    +0.000 A 
ATOM     22  C   UNL     1      47.138   6.597  11.780  0.00  0.00    +0.000 A 
ENDBRANCH  16  17
ENDBRANCH  14  16
ENDBRANCH   1  14
TORSDOF 5
ENDMDL
MODEL 3
REMARK VINA RESULT:    -7.198      3.331      6.738
REMARK INTER + INTRA:          -9.862
REMARK INTER:                  -9.685
REMARK INTRA:                  -0.178
REMARK UNBOUND:                -0.561
REMARK  Name = 
REMARK  6 active torsions:
REMARK  status: ('A' for Active; 'I' for Inactive)
REMARK    1  A    between atoms: C_1  and  C_2
REMARK    2  A    between atoms: C_2  and  C_3
REMARK    3  A    between atoms: C_2  and  C_14
REMARK    4  A    between atoms: C_3  and  N_4
REMARK    5  A    between atoms: N_4  and  C_5
REMARK    6  A    between atoms: C_8  and  C_9
REMARK                            x       y       z     vdW  Elec       q    Type
REMARK                         _______ _______ _______ _____ _____    ______ ____
ROOT
ATOM      1  N   UNL     1      44.902   5.469  10.607  0.00  0.00    +0.000 N 
ATOM      2  H   UNL     1      43.989   5.012  10.595  0.00  0.00    +0.000 HD
ENDROOT
BRANCH   1   3
ATOM      3  C   UNL     1      45.564   5.274  11.825  0.00  0.00    +0.000 A 
ATOM      4  C   UNL     1      46.502   6.147  12.355  0.00  0.00    +0.000 A 
ATOM      5  N   UNL     1      47.141   5.983  13.528  0.00  0.00    +0.000 NA
ATOM      6  C   UNL     1      46.771   4.889  14.237  0.00  0.00    +0.000 A 
ATOM      7  N   UNL     1      45.824   4.004  13.881  0.00  0.00    +0.000 NA
ATOM      8  C   UNL     1      45.232   4.238  12.687  0.00  0.00    +0.000 A 
BRANCH   6   9
ATOM      9  C   UNL     1      47.532   4.660  15.520  0.00  0.00    +0.000 C 
ATOM     10  N   UNL     1      46.969   3.735  16.373  0.00  0.00    +0.000 N 
ATOM     11  O   UNL     1      48.567   5.241  15.825  0.00  0.00    +0.000 OA
ATOM     12  H   UNL     1      46.110   3.264  16.112  0.00  0.00    +0.000 HD
ATOM     13  H   UNL     1      47.420   3.537  17.252  0.00  0.00    +0.000 HD
ENDBRANCH   6   9
ENDBRANCH   1   3
BRANCH   1  14
ATOM     14  C   UNL     1      45.665   5.147   9.401  0.00  0.00    +0.000 C 
BRANCH  14  16
ATOM     15  C   UNL     1      44.086   3.140   9.658  0.00  0.00    +0.000 C 
ATOM     16  C   UNL     1      45.181   3.823   8.902  0.00  0.00    +0.000 C 
BRANCH  16  17
ATOM     17  C   UNL     1      46.018   3.066   7.962  0.00  0.00    +0.000 A 
ATOM     18  C   UNL     1      46.332   1.720   8.194  0.00  0.00    +0.000 A 
ATOM     19  C   UNL     1      47.084   0.999   7.260  0.00  0.00    +0.000 A 
ATOM     20  C   UNL     1      47.521   1.617   6.091  0.00  0.00    +0.000 A 
ATOM     21  C   UNL     1      47.223   2.956   5.858  0.00  0.00    +0.000 A 
ATOM     22  C   UNL     1      46.483   3.678   6.793  0.00  0.00    +0.000 A 
ENDBRANCH  16  17
ENDBRANCH  14  16
ENDBRANCH   1  14
TORSDOF 5
ENDMDL
MODEL 4
REMARK VINA RESULT:    -6.882      3.590      5.789
REMARK INTER + INTRA:          -9.454
REMARK INTER:                  -8.768
REMARK INTRA:                  -0.686
REMARK UNBOUND:                -0.561
REMARK  Name = 
REMARK  6 active torsions:
REMARK  status: ('A' for Active; 'I' for Inactive)
REMARK    1  A    between atoms: C_1  and  C_2
REMARK    2  A    between atoms: C_2  and  C_3
REMARK    3  A    between atoms: C_2  and  C_14
REMARK    4  A    between atoms: C_3  and  N_4
REMARK    5  A    between atoms: N_4  and  C_5
REMARK    6  A    between atoms: C_8  and  C_9
REMARK                            x       y       z     vdW  Elec       q    Type
REMARK                         _______ _______ _______ _____ _____    ______ ____
ROOT
ATOM      1  N   UNL     1      43.903   5.416  12.418  0.00  0.00    +0.000 N 
ATOM      2  H   UNL     1      43.630   4.617  12.992  0.00  0.00    +0.000 HD
ENDROOT
BRANCH   1   3
ATOM      3  C   UNL     1      45.233   5.787  12.646  0.00  0.00    +0.000 A 
ATOM      4  C   UNL     1      46.093   5.127  13.510  0.00  0.00    +0.000 A 
ATOM      5  N   UNL     1      47.378   5.462  13.735  0.00  0.00    +0.000 NA
ATOM      6  C   UNL     1      47.838   6.504  13.000  0.00  0.00    +0.000 A 
ATOM      7  N   UNL     1      47.139   7.183  12.074  0.00  0.00    +0.000 NA
ATOM      8  C   UNL     1      45.856   6.787  11.911  0.00  0.00    +0.000 A 
BRANCH   6   9
ATOM      9  C   UNL     1      49.256   6.930  13.296  0.00  0.00    +0.000 C 
ATOM     10  N   UNL     1      50.012   7.242  12.188  0.00  0.00    +0.000 N 
ATOM     11  O   UNL     1      49.739   6.993  14.420  0.00  0.00    +0.000 OA
ATOM     12  H   UNL     1      49.602   7.182  11.263  0.00  0.00    +0.000 HD
ATOM     13  H   UNL     1      50.971   7.529  12.310  0.00  0.00    +0.000 HD
ENDBRANCH   6   9
ENDBRANCH   1   3
BRANCH   1  14
ATOM     14  C   UNL     1      43.523   5.212  11.021  0.00  0.00    +0.000 C 
BRANCH  14  16
ATOM     15  C   UNL     1      43.378   2.737  11.686  0.00  0.00    +0.000 C 
ATOM     16  C   UNL     1      43.780   3.777  10.688  0.00  0.00    +0.000 C 
BRANCH  16  17
ATOM     17  C   UNL     1      44.736   3.451   9.623  0.00  0.00    +0.000 A 
ATOM     18  C   UNL     1      45.064   2.122   9.324  0.00  0.00    +0.000 A 
ATOM     19  C   UNL     1      45.934   1.828   8.270  0.00  0.00    +0.000 A 
ATOM     20  C   UNL     1      46.477   2.859   7.507  0.00  0.00    +0.000 A 
ATOM     21  C   UNL     1      46.165   4.182   7.802  0.00  0.00    +0.000 A 
ATOM     22  C   UNL     1      45.306   4.477   8.860  0.00  0.00    +0.000 A 
ENDBRANCH  16  17
ENDBRANCH  14  16
ENDBRANCH   1  14
TORSDOF 5
ENDMDL
MODEL 5
REMARK VINA RESULT:    -6.746      3.553      6.369
REMARK INTER + INTRA:          -9.278
REMARK INTER:                  -8.822
REMARK INTRA:                  -0.456
REMARK UNBOUND:                -0.561
REMARK  Name = 
REMARK  6 active torsions:
REMARK  status: ('A' for Active; 'I' for Inactive)
REMARK    1  A    between atoms: C_1  and  C_2
REMARK    2  A    between atoms: C_2  and  C_3
REMARK    3  A    between atoms: C_2  and  C_14
REMARK    4  A    between atoms: C_3  and  N_4
REMARK    5  A    between atoms: N_4  and  C_5
REMARK    6  A    between atoms: C_8  and  C_9
REMARK                            x       y       z     vdW  Elec       q    Type
REMARK                         _______ _______ _______ _____ _____    ______ ____
ROOT
ATOM      1  N   UNL     1      44.747   4.605  11.318  0.00  0.00    +0.000 N 
ATOM      2  H   UNL     1      44.547   3.662  11.655  0.00  0.00    +0.000 HD
ENDROOT
BRANCH   1   3
ATOM      3  C   UNL     1      45.796   5.198  12.029  0.00  0.00    +0.000 A 
ATOM      4  C   UNL     1      46.368   4.662  13.173  0.00  0.00    +0.000 A 
ATOM      5  N   UNL     1      47.384   5.212  13.865  0.00  0.00    +0.000 NA
ATOM      6  C   UNL     1      47.888   6.354  13.337  0.00  0.00    +0.000 A 
ATOM      7  N   UNL     1      47.482   6.940  12.198  0.00  0.00    +0.000 NA
ATOM      8  C   UNL     1      46.456   6.328  11.565  0.00  0.00    +0.000 A 
BRANCH   6   9
ATOM      9  C   UNL     1      48.980   7.013  14.144  0.00  0.00    +0.000 C 
ATOM     10  N   UNL     1      49.370   8.255  13.690  0.00  0.00    +0.000 N 
ATOM     11  O   UNL     1      49.516   6.511  15.126  0.00  0.00    +0.000 OA
ATOM     12  H   UNL     1      48.922   8.657  12.874  0.00  0.00    +0.000 HD
ATOM     13  H   UNL     1      50.099   8.751  14.177  0.00  0.00    +0.000 HD
ENDBRANCH   6   9
ENDBRANCH   1   3
BRANCH   1  14
ATOM     14  C   UNL     1      44.865   4.626   9.860  0.00  0.00    +0.000 C 
BRANCH  14  16
ATOM     15  C   UNL     1      44.102   2.208  10.262  0.00  0.00    +0.000 C 
ATOM     16  C   UNL     1      44.773   3.213   9.379  0.00  0.00    +0.000 C 
BRANCH  16  17
ATOM     17  C   UNL     1      45.651   2.772   8.287  0.00  0.00    +0.000 A 
ATOM     18  C   UNL     1      46.015   3.645   7.253  0.00  0.00    +0.000 A 
ATOM     19  C   UNL     1      46.896   3.225   6.252  0.00  0.00    +0.000 A 
ATOM     20  C   UNL     1      47.419   1.935   6.280  0.00  0.00    +0.000 A 
ATOM     21  C   UNL     1      47.055   1.058   7.297  0.00  0.00    +0.000 A 
ATOM     22  C   UNL     1      46.168   1.472   8.290  0.00  0.00    +0.000 A 
ENDBRANCH  16  17
ENDBRANCH  14  16
ENDBRANCH   1  14
TORSDOF 5
ENDMDL
MODEL 6
REMARK VINA RESULT:    -6.565      3.902      6.603
REMARK INTER + INTRA:          -9.045
REMARK INTER:                  -8.781
REMARK INTRA:                  -0.264
REMARK UNBOUND:                -0.561
REMARK  Name = 
REMARK  6 active torsions:
REMARK  status: ('A' for Active; 'I' for Inactive)
REMARK    1  A    between atoms: C_1  and  C_2
REMARK    2  A    between atoms: C_2  and  C_3
REMARK    3  A    between atoms: C_2  and  C_14
REMARK    4  A    between atoms: C_3  and  N_4
REMARK    5  A    between atoms: N_4  and  C_5
REMARK    6  A    between atoms: C_8  and  C_9
REMARK                            x       y       z     vdW  Elec       q    Type
REMARK                         _______ _______ _______ _____ _____    ______ ____
ROOT
ATOM      1  N   UNL     1      46.410   5.799  11.577  0.00  0.00    +0.000 N 
ATOM      2  H   UNL     1      47.092   6.475  11.230  0.00  0.00    +0.000 HD
ENDROOT
BRANCH   1   3
ATOM      3  C   UNL     1      46.745   5.333  12.853  0.00  0.00    +0.000 A 
ATOM      4  C   UNL     1      46.431   4.070  13.332  0.00  0.00    +0.000 A 
ATOM      5  N   UNL     1      46.753   3.599  14.552  0.00  0.00    +0.000 NA
ATOM      6  C   UNL     1      47.484   4.443  15.320  0.00  0.00    +0.000 A 
ATOM      7  N   UNL     1      47.921   5.660  14.955  0.00  0.00    +0.000 NA
ATOM      8  C   UNL     1      47.553   6.061  13.716  0.00  0.00    +0.000 A 
BRANCH   6   9
ATOM      9  C   UNL     1      47.790   3.950  16.714  0.00  0.00    +0.000 C 
ATOM     10  N   UNL     1      46.785   3.215  17.304  0.00  0.00    +0.000 N 
ATOM     11  O   UNL     1      48.833   4.177  17.316  0.00  0.00    +0.000 OA
ATOM     12  H   UNL     1      45.924   3.038  16.798  0.00  0.00    +0.000 HD
ATOM     13  H   UNL     1      46.917   2.859  18.238  0.00  0.00    +0.000 HD
ENDBRANCH   6   9
ENDBRANCH   1   3
BRANCH   1  14
ATOM     14  C   UNL     1      45.045   6.300  11.412  0.00  0.00    +0.000 C 
BRANCH  14  16
ATOM     15  C   UNL     1      42.955   4.813  11.508  0.00  0.00    +0.000 C 
ATOM     16  C   UNL     1      44.228   5.195  10.822  0.00  0.00    +0.000 C 
BRANCH  16  17
ATOM     17  C   UNL     1      44.855   4.280   9.859  0.00  0.00    +0.000 A 
ATOM     18  C   UNL     1      44.732   2.890   9.994  0.00  0.00    +0.000 A 
ATOM     19  C   UNL     1      45.288   2.036   9.037  0.00  0.00    +0.000 A 
ATOM     20  C   UNL     1      45.965   2.563   7.941  0.00  0.00    +0.000 A 
ATOM     21  C   UNL     1      46.101   3.941   7.803  0.00  0.00    +0.000 A 
ATOM     22  C   UNL     1      45.556   4.794   8.762  0.00  0.00    +0.000 A 
ENDBRANCH  16  17
ENDBRANCH  14  16
ENDBRANCH   1  14
TORSDOF 5
ENDMDL
MODEL 7
REMARK VINA RESULT:    -6.412      4.345      6.999
REMARK INTER + INTRA:          -8.847
REMARK INTER:                  -8.390
REMARK INTRA:                  -0.458
REMARK UNBOUND:                -0.561
REMARK  Name = 
REMARK  6 active torsions:
REMARK  status: ('A' for Active; 'I' for Inactive)
REMARK    1  A    between atoms: C_1  and  C_2
REMARK    2  A    between atoms: C_2  and  C_3
REMARK    3  A    between atoms: C_2  and  C_14
REMARK    4  A    between atoms: C_3  and  N_4
REMARK    5  A    between atoms: N_4  and  C_5
REMARK    6  A    between atoms: C_8  and  C_9
REMARK                            x       y       z     vdW  Elec       q    Type
REMARK                         _______ _______ _______ _____ _____    ______ ____
ROOT
ATOM      1  N   UNL     1      46.253   5.932  13.528  0.00  0.00    +0.000 N 
ATOM      2  H   UNL     1      45.274   5.642  13.493  0.00  0.00    +0.000 HD
ENDROOT
BRANCH   1   3
ATOM      3  C   UNL     1      47.007   5.110  14.372  0.00  0.00    +0.000 A 
ATOM      4  C   UNL     1      47.727   5.563  15.468  0.00  0.00    +0.000 A 
ATOM      5  N   UNL     1      48.449   4.787  16.298  0.00  0.00    +0.000 NA
ATOM      6  C   UNL     1      48.401   3.459  16.032  0.00  0.00    +0.000 A 
ATOM      7  N   UNL     1      47.685   2.877  15.054  0.00  0.00    +0.000 NA
ATOM      8  C   UNL     1      46.989   3.726  14.263  0.00  0.00    +0.000 A 
BRANCH   6   9
ATOM      9  C   UNL     1      49.263   2.589  16.915  0.00  0.00    +0.000 C 
ATOM     10  N   UNL     1      49.189   2.873  18.261  0.00  0.00    +0.000 N 
ATOM     11  O   UNL     1      49.998   1.698  16.505  0.00  0.00    +0.000 OA
ATOM     12  H   UNL     1      48.580   3.615  18.588  0.00  0.00    +0.000 HD
ATOM     13  H   UNL     1      49.742   2.336  18.910  0.00  0.00    +0.000 HD
ENDBRANCH   6   9
ENDBRANCH   1   3
BRANCH   1  14
ATOM     14  C   UNL     1      46.788   6.136  12.182  0.00  0.00    +0.000 C 
BRANCH  14  16
ATOM     15  C   UNL     1      44.584   7.235  11.457  0.00  0.00    +0.000 C 
ATOM     16  C   UNL     1      45.629   6.186  11.239  0.00  0.00    +0.000 C 
BRANCH  16  17
ATOM     17  C   UNL     1      45.340   5.016  10.400  0.00  0.00    +0.000 A 
ATOM     18  C   UNL     1      44.657   3.905  10.916  0.00  0.00    +0.000 A 
ATOM     19  C   UNL     1      44.342   2.823  10.088  0.00  0.00    +0.000 A 
ATOM     20  C   UNL     1      44.703   2.845   8.743  0.00  0.00    +0.000 A 
ATOM     21  C   UNL     1      45.390   3.939   8.225  0.00  0.00    +0.000 A 
ATOM     22  C   UNL     1      45.714   5.014   9.052  0.00  0.00    +0.000 A 
ENDBRANCH  16  17
ENDBRANCH  14  16
ENDBRANCH   1  14
TORSDOF 5
ENDMDL
MODEL 8
REMARK VINA RESULT:    -6.377      4.104      6.718
REMARK INTER + INTRA:          -8.801
REMARK INTER:                  -8.334
REMARK INTRA:                  -0.467
REMARK UNBOUND:                -0.561
REMARK  Name = 
REMARK  6 active torsions:
REMARK  status: ('A' for Active; 'I' for Inactive)
REMARK    1  A    between atoms: C_1  and  C_2
REMARK    2  A    between atoms: C_2  and  C_3
REMARK    3  A    between atoms: C_2  and  C_14
REMARK    4  A    between atoms: C_3  and  N_4
REMARK    5  A    between atoms: N_4  and  C_5
REMARK    6  A    between atoms: C_8  and  C_9
REMARK                            x       y       z     vdW  Elec       q    Type
REMARK                         _______ _______ _______ _____ _____    ______ ____
ROOT
ATOM      1  N   UNL     1      46.772   6.886  12.908  0.00  0.00    +0.000 N 
ATOM      2  H   UNL     1      45.854   7.291  13.096  0.00  0.00    +0.000 HD
ENDROOT
BRANCH   1   3
ATOM      3  C   UNL     1      47.102   5.896  13.840  0.00  0.00    +0.000 A 
ATOM      4  C   UNL     1      46.712   4.569  13.744  0.00  0.00    +0.000 A 
ATOM      5  N   UNL     1      47.028   3.599  14.624  0.00  0.00    +0.000 NA
ATOM      6  C   UNL     1      47.833   3.988  15.643  0.00  0.00    +0.000 A 
ATOM      7  N   UNL     1      48.346   5.218  15.816  0.00  0.00    +0.000 NA
ATOM      8  C   UNL     1      47.978   6.134  14.891  0.00  0.00    +0.000 A 
BRANCH   6   9
ATOM      9  C   UNL     1      48.135   2.924  16.671  0.00  0.00    +0.000 C 
ATOM     10  N   UNL     1      47.149   2.731  17.614  0.00  0.00    +0.000 N 
ATOM     11  O   UNL     1      49.171   2.270  16.708  0.00  0.00    +0.000 OA
ATOM     12  H   UNL     1      46.299   3.281  17.576  0.00  0.00    +0.000 HD
ATOM     13  H   UNL     1      47.286   2.040  18.336  0.00  0.00    +0.000 HD
ENDBRANCH   6   9
ENDBRANCH   1   3
BRANCH   1  14
ATOM     14  C   UNL     1      46.903   6.513  11.500  0.00  0.00    +0.000 C 
BRANCH  14  16
ATOM     15  C   UNL     1      44.425   7.183  11.486  0.00  0.00    +0.000 C 
ATOM     16  C   UNL     1      45.524   6.318  10.956  0.00  0.00    +0.000 C 
BRANCH  16  17
ATOM     17  C   UNL     1      45.209   5.075  10.240  0.00  0.00    +0.000 A 
ATOM     18  C   UNL     1      45.671   4.852   8.935  0.00  0.00    +0.000 A 
ATOM     19  C   UNL     1      45.408   3.640   8.290  0.00  0.00    +0.000 A 
ATOM     20  C   UNL     1      44.687   2.644   8.944  0.00  0.00    +0.000 A 
ATOM     21  C   UNL     1      44.216   2.859  10.235  0.00  0.00    +0.000 A 
ATOM     22  C   UNL     1      44.469   4.072  10.876  0.00  0.00    +0.000 A 
ENDBRANCH  16  17
ENDBRANCH  14  16
ENDBRANCH   1  14
TORSDOF 5
ENDMDL
MODEL 9
REMARK VINA RESULT:    -5.988      3.848      5.988
REMARK INTER + INTRA:          -8.300
REMARK INTER:                  -7.802
REMARK INTRA:                  -0.498
REMARK UNBOUND:                -0.561
REMARK  Name = 
REMARK  6 active torsions:
REMARK  status: ('A' for Active; 'I' for Inactive)
REMARK    1  A    between atoms: C_1  and  C_2
REMARK    2  A    between atoms: C_2  and  C_3
REMARK    3  A    between atoms: C_2  and  C_14
REMARK    4  A    between atoms: C_3  and  N_4
REMARK    5  A    between atoms: N_4  and  C_5
REMARK    6  A    between atoms: C_8  and  C_9
REMARK                            x       y       z     vdW  Elec       q    Type
REMARK                         _______ _______ _______ _____ _____    ______ ____
ROOT
ATOM      1  N   UNL     1      45.420   5.786  13.362  0.00  0.00    +0.000 N 
ATOM      2  H   UNL     1      45.177   5.795  14.354  0.00  0.00    +0.000 HD
ENDROOT
BRANCH   1   3
ATOM      3  C   UNL     1      46.681   6.348  13.132  0.00  0.00    +0.000 A 
ATOM      4  C   UNL     1      47.776   6.182  13.967  0.00  0.00    +0.000 A 
ATOM      5  N   UNL     1      48.999   6.705  13.758  0.00  0.00    +0.000 NA
ATOM      6  C   UNL     1      49.138   7.401  12.603  0.00  0.00    +0.000 A 
ATOM      7  N   UNL     1      48.186   7.575  11.670  0.00  0.00    +0.000 NA
ATOM      8  C   UNL     1      46.986   7.021  11.956  0.00  0.00    +0.000 A 
BRANCH   6   9
ATOM      9  C   UNL     1      50.485   8.049  12.395  0.00  0.00    +0.000 C 
ATOM     10  N   UNL     1      51.398   7.829  13.403  0.00  0.00    +0.000 N 
ATOM     11  O   UNL     1      50.781   8.737  11.424  0.00  0.00    +0.000 OA
ATOM     12  H   UNL     1      51.140   7.262  14.203  0.00  0.00    +0.000 HD
ATOM     13  H   UNL     1      52.317   8.237  13.334  0.00  0.00    +0.000 HD
ENDBRANCH   6   9
ENDBRANCH   1   3
BRANCH   1  14
ATOM     14  C   UNL     1      45.188   4.466  12.776  0.00  0.00    +0.000 C 
BRANCH  14  16
ATOM     15  C   UNL     1      42.946   5.091  11.694  0.00  0.00    +0.000 C 
ATOM     16  C   UNL     1      44.370   4.659  11.540  0.00  0.00    +0.000 C 
BRANCH  16  17
ATOM     17  C   UNL     1      44.832   4.064  10.279  0.00  0.00    +0.000 A 
ATOM     18  C   UNL     1      45.426   4.850   9.282  0.00  0.00    +0.000 A 
ATOM     19  C   UNL     1      45.910   4.258   8.111  0.00  0.00    +0.000 A 
ATOM     20  C   UNL     1      45.807   2.881   7.932  0.00  0.00    +0.000 A 
ATOM     21  C   UNL     1      45.210   2.094   8.911  0.00  0.00    +0.000 A 
ATOM     22  C   UNL     1      44.717   2.685  10.075  0.00  0.00    +0.000 A 
ENDBRANCH  16  17
ENDBRANCH  14  16
ENDBRANCH   1  14
TORSDOF 5
ENDMDL
