MODEL 1
REMARK VINA RESULT:    -8.537      0.000      0.000
REMARK INTER + INTRA:         -12.474
REMARK INTER:                 -11.532
REMARK INTRA:                  -0.942
REMARK UNBOUND:                -0.942
REMARK  Name = 
REMARK  6 active torsions:
REMARK  status: ('A' for Active; 'I' for Inactive)
REMARK    1  A    between atoms: C_2  and  C_3
REMARK    2  A    between atoms: N_7  and  C_8
REMARK    3  A    between atoms: C_8  and  C_9
REMARK    4  A    between atoms: C_9  and  C_12
REMARK    5  A    between atoms: C_16  and  O_17
REMARK    6  A    between atoms: O_17  and  C_18
REMARK                            x       y       z     vdW  Elec       q    Type
REMARK                         _______ _______ _______ _____ _____    ______ ____
ROOT
ATOM      1  C   UNL     1      43.715   4.648  12.391  0.00  0.00    +0.000 C 
ATOM      2  F   UNL     1      42.774   5.516  12.863  0.00  0.00    +0.000 F 
ATOM      3  F   UNL     1      43.539   3.499  13.108  0.00  0.00    +0.000 F 
ENDROOT
BRANCH   1   4
ATOM      4  C   UNL     1      45.124   5.197  12.528  0.00  0.00    +0.000 A 
ATOM      5  C   UNL     1      45.643   6.078  11.569  0.00  0.00    +0.000 A 
ATOM      6  C   UNL     1      46.911   6.638  11.736  0.00  0.00    +0.000 A 
ATOM      7  C   UNL     1      47.681   6.323  12.861  0.00  0.00    +0.000 A 
ATOM      8  C   UNL     1      47.182   5.439  13.814  0.00  0.00    +0.000 A 
ATOM      9  C   UNL     1      45.909   4.884  13.648  0.00  0.00    +0.000 A 
BRANCH   8  10
ATOM     10  O   UNL     1      47.821   5.078  14.972  0.00  0.00    +0.000 OA
BRANCH  10  11
ATOM     11  C   UNL     1      47.184   4.148  15.877  0.00  0.00    +0.000 C 
ATOM     12  C   UNL     1      47.209   4.461  17.380  0.00  0.00    +0.000 C 
ATOM     13  O   UNL     1      47.783   3.166  17.687  0.00  0.00    +0.000 OA
ATOM     14  C   UNL     1      48.053   2.946  16.282  0.00  0.00    +0.000 C 
ENDBRANCH  10  11
ENDBRANCH   8  10
ENDBRANCH   1   4
BRANCH   1  15
ATOM     15  C   UNL     1      43.418   4.354  10.900  0.00  0.00    +0.000 C 
BRANCH  15  20
ATOM     16  C   UNL     1      46.631   2.426   7.388  0.00  0.00    +0.000 A 
ATOM     17  C   UNL     1      46.233   3.730   7.651  0.00  0.00    +0.000 A 
ATOM     18  C   UNL     1      45.318   3.967   8.678  0.00  0.00    +0.000 A 
ATOM     19  C   UNL     1      44.814   2.903   9.420  0.00  0.00    +0.000 A 
ATOM     20  N   UNL     1      43.900   3.061  10.425  0.00  0.00    +0.000 N 
ATOM     21  N   UNL     1      45.200   1.637   9.172  0.00  0.00    +0.000 NA
ATOM     22  C   UNL     1      46.094   1.420   8.171  0.00  0.00    +0.000 A 
ATOM     23  H   UNL     1      43.614   2.206  10.893  0.00  0.00    +0.000 HD
BRANCH  16  25
ATOM     24  N   UNL     1      48.322   1.874   5.509  0.00  0.00    +0.000 NA
ATOM     25  C   UNL     1      47.561   2.128   6.349  0.00  0.00    +0.000 C 
ENDBRANCH  16  25
ENDBRANCH  15  20
ENDBRANCH   1  15
TORSDOF 6
ENDMDL
MODEL 2
REMARK VINA RESULT:    -7.681      2.544      4.132
REMARK INTER + INTRA:         -11.317
REMARK INTER:                 -11.015
REMARK INTRA:                  -0.303
REMARK UNBOUND:                -0.942
REMARK  Name = 
REMARK  6 active torsions:
REMARK  status: ('A' for Active; 'I' for Inactive)
REMARK    1  A    between atoms: C_2  and  C_3
REMARK    2  A    between atoms: N_7  and  C_8
REMARK    3  A    between atoms: C_8  and  C_9
REMARK    4  A    between atoms: C_9  and  C_12
REMARK    5  A    between atoms: C_16  and  O_17
REMARK    6  A    between atoms: O_17  and  C_18
REMARK                            x       y       z     vdW  Elec       q    Type
REMARK                         _______ _______ _______ _____ _____    ______ ____
ROOT
ATOM      1  C   UNL     1      43.307   4.705  12.516  0.00  0.00    +0.000 C 
ATOM      2  F   UNL     1      42.278   5.589  12.676  0.00  0.00    +0.000 F 
ATOM      3  F   UNL     1      43.091   3.726  13.443  0.00  0.00    +0.000 F 
ENDROOT
BRANCH   1   4
ATOM      4  C   UNL     1      44.664   5.366  12.686  0.00  0.00    +0.000 A 
ATOM      5  C   UNL     1      45.735   4.660  13.252  0.00  0.00    +0.000 A 
ATOM      6  C   UNL     1      46.999   5.245  13.339  0.00  0.00    +0.000 A 
ATOM      7  C   UNL     1      47.212   6.544  12.867  0.00  0.00    +0.000 A 
ATOM      8  C   UNL     1      46.153   7.261  12.316  0.00  0.00    +0.000 A 
ATOM      9  C   UNL     1      44.888   6.671  12.223  0.00  0.00    +0.000 A 
BRANCH   8  10
ATOM     10  O   UNL     1      46.238   8.524  11.789  0.00  0.00    +0.000 OA
BRANCH  10  11
ATOM     11  C   UNL     1      45.232   9.505  12.123  0.00  0.00    +0.000 C 
ATOM     12  C   UNL     1      44.115   9.780  11.106  0.00  0.00    +0.000 C 
ATOM     13  O   UNL     1      44.395  11.201  11.113  0.00  0.00    +0.000 OA
ATOM     14  C   UNL     1      45.629  10.962  11.830  0.00  0.00    +0.000 C 
ENDBRANCH  10  11
ENDBRANCH   8  10
ENDBRANCH   1   4
BRANCH   1  15
ATOM     15  C   UNL     1      43.211   4.081  11.102  0.00  0.00    +0.000 C 
BRANCH  15  20
ATOM     16  C   UNL     1      46.633   2.672   7.541  0.00  0.00    +0.000 A 
ATOM     17  C   UNL     1      45.922   1.931   8.476  0.00  0.00    +0.000 A 
ATOM     18  C   UNL     1      45.052   2.590   9.346  0.00  0.00    +0.000 A 
ATOM     19  C   UNL     1      44.911   3.973   9.273  0.00  0.00    +0.000 A 
ATOM     20  N   UNL     1      44.094   4.684  10.108  0.00  0.00    +0.000 N 
ATOM     21  N   UNL     1      45.594   4.696   8.365  0.00  0.00    +0.000 NA
ATOM     22  C   UNL     1      46.435   4.041   7.522  0.00  0.00    +0.000 A 
ATOM     23  H   UNL     1      44.076   5.687   9.949  0.00  0.00    +0.000 HD
BRANCH  16  25
ATOM     24  N   UNL     1      48.277   1.553   5.886  0.00  0.00    +0.000 NA
ATOM     25  C   UNL     1      47.536   2.048   6.630  0.00  0.00    +0.000 C 
ENDBRANCH  16  25
ENDBRANCH  15  20
ENDBRANCH   1  15
TORSDOF 6
ENDMDL
MODEL 3
REMARK VINA RESULT:    -7.238      1.834      2.260
REMARK INTER + INTRA:         -10.719
REMARK INTER:                 -10.258
REMARK INTRA:                  -0.461
REMARK UNBOUND:                -0.942
REMARK  Name = 
REMARK  6 active torsions:
REMARK  status: ('A' for Active; 'I' for Inactive)
REMARK    1  A    between atoms: C_2  and  C_3
REMARK    2  A    between atoms: N_7  and  C_8
REMARK    3  A    between atoms: C_8  and  C_9
REMARK    4  A    between atoms: C_9  and  C_12
REMARK    5  A    between atoms: C_16  and  O_17
REMARK    6  A    between atoms: O_17  and  C_18
REMARK                            x       y       z     vdW  Elec       q    Type
REMARK                         _______ _______ _______ _____ _____    ______ ____
ROOT
ATOM      1  C   UNL     1      43.168   5.125  12.139  0.00  0.00    +0.000 C 
ATOM      2  F   UNL     1      41.979   5.796  12.101  0.00  0.00    +0.000 F 
ATOM      3  F   UNL     1      43.102   4.335  13.251  0.00  0.00    +0.000 F 
ENDROOT
BRANCH   1   4
ATOM      4  C   UNL     1      44.359   6.067  12.176  0.00  0.00    +0.000 A 
ATOM      5  C   UNL     1      44.272   7.349  11.615  0.00  0.00    +0.000 A 
ATOM      6  C   UNL     1      45.344   8.238  11.716  0.00  0.00    +0.000 A 
ATOM      7  C   UNL     1      46.519   7.859  12.374  0.00  0.00    +0.000 A 
ATOM      8  C   UNL     1      46.621   6.583  12.924  0.00  0.00    +0.000 A 
ATOM      9  C   UNL     1      45.544   5.696  12.828  0.00  0.00    +0.000 A 
BRANCH   8  10
ATOM     10  O   UNL     1      47.700   6.104  13.621  0.00  0.00    +0.000 OA
BRANCH  10  11
ATOM     11  C   UNL     1      48.414   6.982  14.520  0.00  0.00    +0.000 C 
ATOM     12  C   UNL     1      49.934   7.119  14.352  0.00  0.00    +0.000 C 
ATOM     13  O   UNL     1      50.165   6.779  15.741  0.00  0.00    +0.000 OA
ATOM     14  C   UNL     1      48.788   6.353  15.873  0.00  0.00    +0.000 C 
ENDBRANCH  10  11
ENDBRANCH   8  10
ENDBRANCH   1   4
BRANCH   1  15
ATOM     15  C   UNL     1      43.267   4.217  10.888  0.00  0.00    +0.000 C 
BRANCH  15  20
ATOM     16  C   UNL     1      46.703   2.651   7.407  0.00  0.00    +0.000 A 
ATOM     17  C   UNL     1      46.074   1.977   8.445  0.00  0.00    +0.000 A 
ATOM     18  C   UNL     1      45.177   2.668   9.260  0.00  0.00    +0.000 A 
ATOM     19  C   UNL     1      44.926   4.018   9.030  0.00  0.00    +0.000 A 
ATOM     20  N   UNL     1      44.076   4.761   9.802  0.00  0.00    +0.000 N 
ATOM     21  N   UNL     1      45.529   4.676   8.022  0.00  0.00    +0.000 NA
ATOM     22  C   UNL     1      46.399   3.989   7.234  0.00  0.00    +0.000 A 
ATOM     23  H   UNL     1      43.976   5.734   9.527  0.00  0.00    +0.000 HD
BRANCH  16  25
ATOM     24  N   UNL     1      48.374   1.449   5.840  0.00  0.00    +0.000 NA
ATOM     25  C   UNL     1      47.630   1.993   6.547  0.00  0.00    +0.000 C 
ENDBRANCH  16  25
ENDBRANCH  15  20
ENDBRANCH   1  15
TORSDOF 6
ENDMDL
MODEL 4
REMARK VINA RESULT:    -6.975      3.872      7.754
REMARK INTER + INTRA:         -10.363
REMARK INTER:                  -9.968
REMARK INTRA:                  -0.396
REMARK UNBOUND:                -0.942
REMARK  Name = 
REMARK  6 active torsions:
REMARK  status: ('A' for Active; 'I' for Inactive)
REMARK    1  A    between atoms: C_2  and  C_3
REMARK    2  A    between atoms: N_7  and  C_8
REMARK    3  A    between atoms: C_8  and  C_9
REMARK    4  A    between atoms: C_9  and  C_12
REMARK    5  A    between atoms: C_16  and  O_17
REMARK    6  A    between atoms: O_17  and  C_18
REMARK                            x       y       z     vdW  Elec       q    Type
REMARK                         _______ _______ _______ _____ _____    ______ ____
ROOT
ATOM      1  C   UNL     1      45.096   6.180  11.374  0.00  0.00    +0.000 C 
ATOM      2  F   UNL     1      43.990   6.350  12.157  0.00  0.00    +0.000 F 
ATOM      3  F   UNL     1      45.185   7.317  10.622  0.00  0.00    +0.000 F 
ENDROOT
BRANCH   1   4
ATOM      4  C   UNL     1      45.006   4.931  10.515  0.00  0.00    +0.000 A 
ATOM      5  C   UNL     1      44.193   3.856  10.902  0.00  0.00    +0.000 A 
ATOM      6  C   UNL     1      44.056   2.741  10.073  0.00  0.00    +0.000 A 
ATOM      7  C   UNL     1      44.730   2.681   8.849  0.00  0.00    +0.000 A 
ATOM      8  C   UNL     1      45.550   3.737   8.460  0.00  0.00    +0.000 A 
ATOM      9  C   UNL     1      45.682   4.857   9.288  0.00  0.00    +0.000 A 
BRANCH   8  10
ATOM     10  O   UNL     1      46.235   3.814   7.275  0.00  0.00    +0.000 OA
BRANCH  10  11
ATOM     11  C   UNL     1      46.516   2.606   6.535  0.00  0.00    +0.000 C 
ATOM     12  C   UNL     1      47.577   1.643   7.087  0.00  0.00    +0.000 C 
ATOM     13  O   UNL     1      48.308   1.656   5.836  0.00  0.00    +0.000 OA
ATOM     14  C   UNL     1      47.515   2.777   5.377  0.00  0.00    +0.000 C 
ENDBRANCH  10  11
ENDBRANCH   8  10
ENDBRANCH   1   4
BRANCH   1  15
ATOM     15  C   UNL     1      46.343   6.089  12.288  0.00  0.00    +0.000 C 
BRANCH  15  20
ATOM     16  C   UNL     1      48.367   4.836  16.838  0.00  0.00    +0.000 A 
ATOM     17  C   UNL     1      48.580   5.927  16.007  0.00  0.00    +0.000 A 
ATOM     18  C   UNL     1      47.890   6.006  14.797  0.00  0.00    +0.000 A 
ATOM     19  C   UNL     1      47.005   4.994  14.435  0.00  0.00    +0.000 A 
ATOM     20  N   UNL     1      46.312   4.996  13.255  0.00  0.00    +0.000 N 
ATOM     21  N   UNL     1      46.791   3.935  15.238  0.00  0.00    +0.000 NA
ATOM     22  C   UNL     1      47.467   3.874  16.416  0.00  0.00    +0.000 A 
ATOM     23  H   UNL     1      45.694   4.203  13.111  0.00  0.00    +0.000 HD
BRANCH  16  25
ATOM     24  N   UNL     1      49.592   4.596  19.104  0.00  0.00    +0.000 NA
ATOM     25  C   UNL     1      49.049   4.706  18.084  0.00  0.00    +0.000 C 
ENDBRANCH  16  25
ENDBRANCH  15  20
ENDBRANCH   1  15
TORSDOF 6
ENDMDL
MODEL 5
REMARK VINA RESULT:    -6.607      4.278      7.326
REMARK INTER + INTRA:          -9.867
REMARK INTER:                  -9.269
REMARK INTRA:                  -0.598
REMARK UNBOUND:                -0.942
REMARK  Name = 
REMARK  6 active torsions:
REMARK  status: ('A' for Active; 'I' for Inactive)
REMARK    1  A    between atoms: C_2  and  C_3
REMARK    2  A    between atoms: N_7  and  C_8
REMARK    3  A    between atoms: C_8  and  C_9
REMARK    4  A    between atoms: C_9  and  C_12
REMARK    5  A    between atoms: C_16  and  O_17
REMARK    6  A    between atoms: O_17  and  C_18
REMARK                            x       y       z     vdW  Elec       q    Type
REMARK                         _______ _______ _______ _____ _____    ______ ____
ROOT
ATOM      1  C   UNL     1      44.519   5.901  11.460  0.00  0.00    +0.000 C 
ATOM      2  F   UNL     1      43.242   6.085  11.907  0.00  0.00    +0.000 F 
ATOM      3  F   UNL     1      44.827   7.038  10.769  0.00  0.00    +0.000 F 
ENDROOT
BRANCH   1   4
ATOM      4  C   UNL     1      44.654   4.656  10.603  0.00  0.00    +0.000 A 
ATOM      5  C   UNL     1      44.018   3.462  10.973  0.00  0.00    +0.000 A 
ATOM      6  C   UNL     1      44.084   2.340  10.144  0.00  0.00    +0.000 A 
ATOM      7  C   UNL     1      44.789   2.392   8.937  0.00  0.00    +0.000 A 
ATOM      8  C   UNL     1      45.436   3.568   8.565  0.00  0.00    +0.000 A 
ATOM      9  C   UNL     1      45.363   4.693   9.392  0.00  0.00    +0.000 A 
BRANCH   8  10
ATOM     10  O   UNL     1      46.127   3.757   7.396  0.00  0.00    +0.000 OA
BRANCH  10  11
ATOM     11  C   UNL     1      46.463   2.617   6.575  0.00  0.00    +0.000 C 
ATOM     12  C   UNL     1      47.648   1.737   6.998  0.00  0.00    +0.000 C 
ATOM     13  O   UNL     1      48.277   1.879   5.700  0.00  0.00    +0.000 OA
ATOM     14  C   UNL     1      47.350   2.937   5.359  0.00  0.00    +0.000 C 
ENDBRANCH  10  11
ENDBRANCH   8  10
ENDBRANCH   1   4
BRANCH   1  15
ATOM     15  C   UNL     1      45.464   5.791  12.683  0.00  0.00    +0.000 C 
BRANCH  15  20
ATOM     16  C   UNL     1      49.355   9.070  11.992  0.00  0.00    +0.000 A 
ATOM     17  C   UNL     1      49.096   7.822  11.440  0.00  0.00    +0.000 A 
ATOM     18  C   UNL     1      47.946   7.134  11.827  0.00  0.00    +0.000 A 
ATOM     19  C   UNL     1      47.078   7.697  12.759  0.00  0.00    +0.000 A 
ATOM     20  N   UNL     1      45.946   7.069  13.198  0.00  0.00    +0.000 N 
ATOM     21  N   UNL     1      47.322   8.908  13.294  0.00  0.00    +0.000 NA
ATOM     22  C   UNL     1      48.444   9.569  12.905  0.00  0.00    +0.000 A 
ATOM     23  H   UNL     1      45.395   7.587  13.876  0.00  0.00    +0.000 HD
BRANCH  16  25
ATOM     24  N   UNL     1      51.472  10.411  11.347  0.00  0.00    +0.000 NA
ATOM     25  C   UNL     1      50.517   9.814  11.633  0.00  0.00    +0.000 C 
ENDBRANCH  16  25
ENDBRANCH  15  20
ENDBRANCH   1  15
TORSDOF 6
ENDMDL
MODEL 6
REMARK VINA RESULT:    -6.515      3.937      6.794
REMARK INTER + INTRA:          -9.742
REMARK INTER:                  -8.727
REMARK INTRA:                  -1.015
REMARK UNBOUND:                -0.942
REMARK  Name = 
REMARK  6 active torsions:
REMARK  status: ('A' for Active; 'I' for Inactive)
REMARK    1  A    between atoms: C_2  and  C_3
REMARK    2  A    between atoms: N_7  and  C_8
REMARK    3  A    between atoms: C_8  and  C_9
REMARK    4  A    between atoms: C_9  and  C_12
REMARK    5  A    between atoms: C_16  and  O_17
REMARK    6  A    between atoms: O_17  and  C_18
REMARK                            x       y       z     vdW  Elec       q    Type
REMARK                         _______ _______ _______ _____ _____    ______ ____
ROOT
ATOM      1  C   UNL     1      44.733   3.388  12.527  0.00  0.00    +0.000 C 
ATOM      2  F   UNL     1      45.847   2.684  12.883  0.00  0.00    +0.000 F 
ATOM      3  F   UNL     1      43.679   2.659  13.000  0.00  0.00    +0.000 F 
ENDROOT
BRANCH   1   4
ATOM      4  C   UNL     1      44.647   3.612  11.028  0.00  0.00    +0.000 A 
ATOM      5  C   UNL     1      43.919   4.691  10.508  0.00  0.00    +0.000 A 
ATOM      6  C   UNL     1      43.904   4.937   9.134  0.00  0.00    +0.000 A 
ATOM      7  C   UNL     1      44.612   4.107   8.258  0.00  0.00    +0.000 A 
ATOM      8  C   UNL     1      45.328   3.023   8.762  0.00  0.00    +0.000 A 
ATOM      9  C   UNL     1      45.348   2.783  10.139  0.00  0.00    +0.000 A 
BRANCH   8  10
ATOM     10  O   UNL     1      46.087   2.159   8.016  0.00  0.00    +0.000 OA
BRANCH  10  11
ATOM     11  C   UNL     1      47.138   2.680   7.172  0.00  0.00    +0.000 C 
ATOM     12  C   UNL     1      46.907   2.709   5.654  0.00  0.00    +0.000 C 
ATOM     13  O   UNL     1      48.133   1.977   5.407  0.00  0.00    +0.000 OA
ATOM     14  C   UNL     1      48.241   1.668   6.817  0.00  0.00    +0.000 C 
ENDBRANCH  10  11
ENDBRANCH   8  10
ENDBRANCH   1   4
BRANCH   1  15
ATOM     15  C   UNL     1      44.756   4.757  13.253  0.00  0.00    +0.000 C 
BRANCH  15  20
ATOM     16  C   UNL     1      48.939   7.557  12.240  0.00  0.00    +0.000 A 
ATOM     17  C   UNL     1      47.812   7.280  11.478  0.00  0.00    +0.000 A 
ATOM     18  C   UNL     1      46.816   6.461  12.010  0.00  0.00    +0.000 A 
ATOM     19  C   UNL     1      46.962   5.929  13.288  0.00  0.00    +0.000 A 
ATOM     20  N   UNL     1      46.036   5.103  13.862  0.00  0.00    +0.000 N 
ATOM     21  N   UNL     1      48.050   6.198  14.034  0.00  0.00    +0.000 NA
ATOM     22  C   UNL     1      49.011   7.000  13.504  0.00  0.00    +0.000 A 
ATOM     23  H   UNL     1      46.258   4.785  14.801  0.00  0.00    +0.000 HD
BRANCH  16  25
ATOM     24  N   UNL     1      50.841   9.054  11.326  0.00  0.00    +0.000 NA
ATOM     25  C   UNL     1      49.987   8.386  11.743  0.00  0.00    +0.000 C 
ENDBRANCH  16  25
ENDBRANCH  15  20
ENDBRANCH   1  15
TORSDOF 6
ENDMDL
MODEL 7
REMARK VINA RESULT:    -6.499      3.939      7.776
REMARK INTER + INTRA:          -9.721
REMARK INTER:                  -9.086
REMARK INTRA:                  -0.635
REMARK UNBOUND:                -0.942
REMARK  Name = 
REMARK  6 active torsions:
REMARK  status: ('A' for Active; 'I' for Inactive)
REMARK    1  A    between atoms: C_2  and  C_3
REMARK    2  A    between atoms: N_7  and  C_8
REMARK    3  A    between atoms: C_8  and  C_9
REMARK    4  A    between atoms: C_9  and  C_12
REMARK    5  A    between atoms: C_16  and  O_17
REMARK    6  A    between atoms: O_17  and  C_18
REMARK                            x       y       z     vdW  Elec       q    Type
REMARK                         _______ _______ _______ _____ _____    ______ ____
ROOT
ATOM      1  C   UNL     1      46.331   6.669  12.438  0.00  0.00    +0.000 C 
ATOM      2  F   UNL     1      45.952   7.655  13.302  0.00  0.00    +0.000 F 
ATOM      3  F   UNL     1      46.784   7.318  11.324  0.00  0.00    +0.000 F 
ENDROOT
BRANCH   1   4
ATOM      4  C   UNL     1      45.194   5.714  12.121  0.00  0.00    +0.000 A 
ATOM      5  C   UNL     1      44.073   5.636  12.958  0.00  0.00    +0.000 A 
ATOM      6  C   UNL     1      42.997   4.811  12.624  0.00  0.00    +0.000 A 
ATOM      7  C   UNL     1      43.027   4.049  11.452  0.00  0.00    +0.000 A 
ATOM      8  C   UNL     1      44.141   4.108  10.618  0.00  0.00    +0.000 A 
ATOM      9  C   UNL     1      45.215   4.940  10.951  0.00  0.00    +0.000 A 
BRANCH   8  10
ATOM     10  O   UNL     1      44.278   3.439   9.429  0.00  0.00    +0.000 OA
BRANCH  10  11
ATOM     11  C   UNL     1      45.600   3.141   8.927  0.00  0.00    +0.000 C 
ATOM     12  C   UNL     1      45.911   3.461   7.458  0.00  0.00    +0.000 C 
ATOM     13  O   UNL     1      46.354   2.105   7.208  0.00  0.00    +0.000 OA
ATOM     14  C   UNL     1      45.806   1.684   8.480  0.00  0.00    +0.000 C 
ENDBRANCH  10  11
ENDBRANCH   8  10
ENDBRANCH   1   4
BRANCH   1  15
ATOM     15  C   UNL     1      47.507   5.881  13.066  0.00  0.00    +0.000 C 
BRANCH  15  20
ATOM     16  C   UNL     1      48.165   4.613  17.999  0.00  0.00    +0.000 A 
ATOM     17  C   UNL     1      48.704   5.639  17.234  0.00  0.00    +0.000 A 
ATOM     18  C   UNL     1      48.354   5.740  15.887  0.00  0.00    +0.000 A 
ATOM     19  C   UNL     1      47.478   4.814  15.326  0.00  0.00    +0.000 A 
ATOM     20  N   UNL     1      47.109   4.840  14.009  0.00  0.00    +0.000 N 
ATOM     21  N   UNL     1      46.949   3.820  16.063  0.00  0.00    +0.000 NA
ATOM     22  C   UNL     1      47.296   3.736  17.375  0.00  0.00    +0.000 A 
ATOM     23  H   UNL     1      46.460   4.113  13.724  0.00  0.00    +0.000 HD
BRANCH  16  25
ATOM     24  N   UNL     1      48.771   4.350  20.500  0.00  0.00    +0.000 NA
ATOM     25  C   UNL     1      48.492   4.464  19.379  0.00  0.00    +0.000 C 
ENDBRANCH  16  25
ENDBRANCH  15  20
ENDBRANCH   1  15
TORSDOF 6
ENDMDL
MODEL 8
REMARK VINA RESULT:    -6.370      4.315      8.021
REMARK INTER + INTRA:          -9.546
REMARK INTER:                  -8.975
REMARK INTRA:                  -0.572
REMARK UNBOUND:                -0.942
REMARK  Name = 
REMARK  6 active torsions:
REMARK  status: ('A' for Active; 'I' for Inactive)
REMARK    1  A    between atoms: C_2  and  C_3
REMARK    2  A    between atoms: N_7  and  C_8
REMARK    3  A    between atoms: C_8  and  C_9
REMARK    4  A    between atoms: C_9  and  C_12
REMARK    5  A    between atoms: C_16  and  O_17
REMARK    6  A    between atoms: O_17  and  C_18
REMARK                            x       y       z     vdW  Elec       q    Type
REMARK                         _______ _______ _______ _____ _____    ______ ____
ROOT
ATOM      1  C   UNL     1      45.097   6.091  11.425  0.00  0.00    +0.000 C 
ATOM      2  F   UNL     1      44.763   5.833  12.723  0.00  0.00    +0.000 F 
ATOM      3  F   UNL     1      44.233   7.068  11.017  0.00  0.00    +0.000 F 
ENDROOT
BRANCH   1   4
ATOM      4  C   UNL     1      45.012   4.852  10.552  0.00  0.00    +0.000 A 
ATOM      5  C   UNL     1      44.264   3.739  10.962  0.00  0.00    +0.000 A 
ATOM      6  C   UNL     1      44.129   2.631  10.124  0.00  0.00    +0.000 A 
ATOM      7  C   UNL     1      44.741   2.615   8.866  0.00  0.00    +0.000 A 
ATOM      8  C   UNL     1      45.498   3.709   8.453  0.00  0.00    +0.000 A 
ATOM      9  C   UNL     1      45.627   4.821   9.291  0.00  0.00    +0.000 A 
BRANCH   8  10
ATOM     10  O   UNL     1      46.117   3.830   7.236  0.00  0.00    +0.000 OA
BRANCH  10  11
ATOM     11  C   UNL     1      46.456   2.642   6.487  0.00  0.00    +0.000 C 
ATOM     12  C   UNL     1      47.526   1.700   7.059  0.00  0.00    +0.000 C 
ATOM     13  O   UNL     1      48.295   1.753   5.832  0.00  0.00    +0.000 OA
ATOM     14  C   UNL     1      47.485   2.858   5.365  0.00  0.00    +0.000 C 
ENDBRANCH  10  11
ENDBRANCH   8  10
ENDBRANCH   1   4
BRANCH   1  15
ATOM     15  C   UNL     1      46.539   6.654  11.384  0.00  0.00    +0.000 C 
BRANCH  15  20
ATOM     16  C   UNL     1      48.800   7.727  15.868  0.00  0.00    +0.000 A 
ATOM     17  C   UNL     1      48.607   6.525  15.201  0.00  0.00    +0.000 A 
ATOM     18  C   UNL     1      47.934   6.526  13.979  0.00  0.00    +0.000 A 
ATOM     19  C   UNL     1      47.461   7.722  13.447  0.00  0.00    +0.000 A 
ATOM     20  N   UNL     1      46.775   7.793  12.265  0.00  0.00    +0.000 N 
ATOM     21  N   UNL     1      47.649   8.892  14.086  0.00  0.00    +0.000 NA
ATOM     22  C   UNL     1      48.310   8.876  15.274  0.00  0.00    +0.000 A 
ATOM     23  H   UNL     1      46.488   8.726  11.984  0.00  0.00    +0.000 HD
BRANCH  16  25
ATOM     24  N   UNL     1      50.043   7.818  18.135  0.00  0.00    +0.000 NA
ATOM     25  C   UNL     1      49.479   7.781  17.121  0.00  0.00    +0.000 C 
ENDBRANCH  16  25
ENDBRANCH  15  20
ENDBRANCH   1  15
TORSDOF 6
ENDMDL
MODEL 9
REMARK VINA RESULT:    -6.010      3.363      5.171
REMARK INTER + INTRA:          -9.060
REMARK INTER:                  -8.167
REMARK INTRA:                  -0.893
REMARK UNBOUND:                -0.942
REMARK  Name = 
REMARK  6 active torsions:
REMARK  status: ('A' for Active; 'I' for Inactive)
REMARK    1  A    between atoms: C_2  and  C_3
REMARK    2  A    between atoms: N_7  and  C_8
REMARK    3  A    between atoms: C_8  and  C_9
REMARK    4  A    between atoms: C_9  and  C_12
REMARK    5  A    between atoms: C_16  and  O_17
REMARK    6  A    between atoms: O_17  and  C_18
REMARK                            x       y       z     vdW  Elec       q    Type
REMARK                         _______ _______ _______ _____ _____    ______ ____
ROOT
ATOM      1  C   UNL     1      47.999   8.664  13.956  0.00  0.00    +0.000 C 
ATOM      2  F   UNL     1      48.514   9.895  13.667  0.00  0.00    +0.000 F 
ATOM      3  F   UNL     1      46.643   8.827  13.941  0.00  0.00    +0.000 F 
ENDROOT
BRANCH   1   4
ATOM      4  C   UNL     1      48.497   8.131  15.287  0.00  0.00    +0.000 A 
ATOM      5  C   UNL     1      48.598   8.975  16.402  0.00  0.00    +0.000 A 
ATOM      6  C   UNL     1      48.986   8.464  17.642  0.00  0.00    +0.000 A 
ATOM      7  C   UNL     1      49.283   7.105  17.787  0.00  0.00    +0.000 A 
ATOM      8  C   UNL     1      49.199   6.259  16.683  0.00  0.00    +0.000 A 
ATOM      9  C   UNL     1      48.804   6.770  15.443  0.00  0.00    +0.000 A 
BRANCH   8  10
ATOM     10  O   UNL     1      49.430   4.908  16.702  0.00  0.00    +0.000 OA
BRANCH  10  11
ATOM     11  C   UNL     1      48.629   4.060  17.555  0.00  0.00    +0.000 C 
ATOM     12  C   UNL     1      48.129   2.722  16.991  0.00  0.00    +0.000 C 
ATOM     13  O   UNL     1      46.756   3.040  17.326  0.00  0.00    +0.000 OA
ATOM     14  C   UNL     1      47.132   4.412  17.592  0.00  0.00    +0.000 C 
ENDBRANCH  10  11
ENDBRANCH   8  10
ENDBRANCH   1   4
BRANCH   1  15
ATOM     15  C   UNL     1      48.394   7.681  12.825  0.00  0.00    +0.000 C 
BRANCH  15  20
ATOM     16  C   UNL     1      44.727   4.236  11.800  0.00  0.00    +0.000 A 
ATOM     17  C   UNL     1      45.712   4.266  12.779  0.00  0.00    +0.000 A 
ATOM     18  C   UNL     1      46.601   5.340  12.815  0.00  0.00    +0.000 A 
ATOM     19  C   UNL     1      46.496   6.362  11.875  0.00  0.00    +0.000 A 
ATOM     20  N   UNL     1      47.347   7.433  11.840  0.00  0.00    +0.000 N 
ATOM     21  N   UNL     1      45.541   6.340  10.927  0.00  0.00    +0.000 NA
ATOM     22  C   UNL     1      44.679   5.289  10.905  0.00  0.00    +0.000 A 
ATOM     23  H   UNL     1      47.162   8.112  11.107  0.00  0.00    +0.000 HD
BRANCH  16  25
ATOM     24  N   UNL     1      43.047   2.274  11.649  0.00  0.00    +0.000 NA
ATOM     25  C   UNL     1      43.795   3.160  11.717  0.00  0.00    +0.000 C 
ENDBRANCH  16  25
ENDBRANCH  15  20
ENDBRANCH   1  15
TORSDOF 6
ENDMDL
