MODEL 1
REMARK VINA RESULT:    -7.458      0.000      0.000
REMARK INTER + INTRA:          -9.944
REMARK INTER:                  -9.202
REMARK INTRA:                  -0.741
REMARK UNBOUND:                -0.741
REMARK  Name = 
REMARK  7 active torsions:
REMARK  status: ('A' for Active; 'I' for Inactive)
REMARK    1  A    between atoms: C_1  and  O_2
REMARK    2  A    between atoms: O_2  and  C_3
REMARK    3  A    between atoms: C_6  and  C_7
REMARK    4  A    between atoms: C_7  and  N_8
REMARK    5  A    between atoms: C_14  and  C_15
REMARK    6  A    between atoms: N_17  and  C_18
REMARK    7  A    between atoms: N_17  and  C_19
REMARK                            x       y       z     vdW  Elec       q    Type
REMARK                         _______ _______ _______ _____ _____    ______ ____
ROOT
ATOM      1  N   UNL     1      44.170   4.273  10.981  0.00  0.00    +0.000 N 
ATOM      2  C   UNL     1      43.493   3.347  11.743  0.00  0.00    +0.000 A 
ATOM      3  C   UNL     1      44.016   3.378  13.016  0.00  0.00    +0.000 A 
ATOM      4  C   UNL     1      45.045   4.359  13.031  0.00  0.00    +0.000 A 
ATOM      5  C   UNL     1      45.956   4.818  13.992  0.00  0.00    +0.000 A 
ATOM      6  C   UNL     1      46.836   5.829  13.608  0.00  0.00    +0.000 A 
ATOM      7  C   UNL     1      46.769   6.356  12.314  0.00  0.00    +0.000 A 
ATOM      8  N   UNL     1      45.926   5.914  11.344  0.00  0.00    +0.000 NA
ATOM      9  C   UNL     1      45.099   4.926  11.759  0.00  0.00    +0.000 A 
ENDROOT
BRANCH   7  10
ATOM     10  C   UNL     1      47.780   7.418  11.967  0.00  0.00    +0.000 C 
ATOM     11  O   UNL     1      48.929   7.025  11.738  0.00  0.00    +0.000 OA
ATOM     12  N   UNL     1      47.468   8.787  11.932  0.00  0.00    +0.000 N 
ATOM     13  C   UNL     1      46.232   9.401  12.382  0.00  0.00    +0.000 C 
ATOM     14  C   UNL     1      48.535   9.722  11.617  0.00  0.00    +0.000 C 
ENDBRANCH   7  10
BRANCH   1  15
ATOM     15  C   UNL     1      44.032   4.418   9.538  0.00  0.00    +0.000 C 
BRANCH  15  19
ATOM     16  C   UNL     1      46.966   2.167   7.286  0.00  0.00    +0.000 A 
ATOM     17  C   UNL     1      46.137   1.524   8.201  0.00  0.00    +0.000 A 
ATOM     18  C   UNL     1      45.203   2.259   8.937  0.00  0.00    +0.000 A 
ATOM     19  C   UNL     1      45.072   3.643   8.769  0.00  0.00    +0.000 A 
ATOM     20  C   UNL     1      45.897   4.279   7.832  0.00  0.00    +0.000 A 
ATOM     21  C   UNL     1      46.836   3.544   7.101  0.00  0.00    +0.000 A 
BRANCH  16  23
ATOM     22  C   UNL     1      48.208   2.165   5.260  0.00  0.00    +0.000 C 
ATOM     23  O   UNL     1      47.933   1.570   6.523  0.00  0.00    +0.000 OA
ENDBRANCH  16  23
ENDBRANCH  15  19
ENDBRANCH   1  15
TORSDOF 4
ENDMDL
MODEL 2
REMARK VINA RESULT:    -6.709      1.534      2.200
REMARK INTER + INTRA:          -9.020
REMARK INTER:                  -8.752
REMARK INTRA:                  -0.267
REMARK UNBOUND:                -0.741
REMARK  Name = 
REMARK  7 active torsions:
REMARK  status: ('A' for Active; 'I' for Inactive)
REMARK    1  A    between atoms: C_1  and  O_2
REMARK    2  A    between atoms: O_2  and  C_3
REMARK    3  A    between atoms: C_6  and  C_7
REMARK    4  A    between atoms: C_7  and  N_8
REMARK    5  A    between atoms: C_14  and  C_15
REMARK    6  A    between atoms: N_17  and  C_18
REMARK    7  A    between atoms: N_17  and  C_19
REMARK                            x       y       z     vdW  Elec       q    Type
REMARK                         _______ _______ _______ _____ _____    ______ ____
ROOT
ATOM      1  N   UNL     1      45.294   4.503  12.050  0.00  0.00    +0.000 N 
ATOM      2  C   UNL     1      45.828   3.425  12.721  0.00  0.00    +0.000 A 
ATOM      3  C   UNL     1      46.775   3.897  13.602  0.00  0.00    +0.000 A 
ATOM      4  C   UNL     1      46.816   5.311  13.466  0.00  0.00    +0.000 A 
ATOM      5  C   UNL     1      47.583   6.334  14.041  0.00  0.00    +0.000 A 
ATOM      6  C   UNL     1      47.313   7.641  13.634  0.00  0.00    +0.000 A 
ATOM      7  C   UNL     1      46.296   7.885  12.705  0.00  0.00    +0.000 A 
ATOM      8  N   UNL     1      45.557   6.918  12.100  0.00  0.00    +0.000 NA
ATOM      9  C   UNL     1      45.861   5.667  12.517  0.00  0.00    +0.000 A 
ENDROOT
BRANCH   7  10
ATOM     10  C   UNL     1      46.094   9.319  12.290  0.00  0.00    +0.000 C 
ATOM     11  O   UNL     1      44.931   9.736  12.314  0.00  0.00    +0.000 OA
ATOM     12  N   UNL     1      47.145  10.146  11.863  0.00  0.00    +0.000 N 
ATOM     13  C   UNL     1      48.509   9.732  11.582  0.00  0.00    +0.000 C 
ATOM     14  C   UNL     1      46.823  11.503  11.455  0.00  0.00    +0.000 C 
ENDBRANCH   7  10
BRANCH   1  15
ATOM     15  C   UNL     1      44.391   4.405  10.912  0.00  0.00    +0.000 C 
BRANCH  15  19
ATOM     16  C   UNL     1      46.302   2.600   7.473  0.00  0.00    +0.000 A 
ATOM     17  C   UNL     1      46.285   3.984   7.622  0.00  0.00    +0.000 A 
ATOM     18  C   UNL     1      45.651   4.561   8.726  0.00  0.00    +0.000 A 
ATOM     19  C   UNL     1      45.034   3.772   9.705  0.00  0.00    +0.000 A 
ATOM     20  C   UNL     1      45.072   2.380   9.556  0.00  0.00    +0.000 A 
ATOM     21  C   UNL     1      45.701   1.803   8.448  0.00  0.00    +0.000 A 
BRANCH  16  23
ATOM     22  C   UNL     1      47.356   2.689   5.344  0.00  0.00    +0.000 C 
ATOM     23  O   UNL     1      46.864   1.913   6.432  0.00  0.00    +0.000 OA
ENDBRANCH  16  23
ENDBRANCH  15  19
ENDBRANCH   1  15
TORSDOF 4
ENDMDL
MODEL 3
REMARK VINA RESULT:    -6.546      2.563      4.423
REMARK INTER + INTRA:          -8.818
REMARK INTER:                  -8.350
REMARK INTRA:                  -0.468
REMARK UNBOUND:                -0.741
REMARK  Name = 
REMARK  7 active torsions:
REMARK  status: ('A' for Active; 'I' for Inactive)
REMARK    1  A    between atoms: C_1  and  O_2
REMARK    2  A    between atoms: O_2  and  C_3
REMARK    3  A    between atoms: C_6  and  C_7
REMARK    4  A    between atoms: C_7  and  N_8
REMARK    5  A    between atoms: C_14  and  C_15
REMARK    6  A    between atoms: N_17  and  C_18
REMARK    7  A    between atoms: N_17  and  C_19
REMARK                            x       y       z     vdW  Elec       q    Type
REMARK                         _______ _______ _______ _____ _____    ______ ____
ROOT
ATOM      1  N   UNL     1      45.277   6.841  12.182  0.00  0.00    +0.000 N 
ATOM      2  C   UNL     1      45.536   8.106  11.706  0.00  0.00    +0.000 A 
ATOM      3  C   UNL     1      46.653   8.585  12.353  0.00  0.00    +0.000 A 
ATOM      4  C   UNL     1      47.091   7.574  13.252  0.00  0.00    +0.000 A 
ATOM      5  C   UNL     1      48.120   7.475  14.197  0.00  0.00    +0.000 A 
ATOM      6  C   UNL     1      48.227   6.277  14.904  0.00  0.00    +0.000 A 
ATOM      7  C   UNL     1      47.338   5.230  14.637  0.00  0.00    +0.000 A 
ATOM      8  N   UNL     1      46.306   5.301  13.756  0.00  0.00    +0.000 NA
ATOM      9  C   UNL     1      46.236   6.484  13.102  0.00  0.00    +0.000 A 
ENDROOT
BRANCH   7  10
ATOM     10  C   UNL     1      47.496   3.984  15.470  0.00  0.00    +0.000 C 
ATOM     11  O   UNL     1      47.647   2.927  14.848  0.00  0.00    +0.000 OA
ATOM     12  N   UNL     1      47.444   3.992  16.873  0.00  0.00    +0.000 N 
ATOM     13  C   UNL     1      47.063   5.112  17.716  0.00  0.00    +0.000 C 
ATOM     14  C   UNL     1      47.576   2.722  17.568  0.00  0.00    +0.000 C 
ENDBRANCH   7  10
BRANCH   1  15
ATOM     15  C   UNL     1      44.079   6.070  11.876  0.00  0.00    +0.000 C 
BRANCH  15  19
ATOM     16  C   UNL     1      44.921   2.732   9.250  0.00  0.00    +0.000 A 
ATOM     17  C   UNL     1      45.367   4.011   8.927  0.00  0.00    +0.000 A 
ATOM     18  C   UNL     1      45.076   5.088   9.771  0.00  0.00    +0.000 A 
ATOM     19  C   UNL     1      44.349   4.909  10.953  0.00  0.00    +0.000 A 
ATOM     20  C   UNL     1      43.921   3.615  11.280  0.00  0.00    +0.000 A 
ATOM     21  C   UNL     1      44.205   2.540  10.432  0.00  0.00    +0.000 A 
BRANCH  16  23
ATOM     22  C   UNL     1      46.429   1.388   7.998  0.00  0.00    +0.000 C 
ATOM     23  O   UNL     1      45.116   1.603   8.502  0.00  0.00    +0.000 OA
ENDBRANCH  16  23
ENDBRANCH  15  19
ENDBRANCH   1  15
TORSDOF 4
ENDMDL
MODEL 4
REMARK VINA RESULT:    -6.174      4.523      7.880
REMARK INTER + INTRA:          -8.359
REMARK INTER:                  -7.715
REMARK INTRA:                  -0.644
REMARK UNBOUND:                -0.741
REMARK  Name = 
REMARK  7 active torsions:
REMARK  status: ('A' for Active; 'I' for Inactive)
REMARK    1  A    between atoms: C_1  and  O_2
REMARK    2  A    between atoms: O_2  and  C_3
REMARK    3  A    between atoms: C_6  and  C_7
REMARK    4  A    between atoms: C_7  and  N_8
REMARK    5  A    between atoms: C_14  and  C_15
REMARK    6  A    between atoms: N_17  and  C_18
REMARK    7  A    between atoms: N_17  and  C_19
REMARK                            x       y       z     vdW  Elec       q    Type
REMARK                         _______ _______ _______ _____ _____    ______ ____
ROOT
ATOM      1  N   UNL     1      48.572   6.347  16.111  0.00  0.00    +0.000 N 
ATOM      2  C   UNL     1      49.460   7.391  15.980  0.00  0.00    +0.000 A 
ATOM      3  C   UNL     1      49.448   7.797  14.665  0.00  0.00    +0.000 A 
ATOM      4  C   UNL     1      48.518   6.975  13.972  0.00  0.00    +0.000 A 
ATOM      5  C   UNL     1      48.100   6.867  12.639  0.00  0.00    +0.000 A 
ATOM      6  C   UNL     1      47.134   5.905  12.348  0.00  0.00    +0.000 A 
ATOM      7  C   UNL     1      46.611   5.110  13.373  0.00  0.00    +0.000 A 
ATOM      8  N   UNL     1      47.016   5.160  14.669  0.00  0.00    +0.000 NA
ATOM      9  C   UNL     1      47.960   6.101  14.903  0.00  0.00    +0.000 A 
ENDROOT
BRANCH   7  10
ATOM     10  C   UNL     1      45.600   4.068  12.969  0.00  0.00    +0.000 C 
ATOM     11  O   UNL     1      46.017   2.908  12.884  0.00  0.00    +0.000 OA
ATOM     12  N   UNL     1      44.265   4.376  12.666  0.00  0.00    +0.000 N 
ATOM     13  C   UNL     1      43.699   5.706  12.517  0.00  0.00    +0.000 C 
ATOM     14  C   UNL     1      43.390   3.291  12.255  0.00  0.00    +0.000 C 
ENDBRANCH   7  10
BRANCH   1  15
ATOM     15  C   UNL     1      48.427   5.528  17.308  0.00  0.00    +0.000 C 
BRANCH  15  19
ATOM     16  C   UNL     1      50.946   2.006  17.327  0.00  0.00    +0.000 A 
ATOM     17  C   UNL     1      51.466   3.246  17.689  0.00  0.00    +0.000 A 
ATOM     18  C   UNL     1      50.652   4.382  17.665  0.00  0.00    +0.000 A 
ATOM     19  C   UNL     1      49.305   4.303  17.290  0.00  0.00    +0.000 A 
ATOM     20  C   UNL     1      48.785   3.049  16.945  0.00  0.00    +0.000 A 
ATOM     21  C   UNL     1      49.602   1.914  16.963  0.00  0.00    +0.000 A 
BRANCH  16  23
ATOM     22  C   UNL     1      53.031   0.893  17.570  0.00  0.00    +0.000 C 
ATOM     23  O   UNL     1      51.638   0.827  17.286  0.00  0.00    +0.000 OA
ENDBRANCH  16  23
ENDBRANCH  15  19
ENDBRANCH   1  15
TORSDOF 4
ENDMDL
MODEL 5
REMARK VINA RESULT:    -5.865      1.564      2.050
REMARK INTER + INTRA:          -7.978
REMARK INTER:                  -7.634
REMARK INTRA:                  -0.344
REMARK UNBOUND:                -0.741
REMARK  Name = 
REMARK  7 active torsions:
REMARK  status: ('A' for Active; 'I' for Inactive)
REMARK    1  A    between atoms: C_1  and  O_2
REMARK    2  A    between atoms: O_2  and  C_3
REMARK    3  A    between atoms: C_6  and  C_7
REMARK    4  A    between atoms: C_7  and  N_8
REMARK    5  A    between atoms: C_14  and  C_15
REMARK    6  A    between atoms: N_17  and  C_18
REMARK    7  A    between atoms: N_17  and  C_19
REMARK                            x       y       z     vdW  Elec       q    Type
REMARK                         _______ _______ _______ _____ _____    ______ ____
ROOT
ATOM      1  N   UNL     1      44.395   5.026  11.186  0.00  0.00    +0.000 N 
ATOM      2  C   UNL     1      43.110   5.484  10.997  0.00  0.00    +0.000 A 
ATOM      3  C   UNL     1      43.055   6.788  11.437  0.00  0.00    +0.000 A 
ATOM      4  C   UNL     1      44.351   7.137  11.904  0.00  0.00    +0.000 A 
ATOM      5  C   UNL     1      44.911   8.276  12.496  0.00  0.00    +0.000 A 
ATOM      6  C   UNL     1      46.266   8.227  12.822  0.00  0.00    +0.000 A 
ATOM      7  C   UNL     1      47.010   7.078  12.535  0.00  0.00    +0.000 A 
ATOM      8  N   UNL     1      46.495   5.941  11.996  0.00  0.00    +0.000 NA
ATOM      9  C   UNL     1      45.177   6.032  11.706  0.00  0.00    +0.000 A 
ENDROOT
BRANCH   7  10
ATOM     10  C   UNL     1      48.458   7.091  12.954  0.00  0.00    +0.000 C 
ATOM     11  O   UNL     1      48.772   6.309  13.858  0.00  0.00    +0.000 OA
ATOM     12  N   UNL     1      49.408   7.957  12.390  0.00  0.00    +0.000 N 
ATOM     13  C   UNL     1      49.139   9.062  11.486  0.00  0.00    +0.000 C 
ATOM     14  C   UNL     1      50.768   7.902  12.899  0.00  0.00    +0.000 C 
ENDBRANCH   7  10
BRANCH   1  15
ATOM     15  C   UNL     1      44.814   3.642  11.011  0.00  0.00    +0.000 C 
BRANCH  15  19
ATOM     16  C   UNL     1      46.239   2.806   7.009  0.00  0.00    +0.000 A 
ATOM     17  C   UNL     1      45.916   1.764   7.872  0.00  0.00    +0.000 A 
ATOM     18  C   UNL     1      45.473   2.040   9.169  0.00  0.00    +0.000 A 
ATOM     19  C   UNL     1      45.334   3.356   9.625  0.00  0.00    +0.000 A 
ATOM     20  C   UNL     1      45.643   4.400   8.743  0.00  0.00    +0.000 A 
ATOM     21  C   UNL     1      46.094   4.123   7.448  0.00  0.00    +0.000 A 
BRANCH  16  23
ATOM     22  C   UNL     1      48.052   2.238   5.582  0.00  0.00    +0.000 C 
ATOM     23  O   UNL     1      46.705   2.673   5.729  0.00  0.00    +0.000 OA
ENDBRANCH  16  23
ENDBRANCH  15  19
ENDBRANCH   1  15
TORSDOF 4
ENDMDL
MODEL 6
REMARK VINA RESULT:    -5.787      3.233      7.555
REMARK INTER + INTRA:          -7.882
REMARK INTER:                  -7.193
REMARK INTRA:                  -0.689
REMARK UNBOUND:                -0.741
REMARK  Name = 
REMARK  7 active torsions:
REMARK  status: ('A' for Active; 'I' for Inactive)
REMARK    1  A    between atoms: C_1  and  O_2
REMARK    2  A    between atoms: O_2  and  C_3
REMARK    3  A    between atoms: C_6  and  C_7
REMARK    4  A    between atoms: C_7  and  N_8
REMARK    5  A    between atoms: C_14  and  C_15
REMARK    6  A    between atoms: N_17  and  C_18
REMARK    7  A    between atoms: N_17  and  C_19
REMARK                            x       y       z     vdW  Elec       q    Type
REMARK                         _______ _______ _______ _____ _____    ______ ____
ROOT
ATOM      1  N   UNL     1      46.992   7.114  13.250  0.00  0.00    +0.000 N 
ATOM      2  C   UNL     1      46.775   8.454  13.475  0.00  0.00    +0.000 A 
ATOM      3  C   UNL     1      45.615   8.814  12.825  0.00  0.00    +0.000 A 
ATOM      4  C   UNL     1      45.107   7.650  12.185  0.00  0.00    +0.000 A 
ATOM      5  C   UNL     1      44.011   7.382  11.355  0.00  0.00    +0.000 A 
ATOM      6  C   UNL     1      43.846   6.067  10.918  0.00  0.00    +0.000 A 
ATOM      7  C   UNL     1      44.747   5.079  11.328  0.00  0.00    +0.000 A 
ATOM      8  N   UNL     1      45.841   5.307  12.101  0.00  0.00    +0.000 NA
ATOM      9  C   UNL     1      45.965   6.597  12.492  0.00  0.00    +0.000 A 
ENDROOT
BRANCH   7  10
ATOM     10  C   UNL     1      44.521   3.694  10.780  0.00  0.00    +0.000 C 
ATOM     11  O   UNL     1      44.042   2.868  11.565  0.00  0.00    +0.000 OA
ATOM     12  N   UNL     1      44.860   3.327   9.468  0.00  0.00    +0.000 N 
ATOM     13  C   UNL     1      45.617   4.122   8.518  0.00  0.00    +0.000 C 
ATOM     14  C   UNL     1      44.626   1.951   9.063  0.00  0.00    +0.000 C 
ENDBRANCH   7  10
BRANCH   1  15
ATOM     15  C   UNL     1      48.205   6.397  13.621  0.00  0.00    +0.000 C 
BRANCH  15  19
ATOM     16  C   UNL     1      48.145   4.846  17.662  0.00  0.00    +0.000 A 
ATOM     17  C   UNL     1      47.415   4.218  16.657  0.00  0.00    +0.000 A 
ATOM     18  C   UNL     1      47.425   4.734  15.358  0.00  0.00    +0.000 A 
ATOM     19  C   UNL     1      48.169   5.875  15.035  0.00  0.00    +0.000 A 
ATOM     20  C   UNL     1      48.916   6.490  16.048  0.00  0.00    +0.000 A 
ATOM     21  C   UNL     1      48.900   5.977  17.349  0.00  0.00    +0.000 A 
BRANCH  16  23
ATOM     22  C   UNL     1      48.138   5.493  19.949  0.00  0.00    +0.000 C 
ATOM     23  O   UNL     1      48.201   4.459  18.973  0.00  0.00    +0.000 OA
ENDBRANCH  16  23
ENDBRANCH  15  19
ENDBRANCH   1  15
TORSDOF 4
ENDMDL
MODEL 7
REMARK VINA RESULT:    -5.778      3.405      5.281
REMARK INTER + INTRA:          -7.871
REMARK INTER:                  -7.182
REMARK INTRA:                  -0.688
REMARK UNBOUND:                -0.741
REMARK  Name = 
REMARK  7 active torsions:
REMARK  status: ('A' for Active; 'I' for Inactive)
REMARK    1  A    between atoms: C_1  and  O_2
REMARK    2  A    between atoms: O_2  and  C_3
REMARK    3  A    between atoms: C_6  and  C_7
REMARK    4  A    between atoms: C_7  and  N_8
REMARK    5  A    between atoms: C_14  and  C_15
REMARK    6  A    between atoms: N_17  and  C_18
REMARK    7  A    between atoms: N_17  and  C_19
REMARK                            x       y       z     vdW  Elec       q    Type
REMARK                         _______ _______ _______ _____ _____    ______ ____
ROOT
ATOM      1  N   UNL     1      47.281   7.318  12.804  0.00  0.00    +0.000 N 
ATOM      2  C   UNL     1      47.823   8.093  11.804  0.00  0.00    +0.000 A 
ATOM      3  C   UNL     1      49.119   8.398  12.156  0.00  0.00    +0.000 A 
ATOM      4  C   UNL     1      49.375   7.784  13.412  0.00  0.00    +0.000 A 
ATOM      5  C   UNL     1      50.465   7.759  14.292  0.00  0.00    +0.000 A 
ATOM      6  C   UNL     1      50.324   7.016  15.464  0.00  0.00    +0.000 A 
ATOM      7  C   UNL     1      49.136   6.319  15.708  0.00  0.00    +0.000 A 
ATOM      8  N   UNL     1      48.045   6.349  14.897  0.00  0.00    +0.000 NA
ATOM      9  C   UNL     1      48.225   7.089  13.779  0.00  0.00    +0.000 A 
ENDROOT
BRANCH   7  10
ATOM     10  C   UNL     1      49.049   5.573  17.014  0.00  0.00    +0.000 C 
ATOM     11  O   UNL     1      49.255   4.355  16.962  0.00  0.00    +0.000 OA
ATOM     12  N   UNL     1      48.720   6.195  18.229  0.00  0.00    +0.000 N 
ATOM     13  C   UNL     1      48.249   7.558  18.400  0.00  0.00    +0.000 C 
ATOM     14  C   UNL     1      48.634   5.365  19.419  0.00  0.00    +0.000 C 
ENDBRANCH   7  10
BRANCH   1  15
ATOM     15  C   UNL     1      45.877   6.940  12.889  0.00  0.00    +0.000 C 
BRANCH  15  19
ATOM     16  C   UNL     1      44.900   3.336  10.697  0.00  0.00    +0.000 A 
ATOM     17  C   UNL     1      45.180   3.277  12.059  0.00  0.00    +0.000 A 
ATOM     18  C   UNL     1      45.511   4.442  12.757  0.00  0.00    +0.000 A 
ATOM     19  C   UNL     1      45.559   5.685  12.116  0.00  0.00    +0.000 A 
ATOM     20  C   UNL     1      45.258   5.739  10.749  0.00  0.00    +0.000 A 
ATOM     21  C   UNL     1      44.933   4.572  10.049  0.00  0.00    +0.000 A 
BRANCH  16  23
ATOM     22  C   UNL     1      45.423   2.057   8.763  0.00  0.00    +0.000 C 
ATOM     23  O   UNL     1      44.587   2.273   9.895  0.00  0.00    +0.000 OA
ENDBRANCH  16  23
ENDBRANCH  15  19
ENDBRANCH   1  15
TORSDOF 4
ENDMDL
MODEL 8
REMARK VINA RESULT:    -5.610      4.686      7.108
REMARK INTER + INTRA:          -7.663
REMARK INTER:                  -6.921
REMARK INTRA:                  -0.742
REMARK UNBOUND:                -0.741
REMARK  Name = 
REMARK  7 active torsions:
REMARK  status: ('A' for Active; 'I' for Inactive)
REMARK    1  A    between atoms: C_1  and  O_2
REMARK    2  A    between atoms: O_2  and  C_3
REMARK    3  A    between atoms: C_6  and  C_7
REMARK    4  A    between atoms: C_7  and  N_8
REMARK    5  A    between atoms: C_14  and  C_15
REMARK    6  A    between atoms: N_17  and  C_18
REMARK    7  A    between atoms: N_17  and  C_19
REMARK                            x       y       z     vdW  Elec       q    Type
REMARK                         _______ _______ _______ _____ _____    ______ ____
ROOT
ATOM      1  N   UNL     1      48.648   7.741  14.725  0.00  0.00    +0.000 N 
ATOM      2  C   UNL     1      48.131   8.977  15.043  0.00  0.00    +0.000 A 
ATOM      3  C   UNL     1      48.297   9.174  16.395  0.00  0.00    +0.000 A 
ATOM      4  C   UNL     1      48.942   8.020  16.918  0.00  0.00    +0.000 A 
ATOM      5  C   UNL     1      49.336   7.607  18.198  0.00  0.00    +0.000 A 
ATOM      6  C   UNL     1      49.963   6.365  18.304  0.00  0.00    +0.000 A 
ATOM      7  C   UNL     1      50.191   5.600  17.156  0.00  0.00    +0.000 A 
ATOM      8  N   UNL     1      49.792   5.950  15.905  0.00  0.00    +0.000 NA
ATOM      9  C   UNL     1      49.180   7.156  15.852  0.00  0.00    +0.000 A 
ENDROOT
BRANCH   7  10
ATOM     10  C   UNL     1      50.838   4.254  17.361  0.00  0.00    +0.000 C 
ATOM     11  O   UNL     1      52.065   4.255  17.502  0.00  0.00    +0.000 OA
ATOM     12  N   UNL     1      50.114   3.051  17.362  0.00  0.00    +0.000 N 
ATOM     13  C   UNL     1      48.717   2.884  16.999  0.00  0.00    +0.000 C 
ATOM     14  C   UNL     1      50.852   1.812  17.537  0.00  0.00    +0.000 C 
ENDBRANCH   7  10
BRANCH   1  15
ATOM     15  C   UNL     1      48.506   7.091  13.429  0.00  0.00    +0.000 C 
BRANCH  15  19
ATOM     16  C   UNL     1      44.644   5.184  12.989  0.00  0.00    +0.000 A 
ATOM     17  C   UNL     1      45.719   4.480  13.525  0.00  0.00    +0.000 A 
ATOM     18  C   UNL     1      46.967   5.097  13.649  0.00  0.00    +0.000 A 
ATOM     19  C   UNL     1      47.165   6.425  13.252  0.00  0.00    +0.000 A 
ATOM     20  C   UNL     1      46.073   7.131  12.730  0.00  0.00    +0.000 A 
ATOM     21  C   UNL     1      44.826   6.512  12.600  0.00  0.00    +0.000 A 
BRANCH  16  23
ATOM     22  C   UNL     1      42.537   5.433  11.919  0.00  0.00    +0.000 C 
ATOM     23  O   UNL     1      43.382   4.692  12.792  0.00  0.00    +0.000 OA
ENDBRANCH  16  23
ENDBRANCH  15  19
ENDBRANCH   1  15
TORSDOF 4
ENDMDL
MODEL 9
REMARK VINA RESULT:    -5.397      2.685      6.837
REMARK INTER + INTRA:          -7.400
REMARK INTER:                  -6.773
REMARK INTRA:                  -0.627
REMARK UNBOUND:                -0.741
REMARK  Name = 
REMARK  7 active torsions:
REMARK  status: ('A' for Active; 'I' for Inactive)
REMARK    1  A    between atoms: C_1  and  O_2
REMARK    2  A    between atoms: O_2  and  C_3
REMARK    3  A    between atoms: C_6  and  C_7
REMARK    4  A    between atoms: C_7  and  N_8
REMARK    5  A    between atoms: C_14  and  C_15
REMARK    6  A    between atoms: N_17  and  C_18
REMARK    7  A    between atoms: N_17  and  C_19
REMARK                            x       y       z     vdW  Elec       q    Type
REMARK                         _______ _______ _______ _____ _____    ______ ____
ROOT
ATOM      1  N   UNL     1      47.116   7.308  13.304  0.00  0.00    +0.000 N 
ATOM      2  C   UNL     1      46.833   8.638  13.519  0.00  0.00    +0.000 A 
ATOM      3  C   UNL     1      45.641   8.927  12.894  0.00  0.00    +0.000 A 
ATOM      4  C   UNL     1      45.180   7.731  12.280  0.00  0.00    +0.000 A 
ATOM      5  C   UNL     1      44.080   7.394  11.481  0.00  0.00    +0.000 A 
ATOM      6  C   UNL     1      43.975   6.068  11.063  0.00  0.00    +0.000 A 
ATOM      7  C   UNL     1      44.937   5.134  11.462  0.00  0.00    +0.000 A 
ATOM      8  N   UNL     1      46.036   5.429  12.204  0.00  0.00    +0.000 NA
ATOM      9  C   UNL     1      46.100   6.728  12.578  0.00  0.00    +0.000 A 
ENDROOT
BRANCH   7  10
ATOM     10  C   UNL     1      44.772   3.732  10.935  0.00  0.00    +0.000 C 
ATOM     11  O   UNL     1      44.491   2.865  11.770  0.00  0.00    +0.000 OA
ATOM     12  N   UNL     1      44.956   3.396   9.585  0.00  0.00    +0.000 N 
ATOM     13  C   UNL     1      45.491   4.260   8.547  0.00  0.00    +0.000 C 
ATOM     14  C   UNL     1      44.803   2.003   9.200  0.00  0.00    +0.000 C 
ENDBRANCH   7  10
BRANCH   1  15
ATOM     15  C   UNL     1      48.374   6.662  13.653  0.00  0.00    +0.000 C 
BRANCH  15  19
ATOM     16  C   UNL     1      51.786   8.781  12.037  0.00  0.00    +0.000 A 
ATOM     17  C   UNL     1      50.882   8.151  11.186  0.00  0.00    +0.000 A 
ATOM     18  C   UNL     1      49.792   7.454  11.716  0.00  0.00    +0.000 A 
ATOM     19  C   UNL     1      49.577   7.381  13.097  0.00  0.00    +0.000 A 
ATOM     20  C   UNL     1      50.481   8.034  13.945  0.00  0.00    +0.000 A 
ATOM     21  C   UNL     1      51.576   8.725  13.415  0.00  0.00    +0.000 A 
BRANCH  16  23
ATOM     22  C   UNL     1      52.897  10.011  10.334  0.00  0.00    +0.000 C 
ATOM     23  O   UNL     1      52.902   9.472  11.651  0.00  0.00    +0.000 OA
ENDBRANCH  16  23
ENDBRANCH  15  19
ENDBRANCH   1  15
TORSDOF 4
ENDMDL
