MODEL 1
REMARK VINA RESULT:    -8.325      0.000      0.000
REMARK INTER + INTRA:         -10.820
REMARK INTER:                 -10.272
REMARK INTRA:                  -0.548
REMARK UNBOUND:                -0.548
REMARK  Name = 
REMARK  7 active torsions:
REMARK  status: ('A' for Active; 'I' for Inactive)
REMARK    1  A    between atoms: C_1  and  C_2
REMARK    2  A    between atoms: C_10  and  C_11
REMARK    3  A    between atoms: C_11  and  C_12
REMARK    4  A    between atoms: C_11  and  C_13
REMARK    5  A    between atoms: C_11  and  C_14
REMARK    6  A    between atoms: C_14  and  N_15
REMARK    7  A    between atoms: C_19  and  C_20
REMARK                            x       y       z     vdW  Elec       q    Type
REMARK                         _______ _______ _______ _____ _____    ______ ____
ROOT
ATOM      1  C   UNL     1      44.124   5.295  11.839  0.00  0.00    +0.000 C 
ATOM      2  C   UNL     1      45.276   4.408  12.356  0.00  0.00    +0.000 C 
ATOM      3  C   UNL     1      42.979   5.248  12.885  0.00  0.00    +0.000 C 
ENDROOT
BRANCH   1  13
ATOM      4  C   UNL     1      51.779   8.699  11.401  0.00  0.00    +0.000 C 
ATOM      5  C   UNL     1      50.494   8.740  12.222  0.00  0.00    +0.000 C 
ATOM      6  C   UNL     1      49.551   9.826  11.679  0.00  0.00    +0.000 C 
ATOM      7  C   UNL     1      48.194   9.804  12.381  0.00  0.00    +0.000 C 
ATOM      8  N   UNL     1      47.671   8.453  12.303  0.00  0.00    +0.000 N 
ATOM      9  C   UNL     1      46.356   8.237  11.990  0.00  0.00    +0.000 A 
ATOM     10  N   UNL     1      45.592   9.285  11.652  0.00  0.00    +0.000 NA
ATOM     11  C   UNL     1      44.311   9.043  11.353  0.00  0.00    +0.000 A 
ATOM     12  C   UNL     1      43.751   7.795  11.386  0.00  0.00    +0.000 A 
ATOM     13  C   UNL     1      44.587   6.748  11.722  0.00  0.00    +0.000 A 
ATOM     14  N   UNL     1      45.885   6.980  12.013  0.00  0.00    +0.000 NA
ATOM     15  C   UNL     1      48.458   7.403  12.922  0.00  0.00    +0.000 C 
ATOM     16  C   UNL     1      49.814   7.359  12.224  0.00  0.00    +0.000 C 
ENDBRANCH   1  13
BRANCH   1  17
ATOM     17  C   UNL     1      43.571   4.703  10.511  0.00  0.00    +0.000 C 
BRANCH  17  18
ATOM     18  N   UNL     1      43.918   3.280  10.329  0.00  0.00    +0.000 N 
ATOM     19  C   UNL     1      44.862   3.050   9.323  0.00  0.00    +0.000 A 
ATOM     20  C   UNL     1      45.296   1.748   9.084  0.00  0.00    +0.000 A 
ATOM     21  C   UNL     1      46.211   1.515   8.057  0.00  0.00    +0.000 A 
ATOM     22  C   UNL     1      46.678   2.580   7.292  0.00  0.00    +0.000 A 
ATOM     23  C   UNL     1      46.215   3.843   7.618  0.00  0.00    +0.000 A 
ATOM     24  N   UNL     1      45.338   4.094   8.617  0.00  0.00    +0.000 NA
ATOM     25  H   UNL     1      43.109   2.689  10.157  0.00  0.00    +0.000 HD
BRANCH  22  26
ATOM     26  C   UNL     1      47.614   2.330   6.174  0.00  0.00    +0.000 C 
ATOM     27  N   UNL     1      47.637   3.192   5.116  0.00  0.00    +0.000 N 
ATOM     28  O   UNL     1      48.361   1.353   6.184  0.00  0.00    +0.000 OA
ATOM     29  H   UNL     1      47.073   4.016   5.001  0.00  0.00    +0.000 HD
ATOM     30  H   UNL     1      48.287   2.969   4.377  0.00  0.00    +0.000 HD
ENDBRANCH  22  26
ENDBRANCH  17  18
ENDBRANCH   1  17
TORSDOF 4
ENDMDL
MODEL 2
REMARK VINA RESULT:    -8.255      2.771      3.651
REMARK INTER + INTRA:         -10.734
REMARK INTER:                 -10.070
REMARK INTRA:                  -0.664
REMARK UNBOUND:                -0.548
REMARK  Name = 
REMARK  7 active torsions:
REMARK  status: ('A' for Active; 'I' for Inactive)
REMARK    1  A    between atoms: C_1  and  C_2
REMARK    2  A    between atoms: C_10  and  C_11
REMARK    3  A    between atoms: C_11  and  C_12
REMARK    4  A    between atoms: C_11  and  C_13
REMARK    5  A    between atoms: C_11  and  C_14
REMARK    6  A    between atoms: C_14  and  N_15
REMARK    7  A    between atoms: C_19  and  C_20
REMARK                            x       y       z     vdW  Elec       q    Type
REMARK                         _______ _______ _______ _____ _____    ______ ____
ROOT
ATOM      1  C   UNL     1      43.999   4.536  12.256  0.00  0.00    +0.000 C 
ATOM      2  C   UNL     1      43.924   3.183  12.992  0.00  0.00    +0.000 C 
ATOM      3  C   UNL     1      42.811   5.409  12.740  0.00  0.00    +0.000 C 
ENDROOT
BRANCH   1  13
ATOM      4  C   UNL     1      50.014   2.777  17.833  0.00  0.00    +0.000 C 
ATOM      5  C   UNL     1      49.020   3.867  17.446  0.00  0.00    +0.000 C 
ATOM      6  C   UNL     1      49.671   4.858  16.467  0.00  0.00    +0.000 C 
ATOM      7  C   UNL     1      48.667   5.883  15.943  0.00  0.00    +0.000 C 
ATOM      8  N   UNL     1      47.528   5.161  15.406  0.00  0.00    +0.000 N 
ATOM      9  C   UNL     1      46.971   5.536  14.213  0.00  0.00    +0.000 A 
ATOM     10  N   UNL     1      47.560   6.505  13.501  0.00  0.00    +0.000 NA
ATOM     11  C   UNL     1      46.991   6.850  12.341  0.00  0.00    +0.000 A 
ATOM     12  C   UNL     1      45.847   6.275  11.860  0.00  0.00    +0.000 A 
ATOM     13  C   UNL     1      45.291   5.267  12.624  0.00  0.00    +0.000 A 
ATOM     14  N   UNL     1      45.865   4.902  13.791  0.00  0.00    +0.000 NA
ATOM     15  C   UNL     1      46.791   4.314  16.325  0.00  0.00    +0.000 C 
ATOM     16  C   UNL     1      47.747   3.244  16.847  0.00  0.00    +0.000 C 
ENDBRANCH   1  13
BRANCH   1  17
ATOM     17  C   UNL     1      43.820   4.306  10.729  0.00  0.00    +0.000 C 
BRANCH  17  18
ATOM     18  N   UNL     1      44.068   2.908  10.327  0.00  0.00    +0.000 N 
ATOM     19  C   UNL     1      44.977   2.774   9.271  0.00  0.00    +0.000 A 
ATOM     20  C   UNL     1      45.319   1.498   8.828  0.00  0.00    +0.000 A 
ATOM     21  C   UNL     1      46.197   1.366   7.752  0.00  0.00    +0.000 A 
ATOM     22  C   UNL     1      46.719   2.503   7.141  0.00  0.00    +0.000 A 
ATOM     23  C   UNL     1      46.347   3.728   7.666  0.00  0.00    +0.000 A 
ATOM     24  N   UNL     1      45.507   3.880   8.715  0.00  0.00    +0.000 NA
ATOM     25  H   UNL     1      43.220   2.401  10.091  0.00  0.00    +0.000 HD
BRANCH  22  26
ATOM     26  C   UNL     1      47.616   2.366   5.973  0.00  0.00    +0.000 C 
ATOM     27  N   UNL     1      47.474   3.222   4.918  0.00  0.00    +0.000 N 
ATOM     28  O   UNL     1      48.477   1.488   5.938  0.00  0.00    +0.000 OA
ATOM     29  H   UNL     1      46.807   3.970   4.838  0.00  0.00    +0.000 HD
ATOM     30  H   UNL     1      48.104   3.078   4.144  0.00  0.00    +0.000 HD
ENDBRANCH  22  26
ENDBRANCH  17  18
ENDBRANCH   1  17
TORSDOF 4
ENDMDL
MODEL 3
REMARK VINA RESULT:    -7.765      3.464      5.470
REMARK INTER + INTRA:         -10.129
REMARK INTER:                  -9.331
REMARK INTRA:                  -0.798
REMARK UNBOUND:                -0.548
REMARK  Name = 
REMARK  7 active torsions:
REMARK  status: ('A' for Active; 'I' for Inactive)
REMARK    1  A    between atoms: C_1  and  C_2
REMARK    2  A    between atoms: C_10  and  C_11
REMARK    3  A    between atoms: C_11  and  C_12
REMARK    4  A    between atoms: C_11  and  C_13
REMARK    5  A    between atoms: C_11  and  C_14
REMARK    6  A    between atoms: C_14  and  N_15
REMARK    7  A    between atoms: C_19  and  C_20
REMARK                            x       y       z     vdW  Elec       q    Type
REMARK                         _______ _______ _______ _____ _____    ______ ____
ROOT
ATOM      1  C   UNL     1      48.199   4.374  16.914  0.00  0.00    +0.000 C 
ATOM      2  C   UNL     1      48.921   3.149  17.512  0.00  0.00    +0.000 C 
ATOM      3  C   UNL     1      47.161   4.871  17.954  0.00  0.00    +0.000 C 
ENDROOT
BRANCH   1  13
ATOM      4  C   UNL     1      48.398  10.509  11.196  0.00  0.00    +0.000 C 
ATOM      5  C   UNL     1      49.223   9.344  11.733  0.00  0.00    +0.000 C 
ATOM      6  C   UNL     1      50.156   9.825  12.856  0.00  0.00    +0.000 C 
ATOM      7  C   UNL     1      50.894   8.664  13.519  0.00  0.00    +0.000 C 
ATOM      8  N   UNL     1      49.908   7.681  13.929  0.00  0.00    +0.000 N 
ATOM      9  C   UNL     1      49.995   7.086  15.159  0.00  0.00    +0.000 A 
ATOM     10  N   UNL     1      50.936   7.507  16.015  0.00  0.00    +0.000 NA
ATOM     11  C   UNL     1      50.996   6.905  17.208  0.00  0.00    +0.000 A 
ATOM     12  C   UNL     1      50.160   5.890  17.585  0.00  0.00    +0.000 A 
ATOM     13  C   UNL     1      49.195   5.509  16.673  0.00  0.00    +0.000 A 
ATOM     14  N   UNL     1      49.118   6.118  15.470  0.00  0.00    +0.000 NA
ATOM     15  C   UNL     1      49.092   7.091  12.886  0.00  0.00    +0.000 C 
ATOM     16  C   UNL     1      48.300   8.212  12.219  0.00  0.00    +0.000 C 
ENDBRANCH   1  13
BRANCH   1  17
ATOM     17  C   UNL     1      47.418   3.943  15.640  0.00  0.00    +0.000 C 
BRANCH  17  18
ATOM     18  N   UNL     1      46.725   5.069  14.985  0.00  0.00    +0.000 N 
ATOM     19  C   UNL     1      46.069   4.719  13.799  0.00  0.00    +0.000 A 
ATOM     20  C   UNL     1      45.348   5.691  13.109  0.00  0.00    +0.000 A 
ATOM     21  C   UNL     1      44.723   5.351  11.910  0.00  0.00    +0.000 A 
ATOM     22  C   UNL     1      44.826   4.051  11.422  0.00  0.00    +0.000 A 
ATOM     23  C   UNL     1      45.538   3.144  12.187  0.00  0.00    +0.000 A 
ATOM     24  N   UNL     1      46.141   3.449  13.358  0.00  0.00    +0.000 NA
ATOM     25  H   UNL     1      47.334   5.861  14.797  0.00  0.00    +0.000 HD
BRANCH  22  26
ATOM     26  C   UNL     1      44.202   3.698  10.128  0.00  0.00    +0.000 C 
ATOM     27  N   UNL     1      43.885   4.692   9.246  0.00  0.00    +0.000 N 
ATOM     28  O   UNL     1      43.959   2.526   9.844  0.00  0.00    +0.000 OA
ATOM     29  H   UNL     1      44.035   5.677   9.374  0.00  0.00    +0.000 HD
ATOM     30  H   UNL     1      43.452   4.396   8.383  0.00  0.00    +0.000 HD
ENDBRANCH  22  26
ENDBRANCH  17  18
ENDBRANCH   1  17
TORSDOF 4
ENDMDL
MODEL 4
REMARK VINA RESULT:    -7.087      3.895      8.039
REMARK INTER + INTRA:          -9.292
REMARK INTER:                  -8.609
REMARK INTRA:                  -0.683
REMARK UNBOUND:                -0.548
REMARK  Name = 
REMARK  7 active torsions:
REMARK  status: ('A' for Active; 'I' for Inactive)
REMARK    1  A    between atoms: C_1  and  C_2
REMARK    2  A    between atoms: C_10  and  C_11
REMARK    3  A    between atoms: C_11  and  C_12
REMARK    4  A    between atoms: C_11  and  C_13
REMARK    5  A    between atoms: C_11  and  C_14
REMARK    6  A    between atoms: C_14  and  N_15
REMARK    7  A    between atoms: C_19  and  C_20
REMARK                            x       y       z     vdW  Elec       q    Type
REMARK                         _______ _______ _______ _____ _____    ______ ____
ROOT
ATOM      1  C   UNL     1      46.724   7.562  12.433  0.00  0.00    +0.000 C 
ATOM      2  C   UNL     1      48.014   7.580  11.586  0.00  0.00    +0.000 C 
ATOM      3  C   UNL     1      45.769   8.647  11.870  0.00  0.00    +0.000 C 
ENDROOT
BRANCH   1  13
ATOM      4  C   UNL     1      47.071   1.664   6.477  0.00  0.00    +0.000 C 
ATOM      5  C   UNL     1      46.087   2.568   7.213  0.00  0.00    +0.000 C 
ATOM      6  C   UNL     1      45.522   1.845   8.447  0.00  0.00    +0.000 C 
ATOM      7  C   UNL     1      44.643   2.765   9.292  0.00  0.00    +0.000 C 
ATOM      8  N   UNL     1      45.405   3.965   9.588  0.00  0.00    +0.000 N 
ATOM      9  C   UNL     1      45.391   4.500  10.848  0.00  0.00    +0.000 A 
ATOM     10  N   UNL     1      44.754   3.838  11.824  0.00  0.00    +0.000 NA
ATOM     11  C   UNL     1      44.757   4.387  13.043  0.00  0.00    +0.000 A 
ATOM     12  C   UNL     1      45.362   5.580  13.334  0.00  0.00    +0.000 A 
ATOM     13  C   UNL     1      46.021   6.210  12.297  0.00  0.00    +0.000 A 
ATOM     14  N   UNL     1      46.035   5.658  11.064  0.00  0.00    +0.000 NA
ATOM     15  C   UNL     1      45.846   4.761   8.459  0.00  0.00    +0.000 C 
ATOM     16  C   UNL     1      46.765   3.893   7.603  0.00  0.00    +0.000 C 
ENDBRANCH   1  13
BRANCH   1  17
ATOM     17  C   UNL     1      47.062   7.949  13.900  0.00  0.00    +0.000 C 
BRANCH  17  18
ATOM     18  N   UNL     1      48.511   8.087  14.138  0.00  0.00    +0.000 N 
ATOM     19  C   UNL     1      49.017   7.201  15.095  0.00  0.00    +0.000 A 
ATOM     20  C   UNL     1      50.381   7.213  15.378  0.00  0.00    +0.000 A 
ATOM     21  C   UNL     1      50.879   6.354  16.357  0.00  0.00    +0.000 A 
ATOM     22  C   UNL     1      50.012   5.499  17.034  0.00  0.00    +0.000 A 
ATOM     23  C   UNL     1      48.678   5.535  16.668  0.00  0.00    +0.000 A 
ATOM     24  N   UNL     1      48.175   6.351  15.713  0.00  0.00    +0.000 NA
ATOM     25  H   UNL     1      48.788   9.032  14.391  0.00  0.00    +0.000 HD
BRANCH  22  26
ATOM     26  C   UNL     1      50.531   4.619  18.104  0.00  0.00    +0.000 C 
ATOM     27  N   UNL     1      50.048   3.347  18.215  0.00  0.00    +0.000 N 
ATOM     28  O   UNL     1      51.382   5.023  18.895  0.00  0.00    +0.000 OA
ATOM     29  H   UNL     1      49.354   2.916  17.630  0.00  0.00    +0.000 HD
ATOM     30  H   UNL     1      50.428   2.794  18.969  0.00  0.00    +0.000 HD
ENDBRANCH  22  26
ENDBRANCH  17  18
ENDBRANCH   1  17
TORSDOF 4
ENDMDL
MODEL 5
REMARK VINA RESULT:    -6.950      3.631      7.540
REMARK INTER + INTRA:          -9.123
REMARK INTER:                  -8.190
REMARK INTRA:                  -0.934
REMARK UNBOUND:                -0.548
REMARK  Name = 
REMARK  7 active torsions:
REMARK  status: ('A' for Active; 'I' for Inactive)
REMARK    1  A    between atoms: C_1  and  C_2
REMARK    2  A    between atoms: C_10  and  C_11
REMARK    3  A    between atoms: C_11  and  C_12
REMARK    4  A    between atoms: C_11  and  C_13
REMARK    5  A    between atoms: C_11  and  C_14
REMARK    6  A    between atoms: C_14  and  N_15
REMARK    7  A    between atoms: C_19  and  C_20
REMARK                            x       y       z     vdW  Elec       q    Type
REMARK                         _______ _______ _______ _____ _____    ______ ____
ROOT
ATOM      1  C   UNL     1      48.489   9.311  12.534  0.00  0.00    +0.000 C 
ATOM      2  C   UNL     1      49.205  10.011  11.360  0.00  0.00    +0.000 C 
ATOM      3  C   UNL     1      48.646  10.208  13.791  0.00  0.00    +0.000 C 
ENDROOT
BRANCH   1  13
ATOM      4  C   UNL     1      43.382   2.657  12.405  0.00  0.00    +0.000 C 
ATOM      5  C   UNL     1      43.876   3.807  11.532  0.00  0.00    +0.000 C 
ATOM      6  C   UNL     1      42.938   5.018  11.667  0.00  0.00    +0.000 C 
ATOM      7  C   UNL     1      43.474   6.238  10.922  0.00  0.00    +0.000 C 
ATOM      8  N   UNL     1      44.835   6.473  11.367  0.00  0.00    +0.000 N 
ATOM      9  C   UNL     1      45.261   7.743  11.649  0.00  0.00    +0.000 A 
ATOM     10  N   UNL     1      44.373   8.746  11.612  0.00  0.00    +0.000 NA
ATOM     11  C   UNL     1      44.820   9.975  11.890  0.00  0.00    +0.000 A 
ATOM     12  C   UNL     1      46.125  10.254  12.196  0.00  0.00    +0.000 A 
ATOM     13  C   UNL     1      46.994   9.181  12.240  0.00  0.00    +0.000 A 
ATOM     14  N   UNL     1      46.550   7.934  11.973  0.00  0.00    +0.000 NA
ATOM     15  C   UNL     1      45.797   5.412  11.138  0.00  0.00    +0.000 C 
ATOM     16  C   UNL     1      45.323   4.177  11.900  0.00  0.00    +0.000 C 
ENDBRANCH   1  13
BRANCH   1  17
ATOM     17  C   UNL     1      49.190   7.956  12.834  0.00  0.00    +0.000 C 
BRANCH  17  18
ATOM     18  N   UNL     1      49.750   7.890  14.198  0.00  0.00    +0.000 N 
ATOM     19  C   UNL     1      49.211   6.866  14.984  0.00  0.00    +0.000 A 
ATOM     20  C   UNL     1      49.689   6.680  16.279  0.00  0.00    +0.000 A 
ATOM     21  C   UNL     1      49.127   5.682  17.074  0.00  0.00    +0.000 A 
ATOM     22  C   UNL     1      48.103   4.886  16.565  0.00  0.00    +0.000 A 
ATOM     23  C   UNL     1      47.711   5.122  15.259  0.00  0.00    +0.000 A 
ATOM     24  N   UNL     1      48.251   6.076  14.466  0.00  0.00    +0.000 NA
ATOM     25  H   UNL     1      49.672   8.766  14.707  0.00  0.00    +0.000 HD
BRANCH  22  26
ATOM     26  C   UNL     1      47.475   3.857  17.421  0.00  0.00    +0.000 C 
ATOM     27  N   UNL     1      48.031   3.566  18.634  0.00  0.00    +0.000 N 
ATOM     28  O   UNL     1      46.467   3.257  17.049  0.00  0.00    +0.000 OA
ATOM     29  H   UNL     1      48.849   3.989  19.035  0.00  0.00    +0.000 HD
ATOM     30  H   UNL     1      47.567   2.849  19.172  0.00  0.00    +0.000 HD
ENDBRANCH  22  26
ENDBRANCH  17  18
ENDBRANCH   1  17
TORSDOF 4
ENDMDL
MODEL 6
REMARK VINA RESULT:    -6.653      4.037      6.940
REMARK INTER + INTRA:          -8.757
REMARK INTER:                  -7.788
REMARK INTRA:                  -0.970
REMARK UNBOUND:                -0.548
REMARK  Name = 
REMARK  7 active torsions:
REMARK  status: ('A' for Active; 'I' for Inactive)
REMARK    1  A    between atoms: C_1  and  C_2
REMARK    2  A    between atoms: C_10  and  C_11
REMARK    3  A    between atoms: C_11  and  C_12
REMARK    4  A    between atoms: C_11  and  C_13
REMARK    5  A    between atoms: C_11  and  C_14
REMARK    6  A    between atoms: C_14  and  N_15
REMARK    7  A    between atoms: C_19  and  C_20
REMARK                            x       y       z     vdW  Elec       q    Type
REMARK                         _______ _______ _______ _____ _____    ______ ____
ROOT
ATOM      1  C   UNL     1      49.385   9.269  12.505  0.00  0.00    +0.000 C 
ATOM      2  C   UNL     1      48.312  10.060  13.281  0.00  0.00    +0.000 C 
ATOM      3  C   UNL     1      50.147  10.267  11.593  0.00  0.00    +0.000 C 
ENDROOT
BRANCH   1  13
ATOM      4  C   UNL     1      48.848   2.786  17.802  0.00  0.00    +0.000 C 
ATOM      5  C   UNL     1      49.160   4.279  17.762  0.00  0.00    +0.000 C 
ATOM      6  C   UNL     1      50.670   4.502  17.568  0.00  0.00    +0.000 C 
ATOM      7  C   UNL     1      51.006   5.979  17.378  0.00  0.00    +0.000 C 
ATOM      8  N   UNL     1      50.174   6.495  16.306  0.00  0.00    +0.000 N 
ATOM      9  C   UNL     1      50.710   7.311  15.346  0.00  0.00    +0.000 A 
ATOM     10  N   UNL     1      52.031   7.535  15.352  0.00  0.00    +0.000 NA
ATOM     11  C   UNL     1      52.523   8.339  14.403  0.00  0.00    +0.000 A 
ATOM     12  C   UNL     1      51.751   8.941  13.447  0.00  0.00    +0.000 A 
ATOM     13  C   UNL     1      50.400   8.660  13.475  0.00  0.00    +0.000 A 
ATOM     14  N   UNL     1      49.893   7.841  14.421  0.00  0.00    +0.000 NA
ATOM     15  C   UNL     1      48.738   6.435  16.499  0.00  0.00    +0.000 C 
ATOM     16  C   UNL     1      48.346   4.968  16.653  0.00  0.00    +0.000 C 
ENDBRANCH   1  13
BRANCH   1  17
ATOM     17  C   UNL     1      48.694   8.225  11.583  0.00  0.00    +0.000 C 
BRANCH  17  18
ATOM     18  N   UNL     1      48.471   6.928  12.251  0.00  0.00    +0.000 N 
ATOM     19  C   UNL     1      47.126   6.552  12.325  0.00  0.00    +0.000 A 
ATOM     20  C   UNL     1      46.794   5.328  12.902  0.00  0.00    +0.000 A 
ATOM     21  C   UNL     1      45.451   4.968  13.007  0.00  0.00    +0.000 A 
ATOM     22  C   UNL     1      44.465   5.831  12.535  0.00  0.00    +0.000 A 
ATOM     23  C   UNL     1      44.887   7.013  11.952  0.00  0.00    +0.000 A 
ATOM     24  N   UNL     1      46.184   7.376  11.828  0.00  0.00    +0.000 NA
ATOM     25  H   UNL     1      48.873   6.883  13.183  0.00  0.00    +0.000 HD
BRANCH  22  26
ATOM     26  C   UNL     1      43.038   5.472  12.687  0.00  0.00    +0.000 C 
ATOM     27  N   UNL     1      42.122   5.995  11.819  0.00  0.00    +0.000 N 
ATOM     28  O   UNL     1      42.669   4.718  13.586  0.00  0.00    +0.000 OA
ATOM     29  H   UNL     1      42.309   6.619  11.054  0.00  0.00    +0.000 HD
ATOM     30  H   UNL     1      41.162   5.725  11.974  0.00  0.00    +0.000 HD
ENDBRANCH  22  26
ENDBRANCH  17  18
ENDBRANCH   1  17
TORSDOF 4
ENDMDL
MODEL 7
REMARK VINA RESULT:    -6.529      4.074      6.368
REMARK INTER + INTRA:          -8.604
REMARK INTER:                  -7.713
REMARK INTRA:                  -0.892
REMARK UNBOUND:                -0.548
REMARK  Name = 
REMARK  7 active torsions:
REMARK  status: ('A' for Active; 'I' for Inactive)
REMARK    1  A    between atoms: C_1  and  C_2
REMARK    2  A    between atoms: C_10  and  C_11
REMARK    3  A    between atoms: C_11  and  C_12
REMARK    4  A    between atoms: C_11  and  C_13
REMARK    5  A    between atoms: C_11  and  C_14
REMARK    6  A    between atoms: C_14  and  N_15
REMARK    7  A    between atoms: C_19  and  C_20
REMARK                            x       y       z     vdW  Elec       q    Type
REMARK                         _______ _______ _______ _____ _____    ______ ____
ROOT
ATOM      1  C   UNL     1      48.237   8.820  12.886  0.00  0.00    +0.000 C 
ATOM      2  C   UNL     1      48.066  10.313  12.538  0.00  0.00    +0.000 C 
ATOM      3  C   UNL     1      48.749   8.090  11.615  0.00  0.00    +0.000 C 
ENDROOT
BRANCH   1  13
ATOM      4  C   UNL     1      47.581   7.461  21.138  0.00  0.00    +0.000 C 
ATOM      5  C   UNL     1      48.184   8.432  20.127  0.00  0.00    +0.000 C 
ATOM      6  C   UNL     1      49.620   8.008  19.773  0.00  0.00    +0.000 C 
ATOM      7  C   UNL     1      50.208   8.869  18.657  0.00  0.00    +0.000 C 
ATOM      8  N   UNL     1      49.279   8.854  17.543  0.00  0.00    +0.000 N 
ATOM      9  C   UNL     1      49.738   8.702  16.261  0.00  0.00    +0.000 A 
ATOM     10  N   UNL     1      51.042   8.459  16.067  0.00  0.00    +0.000 NA
ATOM     11  C   UNL     1      51.460   8.318  14.805  0.00  0.00    +0.000 A 
ATOM     12  C   UNL     1      50.633   8.418  13.719  0.00  0.00    +0.000 A 
ATOM     13  C   UNL     1      49.296   8.649  13.977  0.00  0.00    +0.000 A 
ATOM     14  N   UNL     1      48.861   8.781  15.248  0.00  0.00    +0.000 NA
ATOM     15  C   UNL     1      47.947   9.373  17.786  0.00  0.00    +0.000 C 
ATOM     16  C   UNL     1      47.300   8.515  18.870  0.00  0.00    +0.000 C 
ENDBRANCH   1  13
BRANCH   1  17
ATOM     17  C   UNL     1      46.854   8.211  13.252  0.00  0.00    +0.000 C 
BRANCH  17  18
ATOM     18  N   UNL     1      46.958   6.858  13.832  0.00  0.00    +0.000 N 
ATOM     19  C   UNL     1      46.299   5.871  13.091  0.00  0.00    +0.000 A 
ATOM     20  C   UNL     1      46.359   4.547  13.520  0.00  0.00    +0.000 A 
ATOM     21  C   UNL     1      45.673   3.569  12.801  0.00  0.00    +0.000 A 
ATOM     22  C   UNL     1      44.945   3.925  11.669  0.00  0.00    +0.000 A 
ATOM     23  C   UNL     1      44.965   5.259  11.300  0.00  0.00    +0.000 A 
ATOM     24  N   UNL     1      45.633   6.222  11.975  0.00  0.00    +0.000 NA
ATOM     25  H   UNL     1      46.639   6.809  14.796  0.00  0.00    +0.000 HD
BRANCH  22  26
ATOM     26  C   UNL     1      44.180   2.896  10.931  0.00  0.00    +0.000 C 
ATOM     27  N   UNL     1      44.770   2.248   9.884  0.00  0.00    +0.000 N 
ATOM     28  O   UNL     1      43.021   2.627  11.244  0.00  0.00    +0.000 OA
ATOM     29  H   UNL     1      45.705   2.389   9.542  0.00  0.00    +0.000 HD
ATOM     30  H   UNL     1      44.200   1.564   9.409  0.00  0.00    +0.000 HD
ENDBRANCH  22  26
ENDBRANCH  17  18
ENDBRANCH   1  17
TORSDOF 4
ENDMDL
MODEL 8
REMARK VINA RESULT:    -6.511      3.743      5.939
REMARK INTER + INTRA:          -8.582
REMARK INTER:                  -7.669
REMARK INTRA:                  -0.913
REMARK UNBOUND:                -0.548
REMARK  Name = 
REMARK  7 active torsions:
REMARK  status: ('A' for Active; 'I' for Inactive)
REMARK    1  A    between atoms: C_1  and  C_2
REMARK    2  A    between atoms: C_10  and  C_11
REMARK    3  A    between atoms: C_11  and  C_12
REMARK    4  A    between atoms: C_11  and  C_13
REMARK    5  A    between atoms: C_11  and  C_14
REMARK    6  A    between atoms: C_14  and  N_15
REMARK    7  A    between atoms: C_19  and  C_20
REMARK                            x       y       z     vdW  Elec       q    Type
REMARK                         _______ _______ _______ _____ _____    ______ ____
ROOT
ATOM      1  C   UNL     1      48.569   8.750  12.498  0.00  0.00    +0.000 C 
ATOM      2  C   UNL     1      48.966   9.847  11.489  0.00  0.00    +0.000 C 
ATOM      3  C   UNL     1      49.440   7.499  12.210  0.00  0.00    +0.000 C 
ENDROOT
BRANCH   1  13
ATOM      4  C   UNL     1      51.303   4.573  19.240  0.00  0.00    +0.000 C 
ATOM      5  C   UNL     1      50.154   5.455  18.760  0.00  0.00    +0.000 C 
ATOM      6  C   UNL     1      50.453   6.932  19.067  0.00  0.00    +0.000 C 
ATOM      7  C   UNL     1      49.395   7.860  18.475  0.00  0.00    +0.000 C 
ATOM      8  N   UNL     1      49.264   7.549  17.064  0.00  0.00    +0.000 N 
ATOM      9  C   UNL     1      49.182   8.554  16.138  0.00  0.00    +0.000 A 
ATOM     10  N   UNL     1      49.334   9.822  16.546  0.00  0.00    +0.000 NA
ATOM     11  C   UNL     1      49.247  10.781  15.618  0.00  0.00    +0.000 A 
ATOM     12  C   UNL     1      49.003  10.533  14.295  0.00  0.00    +0.000 A 
ATOM     13  C   UNL     1      48.874   9.209  13.926  0.00  0.00    +0.000 A 
ATOM     14  N   UNL     1      48.972   8.231  14.852  0.00  0.00    +0.000 NA
ATOM     15  C   UNL     1      48.848   6.202  16.721  0.00  0.00    +0.000 C 
ATOM     16  C   UNL     1      49.900   5.236  17.259  0.00  0.00    +0.000 C 
ENDBRANCH   1  13
BRANCH   1  17
ATOM     17  C   UNL     1      47.083   8.351  12.271  0.00  0.00    +0.000 C 
BRANCH  17  18
ATOM     18  N   UNL     1      46.602   7.352  13.245  0.00  0.00    +0.000 N 
ATOM     19  C   UNL     1      46.013   6.226  12.659  0.00  0.00    +0.000 A 
ATOM     20  C   UNL     1      45.555   5.196  13.477  0.00  0.00    +0.000 A 
ATOM     21  C   UNL     1      44.937   4.090  12.895  0.00  0.00    +0.000 A 
ATOM     22  C   UNL     1      44.789   4.028  11.512  0.00  0.00    +0.000 A 
ATOM     23  C   UNL     1      45.301   5.083  10.775  0.00  0.00    +0.000 A 
ATOM     24  N   UNL     1      45.914   6.159  11.317  0.00  0.00    +0.000 NA
ATOM     25  H   UNL     1      45.957   7.737  13.929  0.00  0.00    +0.000 HD
BRANCH  22  26
ATOM     26  C   UNL     1      44.094   2.877  10.895  0.00  0.00    +0.000 C 
ATOM     27  N   UNL     1      44.672   2.237   9.837  0.00  0.00    +0.000 N 
ATOM     28  O   UNL     1      43.003   2.499  11.319  0.00  0.00    +0.000 OA
ATOM     29  H   UNL     1      45.554   2.460   9.409  0.00  0.00    +0.000 HD
ATOM     30  H   UNL     1      44.150   1.465   9.448  0.00  0.00    +0.000 HD
ENDBRANCH  22  26
ENDBRANCH  17  18
ENDBRANCH   1  17
TORSDOF 4
ENDMDL
MODEL 9
REMARK VINA RESULT:    -6.279      4.089      6.435
REMARK INTER + INTRA:          -8.296
REMARK INTER:                  -7.404
REMARK INTRA:                  -0.892
REMARK UNBOUND:                -0.548
REMARK  Name = 
REMARK  7 active torsions:
REMARK  status: ('A' for Active; 'I' for Inactive)
REMARK    1  A    between atoms: C_1  and  C_2
REMARK    2  A    between atoms: C_10  and  C_11
REMARK    3  A    between atoms: C_11  and  C_12
REMARK    4  A    between atoms: C_11  and  C_13
REMARK    5  A    between atoms: C_11  and  C_14
REMARK    6  A    between atoms: C_14  and  N_15
REMARK    7  A    between atoms: C_19  and  C_20
REMARK                            x       y       z     vdW  Elec       q    Type
REMARK                         _______ _______ _______ _____ _____    ______ ____
ROOT
ATOM      1  C   UNL     1      45.575   5.365  12.399  0.00  0.00    +0.000 C 
ATOM      2  C   UNL     1      44.312   5.127  13.252  0.00  0.00    +0.000 C 
ATOM      3  C   UNL     1      45.275   4.879  10.956  0.00  0.00    +0.000 C 
ENDROOT
BRANCH   1  13
ATOM      4  C   UNL     1      52.419   9.509   9.874  0.00  0.00    +0.000 C 
ATOM      5  C   UNL     1      51.495   9.339  11.077  0.00  0.00    +0.000 C 
ATOM      6  C   UNL     1      50.367  10.383  11.033  0.00  0.00    +0.000 C 
ATOM      7  C   UNL     1      49.339  10.156  12.140  0.00  0.00    +0.000 C 
ATOM      8  N   UNL     1      48.893   8.778  12.062  0.00  0.00    +0.000 N 
ATOM      9  C   UNL     1      47.564   8.473  12.183  0.00  0.00    +0.000 A 
ATOM     10  N   UNL     1      46.676   9.474  12.264  0.00  0.00    +0.000 NA
ATOM     11  C   UNL     1      45.386   9.144  12.384  0.00  0.00    +0.000 A 
ATOM     12  C   UNL     1      44.938   7.852  12.436  0.00  0.00    +0.000 A 
ATOM     13  C   UNL     1      45.892   6.860  12.329  0.00  0.00    +0.000 A 
ATOM     14  N   UNL     1      47.197   7.182  12.195  0.00  0.00    +0.000 NA
ATOM     15  C   UNL     1      49.899   7.748  12.236  0.00  0.00    +0.000 C 
ATOM     16  C   UNL     1      50.932   7.908  11.123  0.00  0.00    +0.000 C 
ENDBRANCH   1  13
BRANCH   1  17
ATOM     17  C   UNL     1      46.744   4.501  12.952  0.00  0.00    +0.000 C 
BRANCH  17  18
ATOM     18  N   UNL     1      46.443   3.902  14.266  0.00  0.00    +0.000 N 
ATOM     19  C   UNL     1      47.152   4.477  15.327  0.00  0.00    +0.000 A 
ATOM     20  C   UNL     1      46.924   4.020  16.623  0.00  0.00    +0.000 A 
ATOM     21  C   UNL     1      47.657   4.568  17.675  0.00  0.00    +0.000 A 
ATOM     22  C   UNL     1      48.598   5.561  17.419  0.00  0.00    +0.000 A 
ATOM     23  C   UNL     1      48.738   5.974  16.106  0.00  0.00    +0.000 A 
ATOM     24  N   UNL     1      48.030   5.466  15.071  0.00  0.00    +0.000 NA
ATOM     25  H   UNL     1      46.582   2.896  14.290  0.00  0.00    +0.000 HD
BRANCH  22  26
ATOM     26  C   UNL     1      49.408   6.113  18.527  0.00  0.00    +0.000 C 
ATOM     27  N   UNL     1      49.939   5.263  19.454  0.00  0.00    +0.000 N 
ATOM     28  O   UNL     1      49.598   7.324  18.626  0.00  0.00    +0.000 OA
ATOM     29  H   UNL     1      49.845   4.263  19.474  0.00  0.00    +0.000 HD
ATOM     30  H   UNL     1      50.474   5.694  20.194  0.00  0.00    +0.000 HD
ENDBRANCH  22  26
ENDBRANCH  17  18
ENDBRANCH   1  17
TORSDOF 4
ENDMDL
