MODEL 1
REMARK VINA RESULT:    -7.948      0.000      0.000
REMARK INTER + INTRA:         -10.382
REMARK INTER:                  -9.806
REMARK INTRA:                  -0.576
REMARK UNBOUND:                -0.576
REMARK  Name = 
REMARK  4 active torsions:
REMARK  status: ('A' for Active; 'I' for Inactive)
REMARK    1  A    between atoms: C_2  and  C_4
REMARK    2  A    between atoms: C_7  and  O_8
REMARK    3  A    between atoms: O_8  and  C_9
REMARK    4  A    between atoms: C_9  and  C_10
REMARK                            x       y       z     vdW  Elec       q    Type
REMARK                         _______ _______ _______ _____ _____    ______ ____
ROOT
ATOM      1  C   UNL     1      46.552   2.720   7.507  0.00  0.00    +0.000 A 
ATOM      2  C   UNL     1      46.143   4.043   7.654  0.00  0.00    +0.000 A 
ATOM      3  C   UNL     1      45.206   4.361   8.636  0.00  0.00    +0.000 A 
ATOM      4  C   UNL     1      44.765   3.347   9.500  0.00  0.00    +0.000 A 
ATOM      5  N   UNL     1      45.157   2.072   9.402  0.00  0.00    +0.000 NA
ATOM      6  C   UNL     1      46.021   1.776   8.385  0.00  0.00    +0.000 A 
ENDROOT
BRANCH   1   8
ATOM      7  N   UNL     1      47.336   2.984   5.241  0.00  0.00    +0.000 N 
ATOM      8  C   UNL     1      47.449   2.307   6.418  0.00  0.00    +0.000 C 
ATOM      9  O   UNL     1      48.265   1.400   6.573  0.00  0.00    +0.000 OA
ATOM     10  H   UNL     1      47.987   2.733   4.497  0.00  0.00    +0.000 HD
ATOM     11  H   UNL     1      46.830   3.851   5.151  0.00  0.00    +0.000 HD
ENDBRANCH   1   8
BRANCH   4  12
ATOM     12  O   UNL     1      43.774   3.692  10.397  0.00  0.00    +0.000 OA
BRANCH  12  13
ATOM     13  C   UNL     1      43.919   4.875  11.235  0.00  0.00    +0.000 C 
ATOM     14  C   UNL     1      42.566   5.096  11.922  0.00  0.00    +0.000 C 
ATOM     15  C   UNL     1      43.139   6.174  11.072  0.00  0.00    +0.000 C 
BRANCH  13  16
ATOM     16  C   UNL     1      45.214   5.001  12.038  0.00  0.00    +0.000 A 
ATOM     17  C   UNL     1      46.072   6.086  11.834  0.00  0.00    +0.000 A 
ATOM     18  C   UNL     1      47.193   6.252  12.647  0.00  0.00    +0.000 A 
ATOM     19  C   UNL     1      47.442   5.334  13.655  0.00  0.00    +0.000 A 
ATOM     20  C   UNL     1      46.567   4.274  13.796  0.00  0.00    +0.000 A 
ATOM     21  N   UNL     1      45.476   4.093  13.022  0.00  0.00    +0.000 NA
ENDBRANCH  13  16
ENDBRANCH  12  13
ENDBRANCH   4  12
TORSDOF 4
ENDMDL
MODEL 2
REMARK VINA RESULT:    -6.170      2.546      5.861
REMARK INTER + INTRA:          -8.190
REMARK INTER:                  -7.865
REMARK INTRA:                  -0.324
REMARK UNBOUND:                -0.576
REMARK  Name = 
REMARK  4 active torsions:
REMARK  status: ('A' for Active; 'I' for Inactive)
REMARK    1  A    between atoms: C_2  and  C_4
REMARK    2  A    between atoms: C_7  and  O_8
REMARK    3  A    between atoms: O_8  and  C_9
REMARK    4  A    between atoms: C_9  and  C_10
REMARK                            x       y       z     vdW  Elec       q    Type
REMARK                         _______ _______ _______ _____ _____    ______ ____
ROOT
ATOM      1  C   UNL     1      47.920   6.678  13.413  0.00  0.00    +0.000 A 
ATOM      2  C   UNL     1      47.739   7.138  12.112  0.00  0.00    +0.000 A 
ATOM      3  C   UNL     1      46.621   6.719  11.390  0.00  0.00    +0.000 A 
ATOM      4  C   UNL     1      45.672   5.909  12.031  0.00  0.00    +0.000 A 
ATOM      5  N   UNL     1      45.804   5.470  13.288  0.00  0.00    +0.000 NA
ATOM      6  C   UNL     1      46.944   5.838  13.947  0.00  0.00    +0.000 A 
ENDROOT
BRANCH   1   8
ATOM      7  N   UNL     1      50.225   7.388  13.465  0.00  0.00    +0.000 N 
ATOM      8  C   UNL     1      49.134   6.995  14.180  0.00  0.00    +0.000 C 
ATOM      9  O   UNL     1      49.153   6.915  15.407  0.00  0.00    +0.000 OA
ATOM     10  H   UNL     1      51.056   7.653  13.994  0.00  0.00    +0.000 HD
ATOM     11  H   UNL     1      50.180   7.656  12.494  0.00  0.00    +0.000 HD
ENDBRANCH   1   8
BRANCH   4  12
ATOM     12  O   UNL     1      44.630   5.448  11.252  0.00  0.00    +0.000 OA
BRANCH  12  13
ATOM     13  C   UNL     1      44.488   4.023  10.980  0.00  0.00    +0.000 C 
ATOM     14  C   UNL     1      43.057   3.640  11.375  0.00  0.00    +0.000 C 
ATOM     15  C   UNL     1      44.204   2.948  12.023  0.00  0.00    +0.000 C 
BRANCH  13  16
ATOM     16  C   UNL     1      45.085   3.505   9.672  0.00  0.00    +0.000 A 
ATOM     17  C   UNL     1      45.540   4.397   8.696  0.00  0.00    +0.000 A 
ATOM     18  C   UNL     1      46.182   3.917   7.555  0.00  0.00    +0.000 A 
ATOM     19  C   UNL     1      46.366   2.551   7.404  0.00  0.00    +0.000 A 
ATOM     20  C   UNL     1      45.880   1.719   8.394  0.00  0.00    +0.000 A 
ATOM     21  N   UNL     1      45.254   2.160   9.506  0.00  0.00    +0.000 NA
ENDBRANCH  13  16
ENDBRANCH  12  13
ENDBRANCH   4  12
TORSDOF 4
ENDMDL
MODEL 3
REMARK VINA RESULT:    -6.080      2.617      6.193
REMARK INTER + INTRA:          -8.077
REMARK INTER:                  -7.993
REMARK INTRA:                  -0.084
REMARK UNBOUND:                -0.576
REMARK  Name = 
REMARK  4 active torsions:
REMARK  status: ('A' for Active; 'I' for Inactive)
REMARK    1  A    between atoms: C_2  and  C_4
REMARK    2  A    between atoms: C_7  and  O_8
REMARK    3  A    between atoms: O_8  and  C_9
REMARK    4  A    between atoms: C_9  and  C_10
REMARK                            x       y       z     vdW  Elec       q    Type
REMARK                         _______ _______ _______ _____ _____    ______ ____
ROOT
ATOM      1  C   UNL     1      47.897   6.254  14.165  0.00  0.00    +0.000 A 
ATOM      2  C   UNL     1      47.048   5.152  14.114  0.00  0.00    +0.000 A 
ATOM      3  C   UNL     1      46.098   5.070  13.097  0.00  0.00    +0.000 A 
ATOM      4  C   UNL     1      46.083   6.066  12.109  0.00  0.00    +0.000 A 
ATOM      5  N   UNL     1      46.901   7.124  12.114  0.00  0.00    +0.000 NA
ATOM      6  C   UNL     1      47.774   7.215  13.163  0.00  0.00    +0.000 A 
ENDROOT
BRANCH   1   8
ATOM      7  N   UNL     1      48.375   6.179  16.528  0.00  0.00    +0.000 N 
ATOM      8  C   UNL     1      48.840   6.449  15.277  0.00  0.00    +0.000 C 
ATOM      9  O   UNL     1      49.992   6.829  15.076  0.00  0.00    +0.000 OA
ATOM     10  H   UNL     1      49.038   6.270  17.299  0.00  0.00    +0.000 HD
ATOM     11  H   UNL     1      47.517   5.680  16.702  0.00  0.00    +0.000 HD
ENDBRANCH   1   8
BRANCH   4  12
ATOM     12  O   UNL     1      45.070   5.990  11.174  0.00  0.00    +0.000 OA
BRANCH  12  13
ATOM     13  C   UNL     1      44.416   4.717  10.900  0.00  0.00    +0.000 C 
ATOM     14  C   UNL     1      42.907   4.961  11.024  0.00  0.00    +0.000 C 
ATOM     15  C   UNL     1      43.554   3.936  11.885  0.00  0.00    +0.000 C 
BRANCH  13  16
ATOM     16  C   UNL     1      44.963   3.893   9.735  0.00  0.00    +0.000 A 
ATOM     17  C   UNL     1      45.577   4.522   8.647  0.00  0.00    +0.000 A 
ATOM     18  C   UNL     1      46.171   3.759   7.642  0.00  0.00    +0.000 A 
ATOM     19  C   UNL     1      46.148   2.376   7.738  0.00  0.00    +0.000 A 
ATOM     20  C   UNL     1      45.512   1.812   8.828  0.00  0.00    +0.000 A 
ATOM     21  N   UNL     1      44.930   2.530   9.811  0.00  0.00    +0.000 NA
ENDBRANCH  13  16
ENDBRANCH  12  13
ENDBRANCH   4  12
TORSDOF 4
ENDMDL
MODEL 4
REMARK VINA RESULT:    -5.652      3.125      6.780
REMARK INTER + INTRA:          -7.549
REMARK INTER:                  -7.410
REMARK INTRA:                  -0.140
REMARK UNBOUND:                -0.576
REMARK  Name = 
REMARK  4 active torsions:
REMARK  status: ('A' for Active; 'I' for Inactive)
REMARK    1  A    between atoms: C_2  and  C_4
REMARK    2  A    between atoms: C_7  and  O_8
REMARK    3  A    between atoms: O_8  and  C_9
REMARK    4  A    between atoms: C_9  and  C_10
REMARK                            x       y       z     vdW  Elec       q    Type
REMARK                         _______ _______ _______ _____ _____    ______ ____
ROOT
ATOM      1  C   UNL     1      47.930   4.860  16.092  0.00  0.00    +0.000 A 
ATOM      2  C   UNL     1      48.321   6.067  15.519  0.00  0.00    +0.000 A 
ATOM      3  C   UNL     1      47.924   6.363  14.216  0.00  0.00    +0.000 A 
ATOM      4  C   UNL     1      47.073   5.466  13.551  0.00  0.00    +0.000 A 
ATOM      5  N   UNL     1      46.659   4.311  14.083  0.00  0.00    +0.000 NA
ATOM      6  C   UNL     1      47.122   4.013  15.334  0.00  0.00    +0.000 A 
ENDROOT
BRANCH   1   8
ATOM      7  N   UNL     1      47.463   4.130  18.343  0.00  0.00    +0.000 N 
ATOM      8  C   UNL     1      48.412   4.445  17.418  0.00  0.00    +0.000 C 
ATOM      9  O   UNL     1      49.614   4.379  17.668  0.00  0.00    +0.000 OA
ATOM     10  H   UNL     1      47.792   3.798  19.250  0.00  0.00    +0.000 HD
ATOM     11  H   UNL     1      46.495   3.979  18.109  0.00  0.00    +0.000 HD
ENDBRANCH   1   8
BRANCH   4  12
ATOM     12  O   UNL     1      46.779   5.758  12.235  0.00  0.00    +0.000 OA
BRANCH  12  13
ATOM     13  C   UNL     1      45.416   5.619  11.737  0.00  0.00    +0.000 C 
ATOM     14  C   UNL     1      44.815   7.030  11.702  0.00  0.00    +0.000 C 
ATOM     15  C   UNL     1      44.152   5.973  12.512  0.00  0.00    +0.000 C 
BRANCH  13  16
ATOM     16  C   UNL     1      45.201   4.668  10.560  0.00  0.00    +0.000 A 
ATOM     17  C   UNL     1      45.676   4.995   9.287  0.00  0.00    +0.000 A 
ATOM     18  C   UNL     1      45.574   4.074   8.244  0.00  0.00    +0.000 A 
ATOM     19  C   UNL     1      45.001   2.835   8.488  0.00  0.00    +0.000 A 
ATOM     20  C   UNL     1      44.535   2.576   9.763  0.00  0.00    +0.000 A 
ATOM     21  N   UNL     1      44.623   3.452  10.786  0.00  0.00    +0.000 NA
ENDBRANCH  13  16
ENDBRANCH  12  13
ENDBRANCH   4  12
TORSDOF 4
ENDMDL
MODEL 5
REMARK VINA RESULT:    -5.610      4.389      8.054
REMARK INTER + INTRA:          -7.497
REMARK INTER:                  -6.947
REMARK INTRA:                  -0.550
REMARK UNBOUND:                -0.576
REMARK  Name = 
REMARK  4 active torsions:
REMARK  status: ('A' for Active; 'I' for Inactive)
REMARK    1  A    between atoms: C_2  and  C_4
REMARK    2  A    between atoms: C_7  and  O_8
REMARK    3  A    between atoms: O_8  and  C_9
REMARK    4  A    between atoms: C_9  and  C_10
REMARK                            x       y       z     vdW  Elec       q    Type
REMARK                         _______ _______ _______ _____ _____    ______ ____
ROOT
ATOM      1  C   UNL     1      48.208   4.981  18.039  0.00  0.00    +0.000 A 
ATOM      2  C   UNL     1      48.921   5.973  17.373  0.00  0.00    +0.000 A 
ATOM      3  C   UNL     1      48.797   6.089  15.989  0.00  0.00    +0.000 A 
ATOM      4  C   UNL     1      47.892   5.249  15.322  0.00  0.00    +0.000 A 
ATOM      5  N   UNL     1      47.173   4.303  15.936  0.00  0.00    +0.000 NA
ATOM      6  C   UNL     1      47.368   4.166  17.283  0.00  0.00    +0.000 A 
ENDROOT
BRANCH   1   8
ATOM      7  N   UNL     1      48.417   3.439  19.883  0.00  0.00    +0.000 N 
ATOM      8  C   UNL     1      48.386   4.739  19.479  0.00  0.00    +0.000 C 
ATOM      9  O   UNL     1      48.508   5.672  20.272  0.00  0.00    +0.000 OA
ATOM     10  H   UNL     1      48.586   3.265  20.874  0.00  0.00    +0.000 HD
ATOM     11  H   UNL     1      48.524   2.667  19.244  0.00  0.00    +0.000 HD
ENDBRANCH   1   8
BRANCH   4  12
ATOM     12  O   UNL     1      47.868   5.340  13.945  0.00  0.00    +0.000 OA
BRANCH  12  13
ATOM     13  C   UNL     1      46.789   6.053  13.273  0.00  0.00    +0.000 C 
ATOM     14  C   UNL     1      47.445   6.946  12.213  0.00  0.00    +0.000 C 
ATOM     15  C   UNL     1      46.598   7.565  13.267  0.00  0.00    +0.000 C 
BRANCH  13  16
ATOM     16  C   UNL     1      45.537   5.248  12.926  0.00  0.00    +0.000 A 
ATOM     17  C   UNL     1      45.646   3.945  12.431  0.00  0.00    +0.000 A 
ATOM     18  C   UNL     1      44.499   3.179  12.222  0.00  0.00    +0.000 A 
ATOM     19  C   UNL     1      43.258   3.723  12.512  0.00  0.00    +0.000 A 
ATOM     20  C   UNL     1      43.214   5.022  12.983  0.00  0.00    +0.000 A 
ATOM     21  N   UNL     1      44.309   5.782  13.193  0.00  0.00    +0.000 NA
ENDBRANCH  13  16
ENDBRANCH  12  13
ENDBRANCH   4  12
TORSDOF 4
ENDMDL
MODEL 6
REMARK VINA RESULT:    -5.536      3.151      5.077
REMARK INTER + INTRA:          -7.406
REMARK INTER:                  -7.052
REMARK INTRA:                  -0.354
REMARK UNBOUND:                -0.576
REMARK  Name = 
REMARK  4 active torsions:
REMARK  status: ('A' for Active; 'I' for Inactive)
REMARK    1  A    between atoms: C_2  and  C_4
REMARK    2  A    between atoms: C_7  and  O_8
REMARK    3  A    between atoms: O_8  and  C_9
REMARK    4  A    between atoms: C_9  and  C_10
REMARK                            x       y       z     vdW  Elec       q    Type
REMARK                         _______ _______ _______ _____ _____    ______ ____
ROOT
ATOM      1  C   UNL     1      44.742   4.030  11.340  0.00  0.00    +0.000 A 
ATOM      2  C   UNL     1      44.992   5.071  10.449  0.00  0.00    +0.000 A 
ATOM      3  C   UNL     1      45.617   6.228  10.912  0.00  0.00    +0.000 A 
ATOM      4  C   UNL     1      46.046   6.273  12.247  0.00  0.00    +0.000 A 
ATOM      5  N   UNL     1      45.845   5.281  13.121  0.00  0.00    +0.000 NA
ATOM      6  C   UNL     1      45.166   4.188  12.658  0.00  0.00    +0.000 A 
ENDROOT
BRANCH   1   8
ATOM      7  N   UNL     1      44.482   2.124   9.885  0.00  0.00    +0.000 N 
ATOM      8  C   UNL     1      43.986   2.835  10.935  0.00  0.00    +0.000 C 
ATOM      9  O   UNL     1      42.963   2.497  11.527  0.00  0.00    +0.000 OA
ATOM     10  H   UNL     1      43.988   1.269   9.628  0.00  0.00    +0.000 HD
ATOM     11  H   UNL     1      45.411   2.258   9.518  0.00  0.00    +0.000 HD
ENDBRANCH   1   8
BRANCH   4  12
ATOM     12  O   UNL     1      46.579   7.470  12.681  0.00  0.00    +0.000 OA
BRANCH  12  13
ATOM     13  C   UNL     1      48.005   7.582  12.960  0.00  0.00    +0.000 C 
ATOM     14  C   UNL     1      48.554   8.661  12.018  0.00  0.00    +0.000 C 
ATOM     15  C   UNL     1      49.126   7.289  11.969  0.00  0.00    +0.000 C 
BRANCH  13  16
ATOM     16  C   UNL     1      48.428   7.563  14.429  0.00  0.00    +0.000 A 
ATOM     17  C   UNL     1      48.234   8.686  15.238  0.00  0.00    +0.000 A 
ATOM     18  C   UNL     1      48.521   8.623  16.602  0.00  0.00    +0.000 A 
ATOM     19  C   UNL     1      48.994   7.437  17.141  0.00  0.00    +0.000 A 
ATOM     20  C   UNL     1      49.181   6.366  16.287  0.00  0.00    +0.000 A 
ATOM     21  N   UNL     1      48.912   6.405  14.965  0.00  0.00    +0.000 NA
ENDBRANCH  13  16
ENDBRANCH  12  13
ENDBRANCH   4  12
TORSDOF 4
ENDMDL
MODEL 7
REMARK VINA RESULT:    -5.108      3.911      6.293
REMARK INTER + INTRA:          -6.879
REMARK INTER:                  -6.372
REMARK INTRA:                  -0.507
REMARK UNBOUND:                -0.576
REMARK  Name = 
REMARK  4 active torsions:
REMARK  status: ('A' for Active; 'I' for Inactive)
REMARK    1  A    between atoms: C_2  and  C_4
REMARK    2  A    between atoms: C_7  and  O_8
REMARK    3  A    between atoms: O_8  and  C_9
REMARK    4  A    between atoms: C_9  and  C_10
REMARK                            x       y       z     vdW  Elec       q    Type
REMARK                         _______ _______ _______ _____ _____    ______ ____
ROOT
ATOM      1  C   UNL     1      44.585   5.356  12.061  0.00  0.00    +0.000 A 
ATOM      2  C   UNL     1      45.078   4.796  13.236  0.00  0.00    +0.000 A 
ATOM      3  C   UNL     1      46.396   5.052  13.612  0.00  0.00    +0.000 A 
ATOM      4  C   UNL     1      47.159   5.935  12.831  0.00  0.00    +0.000 A 
ATOM      5  N   UNL     1      46.706   6.509  11.712  0.00  0.00    +0.000 NA
ATOM      6  C   UNL     1      45.434   6.184  11.329  0.00  0.00    +0.000 A 
ENDROOT
BRANCH   1   8
ATOM      7  N   UNL     1      42.297   6.007  11.657  0.00  0.00    +0.000 N 
ATOM      8  C   UNL     1      43.242   5.031  11.558  0.00  0.00    +0.000 C 
ATOM      9  O   UNL     1      42.995   3.931  11.066  0.00  0.00    +0.000 OA
ATOM     10  H   UNL     1      41.376   5.803  11.268  0.00  0.00    +0.000 HD
ATOM     11  H   UNL     1      42.518   6.968  11.863  0.00  0.00    +0.000 HD
ENDBRANCH   1   8
BRANCH   4  12
ATOM     12  O   UNL     1      48.482   6.089  13.192  0.00  0.00    +0.000 OA
BRANCH  12  13
ATOM     13  C   UNL     1      48.939   7.330  13.803  0.00  0.00    +0.000 C 
ATOM     14  C   UNL     1      49.634   6.946  15.114  0.00  0.00    +0.000 C 
ATOM     15  C   UNL     1      48.475   7.877  15.148  0.00  0.00    +0.000 C 
BRANCH  13  16
ATOM     16  C   UNL     1      49.575   8.366  12.876  0.00  0.00    +0.000 A 
ATOM     17  C   UNL     1      50.546   7.984  11.945  0.00  0.00    +0.000 A 
ATOM     18  C   UNL     1      51.040   8.913  11.029  0.00  0.00    +0.000 A 
ATOM     19  C   UNL     1      50.555  10.212  11.053  0.00  0.00    +0.000 A 
ATOM     20  C   UNL     1      49.609  10.533  12.007  0.00  0.00    +0.000 A 
ATOM     21  N   UNL     1      49.117   9.652  12.903  0.00  0.00    +0.000 NA
ENDBRANCH  13  16
ENDBRANCH  12  13
ENDBRANCH   4  12
TORSDOF 4
ENDMDL
MODEL 8
REMARK VINA RESULT:    -5.108      6.072      8.890
REMARK INTER + INTRA:          -6.878
REMARK INTER:                  -6.825
REMARK INTRA:                  -0.054
REMARK UNBOUND:                -0.576
REMARK  Name = 
REMARK  4 active torsions:
REMARK  status: ('A' for Active; 'I' for Inactive)
REMARK    1  A    between atoms: C_2  and  C_4
REMARK    2  A    between atoms: C_7  and  O_8
REMARK    3  A    between atoms: O_8  and  C_9
REMARK    4  A    between atoms: C_9  and  C_10
REMARK                            x       y       z     vdW  Elec       q    Type
REMARK                         _______ _______ _______ _____ _____    ______ ____
ROOT
ATOM      1  C   UNL     1      52.204   1.672  17.652  0.00  0.00    +0.000 A 
ATOM      2  C   UNL     1      52.476   2.951  18.130  0.00  0.00    +0.000 A 
ATOM      3  C   UNL     1      51.546   3.969  17.918  0.00  0.00    +0.000 A 
ATOM      4  C   UNL     1      50.328   3.650  17.300  0.00  0.00    +0.000 A 
ATOM      5  N   UNL     1      50.025   2.426  16.853  0.00  0.00    +0.000 NA
ATOM      6  C   UNL     1      50.984   1.464  17.010  0.00  0.00    +0.000 A 
ENDROOT
BRANCH   1   8
ATOM      7  N   UNL     1      52.856  -0.485  18.513  0.00  0.00    +0.000 N 
ATOM      8  C   UNL     1      53.194   0.588  17.746  0.00  0.00    +0.000 C 
ATOM      9  O   UNL     1      54.268   0.653  17.151  0.00  0.00    +0.000 OA
ATOM     10  H   UNL     1      53.520  -1.259  18.546  0.00  0.00    +0.000 HD
ATOM     11  H   UNL     1      51.918  -0.655  18.840  0.00  0.00    +0.000 HD
ENDBRANCH   1   8
BRANCH   4  12
ATOM     12  O   UNL     1      49.478   4.705  17.034  0.00  0.00    +0.000 OA
BRANCH  12  13
ATOM     13  C   UNL     1      48.066   4.463  16.769  0.00  0.00    +0.000 C 
ATOM     14  C   UNL     1      47.305   4.870  18.037  0.00  0.00    +0.000 C 
ATOM     15  C   UNL     1      47.180   3.479  17.525  0.00  0.00    +0.000 C 
BRANCH  13  16
ATOM     16  C   UNL     1      47.537   4.874  15.395  0.00  0.00    +0.000 A 
ATOM     17  C   UNL     1      48.036   6.013  14.755  0.00  0.00    +0.000 A 
ATOM     18  C   UNL     1      47.629   6.320  13.457  0.00  0.00    +0.000 A 
ATOM     19  C   UNL     1      46.732   5.482  12.812  0.00  0.00    +0.000 A 
ATOM     20  C   UNL     1      46.262   4.381  13.502  0.00  0.00    +0.000 A 
ATOM     21  N   UNL     1      46.641   4.065  14.758  0.00  0.00    +0.000 NA
ENDBRANCH  13  16
ENDBRANCH  12  13
ENDBRANCH   4  12
TORSDOF 4
ENDMDL
