MODEL 1
REMARK VINA RESULT:    -8.220      0.000      0.000
REMARK INTER + INTRA:         -12.207
REMARK INTER:                 -11.103
REMARK INTRA:                  -1.104
REMARK UNBOUND:                -1.104
REMARK  Name = 
REMARK  7 active torsions:
REMARK  status: ('A' for Active; 'I' for Inactive)
REMARK    1  A    between atoms: C_1  and  C_2
REMARK    2  A    between atoms: C_6  and  C_7
REMARK    3  A    between atoms: N_9  and  C_10
REMARK    4  A    between atoms: C_10  and  C_11
REMARK    5  A    between atoms: C_14  and  C_15
REMARK    6  A    between atoms: C_15  and  N_16
REMARK    7  A    between atoms: C_17  and  C_19
REMARK                            x       y       z     vdW  Elec       q    Type
REMARK                         _______ _______ _______ _____ _____    ______ ____
ROOT
ATOM      1  C   UNL     1      45.090   6.541  11.285  0.00  0.00    +0.000 A 
ATOM      2  C   UNL     1      46.321   5.992  11.673  0.00  0.00    +0.000 A 
ATOM      3  C   UNL     1      47.168   6.671  12.564  0.00  0.00    +0.000 A 
ATOM      4  C   UNL     1      46.798   7.907  13.109  0.00  0.00    +0.000 A 
ATOM      5  C   UNL     1      45.580   8.469  12.703  0.00  0.00    +0.000 A 
ATOM      6  C   UNL     1      44.730   7.787  11.816  0.00  0.00    +0.000 A 
ENDROOT
BRANCH   1   7
ATOM      7  C   UNL     1      44.198   5.821  10.298  0.00  0.00    +0.000 C 
BRANCH   7  10
ATOM      8  C   UNL     1      44.908   3.630   9.385  0.00  0.00    +0.000 C 
ATOM      9  O   UNL     1      44.305   2.982  10.230  0.00  0.00    +0.000 OA
ATOM     10  N   UNL     1      44.923   5.015   9.344  0.00  0.00    +0.000 N 
ATOM     11  H   UNL     1      45.438   5.445   8.582  0.00  0.00    +0.000 HD
BRANCH   8  17
ATOM     12  C   UNL     1      46.780  -0.494   7.641  0.00  0.00    +0.000 C 
ATOM     13  C   UNL     1      46.591   0.982   7.467  0.00  0.00    +0.000 A 
ATOM     14  C   UNL     1      47.122   1.645   6.363  0.00  0.00    +0.000 A 
ATOM     15  C   UNL     1      46.927   3.019   6.245  0.00  0.00    +0.000 A 
ATOM     16  C   UNL     1      46.206   3.691   7.226  0.00  0.00    +0.000 A 
ATOM     17  C   UNL     1      45.704   2.959   8.295  0.00  0.00    +0.000 A 
ATOM     18  N   UNL     1      45.886   1.616   8.436  0.00  0.00    +0.000 NA
ENDBRANCH   8  17
ENDBRANCH   7  10
ENDBRANCH   1   7
BRANCH   4  19
ATOM     19  C   UNL     1      47.682   8.603  14.119  0.00  0.00    +0.000 C 
BRANCH  19  20
ATOM     20  N   UNL     1      47.989   7.769  15.255  0.00  0.00    +0.000 N 
ATOM     21  C   UNL     1      49.207   7.144  15.379  0.00  0.00    +0.000 C 
ATOM     22  O   UNL     1      50.114   7.307  14.566  0.00  0.00    +0.000 OA
ATOM     23  H   UNL     1      47.203   7.436  15.803  0.00  0.00    +0.000 HD
BRANCH  21  24
ATOM     24  C   UNL     1      49.393   6.307  16.572  0.00  0.00    +0.000 A 
ATOM     25  C   UNL     1      50.359   6.635  17.515  0.00  0.00    +0.000 A 
ATOM     26  S   UNL     1      50.410   5.564  18.843  0.00  0.00    +0.000 S 
ATOM     27  C   UNL     1      49.171   4.601  18.186  0.00  0.00    +0.000 A 
ATOM     28  N   UNL     1      48.739   3.481  18.826  0.00  0.00    +0.000 NA
ATOM     29  C   UNL     1      47.803   2.841  18.205  0.00  0.00    +0.000 A 
ATOM     30  N   UNL     1      47.259   3.221  17.008  0.00  0.00    +0.000 N 
ATOM     31  C   UNL     1      47.648   4.355  16.336  0.00  0.00    +0.000 A 
ATOM     32  O   UNL     1      47.108   4.691  15.288  0.00  0.00    +0.000 OA
ATOM     33  C   UNL     1      48.708   5.105  16.983  0.00  0.00    +0.000 A 
ATOM     34  H   UNL     1      46.515   2.690  16.582  0.00  0.00    +0.000 HD
ENDBRANCH  21  24
ENDBRANCH  19  20
ENDBRANCH   4  19
TORSDOF 6
ENDMDL
MODEL 2
REMARK VINA RESULT:    -7.950      2.276      2.636
REMARK INTER + INTRA:         -11.842
REMARK INTER:                 -10.937
REMARK INTRA:                  -0.905
REMARK UNBOUND:                -1.104
REMARK  Name = 
REMARK  7 active torsions:
REMARK  status: ('A' for Active; 'I' for Inactive)
REMARK    1  A    between atoms: C_1  and  C_2
REMARK    2  A    between atoms: C_6  and  C_7
REMARK    3  A    between atoms: N_9  and  C_10
REMARK    4  A    between atoms: C_10  and  C_11
REMARK    5  A    between atoms: C_14  and  C_15
REMARK    6  A    between atoms: C_15  and  N_16
REMARK    7  A    between atoms: C_17  and  C_19
REMARK                            x       y       z     vdW  Elec       q    Type
REMARK                         _______ _______ _______ _____ _____    ______ ____
ROOT
ATOM      1  C   UNL     1      45.914   4.807  13.020  0.00  0.00    +0.000 A 
ATOM      2  C   UNL     1      46.445   4.209  14.171  0.00  0.00    +0.000 A 
ATOM      3  C   UNL     1      47.392   4.878  14.965  0.00  0.00    +0.000 A 
ATOM      4  C   UNL     1      47.815   6.174  14.641  0.00  0.00    +0.000 A 
ATOM      5  C   UNL     1      47.304   6.763  13.476  0.00  0.00    +0.000 A 
ATOM      6  C   UNL     1      46.353   6.096  12.686  0.00  0.00    +0.000 A 
ENDROOT
BRANCH   1   7
ATOM      7  C   UNL     1      44.922   4.068  12.151  0.00  0.00    +0.000 C 
BRANCH   7  10
ATOM      8  C   UNL     1      44.895   3.696   9.701  0.00  0.00    +0.000 C 
ATOM      9  O   UNL     1      43.830   4.275   9.535  0.00  0.00    +0.000 OA
ATOM     10  N   UNL     1      45.498   3.536  10.938  0.00  0.00    +0.000 N 
ATOM     11  H   UNL     1      46.394   3.058  10.952  0.00  0.00    +0.000 HD
BRANCH   8  17
ATOM     12  C   UNL     1      46.704  -0.312   7.648  0.00  0.00    +0.000 C 
ATOM     13  C   UNL     1      46.512   1.172   7.571  0.00  0.00    +0.000 A 
ATOM     14  C   UNL     1      47.008   1.902   6.494  0.00  0.00    +0.000 A 
ATOM     15  C   UNL     1      46.811   3.280   6.466  0.00  0.00    +0.000 A 
ATOM     16  C   UNL     1      46.123   3.890   7.510  0.00  0.00    +0.000 A 
ATOM     17  C   UNL     1      45.654   3.093   8.547  0.00  0.00    +0.000 A 
ATOM     18  N   UNL     1      45.839   1.744   8.599  0.00  0.00    +0.000 NA
ENDBRANCH   8  17
ENDBRANCH   7  10
ENDBRANCH   1   7
BRANCH   4  19
ATOM     19  C   UNL     1      48.783   6.917  15.533  0.00  0.00    +0.000 C 
BRANCH  19  20
ATOM     20  N   UNL     1      49.806   6.058  16.078  0.00  0.00    +0.000 N 
ATOM     21  C   UNL     1      49.921   5.846  17.432  0.00  0.00    +0.000 C 
ATOM     22  O   UNL     1      49.129   6.324  18.240  0.00  0.00    +0.000 OA
ATOM     23  H   UNL     1      50.595   5.848  15.475  0.00  0.00    +0.000 HD
BRANCH  21  24
ATOM     24  C   UNL     1      51.015   4.966  17.864  0.00  0.00    +0.000 A 
ATOM     25  C   UNL     1      52.121   5.494  18.519  0.00  0.00    +0.000 A 
ATOM     26  S   UNL     1      53.274   4.318  18.968  0.00  0.00    +0.000 S 
ATOM     27  C   UNL     1      52.356   3.069  18.268  0.00  0.00    +0.000 A 
ATOM     28  N   UNL     1      52.797   1.781  18.281  0.00  0.00    +0.000 NA
ATOM     29  C   UNL     1      52.003   0.941  17.701  0.00  0.00    +0.000 A 
ATOM     30  N   UNL     1      50.811   1.270  17.116  0.00  0.00    +0.000 N 
ATOM     31  C   UNL     1      50.315   2.552  17.097  0.00  0.00    +0.000 A 
ATOM     32  O   UNL     1      49.222   2.804  16.603  0.00  0.00    +0.000 OA
ATOM     33  C   UNL     1      51.174   3.539  17.723  0.00  0.00    +0.000 A 
ATOM     34  H   UNL     1      50.225   0.565  16.696  0.00  0.00    +0.000 HD
ENDBRANCH  21  24
ENDBRANCH  19  20
ENDBRANCH   4  19
TORSDOF 6
ENDMDL
MODEL 3
REMARK VINA RESULT:    -6.858      3.801      4.905
REMARK INTER + INTRA:         -10.367
REMARK INTER:                  -9.383
REMARK INTRA:                  -0.983
REMARK UNBOUND:                -1.104
REMARK  Name = 
REMARK  7 active torsions:
REMARK  status: ('A' for Active; 'I' for Inactive)
REMARK    1  A    between atoms: C_1  and  C_2
REMARK    2  A    between atoms: C_6  and  C_7
REMARK    3  A    between atoms: N_9  and  C_10
REMARK    4  A    between atoms: C_10  and  C_11
REMARK    5  A    between atoms: C_14  and  C_15
REMARK    6  A    between atoms: C_15  and  N_16
REMARK    7  A    between atoms: C_17  and  C_19
REMARK                            x       y       z     vdW  Elec       q    Type
REMARK                         _______ _______ _______ _____ _____    ______ ____
ROOT
ATOM      1  C   UNL     1      45.617   6.791  11.720  0.00  0.00    +0.000 A 
ATOM      2  C   UNL     1      45.136   8.011  12.216  0.00  0.00    +0.000 A 
ATOM      3  C   UNL     1      45.978   8.892  12.913  0.00  0.00    +0.000 A 
ATOM      4  C   UNL     1      47.331   8.587  13.114  0.00  0.00    +0.000 A 
ATOM      5  C   UNL     1      47.807   7.356  12.641  0.00  0.00    +0.000 A 
ATOM      6  C   UNL     1      46.965   6.478  11.939  0.00  0.00    +0.000 A 
ENDROOT
BRANCH   1   7
ATOM      7  C   UNL     1      44.696   5.831  11.000  0.00  0.00    +0.000 C 
BRANCH   7  10
ATOM      8  C   UNL     1      44.861   3.849   9.522  0.00  0.00    +0.000 C 
ATOM      9  O   UNL     1      43.860   3.314   9.979  0.00  0.00    +0.000 OA
ATOM     10  N   UNL     1      45.350   5.069   9.963  0.00  0.00    +0.000 N 
ATOM     11  H   UNL     1      46.176   5.428   9.493  0.00  0.00    +0.000 HD
BRANCH   8  17
ATOM     12  C   UNL     1      46.721  -0.225   7.652  0.00  0.00    +0.000 C 
ATOM     13  C   UNL     1      46.545   1.258   7.528  0.00  0.00    +0.000 A 
ATOM     14  C   UNL     1      47.093   1.956   6.455  0.00  0.00    +0.000 A 
ATOM     15  C   UNL     1      46.910   3.335   6.384  0.00  0.00    +0.000 A 
ATOM     16  C   UNL     1      46.183   3.977   7.381  0.00  0.00    +0.000 A 
ATOM     17  C   UNL     1      45.664   3.211   8.418  0.00  0.00    +0.000 A 
ATOM     18  N   UNL     1      45.834   1.862   8.512  0.00  0.00    +0.000 NA
ENDBRANCH   8  17
ENDBRANCH   7  10
ENDBRANCH   1   7
BRANCH   4  19
ATOM     19  C   UNL     1      48.250   9.567  13.807  0.00  0.00    +0.000 C 
BRANCH  19  20
ATOM     20  N   UNL     1      49.644   9.271  13.585  0.00  0.00    +0.000 N 
ATOM     21  C   UNL     1      50.367   9.910  12.605  0.00  0.00    +0.000 C 
ATOM     22  O   UNL     1      49.886  10.802  11.911  0.00  0.00    +0.000 OA
ATOM     23  H   UNL     1      49.994   8.400  13.970  0.00  0.00    +0.000 HD
BRANCH  21  24
ATOM     24  C   UNL     1      51.774   9.509  12.465  0.00  0.00    +0.000 A 
ATOM     25  C   UNL     1      52.771  10.207  13.136  0.00  0.00    +0.000 A 
ATOM     26  S   UNL     1      54.337   9.580  12.874  0.00  0.00    +0.000 S 
ATOM     27  C   UNL     1      53.744   8.382  11.824  0.00  0.00    +0.000 A 
ATOM     28  N   UNL     1      54.584   7.501  11.216  0.00  0.00    +0.000 NA
ATOM     29  C   UNL     1      53.996   6.655  10.435  0.00  0.00    +0.000 A 
ATOM     30  N   UNL     1      52.647   6.607  10.211  0.00  0.00    +0.000 N 
ATOM     31  C   UNL     1      51.757   7.462  10.818  0.00  0.00    +0.000 A 
ATOM     32  O   UNL     1      50.550   7.362  10.629  0.00  0.00    +0.000 OA
ATOM     33  C   UNL     1      52.367   8.443  11.696  0.00  0.00    +0.000 A 
ATOM     34  H   UNL     1      52.244   5.910   9.605  0.00  0.00    +0.000 HD
ENDBRANCH  21  24
ENDBRANCH  19  20
ENDBRANCH   4  19
TORSDOF 6
ENDMDL
MODEL 4
REMARK VINA RESULT:    -6.815      2.594      3.896
REMARK INTER + INTRA:         -10.309
REMARK INTER:                  -9.472
REMARK INTRA:                  -0.837
REMARK UNBOUND:                -1.104
REMARK  Name = 
REMARK  7 active torsions:
REMARK  status: ('A' for Active; 'I' for Inactive)
REMARK    1  A    between atoms: C_1  and  C_2
REMARK    2  A    between atoms: C_6  and  C_7
REMARK    3  A    between atoms: N_9  and  C_10
REMARK    4  A    between atoms: C_10  and  C_11
REMARK    5  A    between atoms: C_14  and  C_15
REMARK    6  A    between atoms: C_15  and  N_16
REMARK    7  A    between atoms: C_17  and  C_19
REMARK                            x       y       z     vdW  Elec       q    Type
REMARK                         _______ _______ _______ _____ _____    ______ ____
ROOT
ATOM      1  C   UNL     1      47.841   7.833  13.357  0.00  0.00    +0.000 A 
ATOM      2  C   UNL     1      48.277   6.633  13.936  0.00  0.00    +0.000 A 
ATOM      3  C   UNL     1      48.688   6.584  15.278  0.00  0.00    +0.000 A 
ATOM      4  C   UNL     1      48.654   7.729  16.084  0.00  0.00    +0.000 A 
ATOM      5  C   UNL     1      48.243   8.935  15.500  0.00  0.00    +0.000 A 
ATOM      6  C   UNL     1      47.826   8.983  14.159  0.00  0.00    +0.000 A 
ENDROOT
BRANCH   1   7
ATOM      7  C   UNL     1      47.433   7.887  11.901  0.00  0.00    +0.000 C 
BRANCH   7  10
ATOM      8  C   UNL     1      45.484   6.492  11.275  0.00  0.00    +0.000 C 
ATOM      9  O   UNL     1      44.663   7.354  11.560  0.00  0.00    +0.000 OA
ATOM     10  N   UNL     1      46.852   6.657  11.417  0.00  0.00    +0.000 N 
ATOM     11  H   UNL     1      47.439   5.882  11.126  0.00  0.00    +0.000 HD
BRANCH   8  17
ATOM     12  C   UNL     1      45.554   3.384   7.549  0.00  0.00    +0.000 C 
ATOM     13  C   UNL     1      45.106   3.669   8.950  0.00  0.00    +0.000 A 
ATOM     14  C   UNL     1      44.363   2.733   9.667  0.00  0.00    +0.000 A 
ATOM     15  C   UNL     1      43.963   3.042  10.964  0.00  0.00    +0.000 A 
ATOM     16  C   UNL     1      44.318   4.271  11.511  0.00  0.00    +0.000 A 
ATOM     17  C   UNL     1      45.064   5.150  10.734  0.00  0.00    +0.000 A 
ATOM     18  N   UNL     1      45.462   4.872   9.461  0.00  0.00    +0.000 NA
ENDBRANCH   8  17
ENDBRANCH   7  10
ENDBRANCH   1   7
BRANCH   4  19
ATOM     19  C   UNL     1      49.033   7.658  17.546  0.00  0.00    +0.000 C 
BRANCH  19  20
ATOM     20  N   UNL     1      50.087   6.707  17.799  0.00  0.00    +0.000 N 
ATOM     21  C   UNL     1      49.840   5.512  18.434  0.00  0.00    +0.000 C 
ATOM     22  O   UNL     1      48.708   5.166  18.762  0.00  0.00    +0.000 OA
ATOM     23  H   UNL     1      51.039   7.056  17.755  0.00  0.00    +0.000 HD
BRANCH  21  24
ATOM     24  C   UNL     1      50.999   4.635  18.650  0.00  0.00    +0.000 A 
ATOM     25  C   UNL     1      52.052   5.054  19.454  0.00  0.00    +0.000 A 
ATOM     26  S   UNL     1      53.295   3.894  19.610  0.00  0.00    +0.000 S 
ATOM     27  C   UNL     1      52.489   2.808  18.578  0.00  0.00    +0.000 A 
ATOM     28  N   UNL     1      53.034   1.602  18.264  0.00  0.00    +0.000 NA
ATOM     29  C   UNL     1      52.317   0.887  17.460  0.00  0.00    +0.000 A 
ATOM     30  N   UNL     1      51.106   1.267  16.947  0.00  0.00    +0.000 N 
ATOM     31  C   UNL     1      50.507   2.465  17.253  0.00  0.00    +0.000 A 
ATOM     32  O   UNL     1      49.401   2.754  16.811  0.00  0.00    +0.000 OA
ATOM     33  C   UNL     1      51.276   3.314  18.142  0.00  0.00    +0.000 A 
ATOM     34  H   UNL     1      50.583   0.655  16.338  0.00  0.00    +0.000 HD
ENDBRANCH  21  24
ENDBRANCH  19  20
ENDBRANCH   4  19
TORSDOF 6
ENDMDL
MODEL 5
REMARK VINA RESULT:    -6.694      2.603      3.437
REMARK INTER + INTRA:         -10.146
REMARK INTER:                  -9.244
REMARK INTRA:                  -0.902
REMARK UNBOUND:                -1.104
REMARK  Name = 
REMARK  7 active torsions:
REMARK  status: ('A' for Active; 'I' for Inactive)
REMARK    1  A    between atoms: C_1  and  C_2
REMARK    2  A    between atoms: C_6  and  C_7
REMARK    3  A    between atoms: N_9  and  C_10
REMARK    4  A    between atoms: C_10  and  C_11
REMARK    5  A    between atoms: C_14  and  C_15
REMARK    6  A    between atoms: C_15  and  N_16
REMARK    7  A    between atoms: C_17  and  C_19
REMARK                            x       y       z     vdW  Elec       q    Type
REMARK                         _______ _______ _______ _____ _____    ______ ____
ROOT
ATOM      1  C   UNL     1      45.917   5.211  12.720  0.00  0.00    +0.000 A 
ATOM      2  C   UNL     1      46.476   4.596  13.850  0.00  0.00    +0.000 A 
ATOM      3  C   UNL     1      47.423   5.264  14.644  0.00  0.00    +0.000 A 
ATOM      4  C   UNL     1      47.820   6.573  14.343  0.00  0.00    +0.000 A 
ATOM      5  C   UNL     1      47.282   7.180  13.199  0.00  0.00    +0.000 A 
ATOM      6  C   UNL     1      46.330   6.514  12.409  0.00  0.00    +0.000 A 
ENDROOT
BRANCH   1   7
ATOM      7  C   UNL     1      44.925   4.474  11.849  0.00  0.00    +0.000 C 
BRANCH   7  10
ATOM      8  C   UNL     1      44.919   3.881   9.444  0.00  0.00    +0.000 C 
ATOM      9  O   UNL     1      43.839   4.412   9.224  0.00  0.00    +0.000 OA
ATOM     10  N   UNL     1      45.522   3.851  10.691  0.00  0.00    +0.000 N 
ATOM     11  H   UNL     1      46.431   3.403  10.749  0.00  0.00    +0.000 HD
BRANCH   8  17
ATOM     12  C   UNL     1      46.721  -0.269   7.688  0.00  0.00    +0.000 C 
ATOM     13  C   UNL     1      46.554   1.210   7.516  0.00  0.00    +0.000 A 
ATOM     14  C   UNL     1      47.091   1.866   6.411  0.00  0.00    +0.000 A 
ATOM     15  C   UNL     1      46.916   3.243   6.295  0.00  0.00    +0.000 A 
ATOM     16  C   UNL     1      46.209   3.925   7.280  0.00  0.00    +0.000 A 
ATOM     17  C   UNL     1      45.700   3.199   8.350  0.00  0.00    +0.000 A 
ATOM     18  N   UNL     1      45.862   1.853   8.489  0.00  0.00    +0.000 NA
ENDBRANCH   8  17
ENDBRANCH   7  10
ENDBRANCH   1   7
BRANCH   4  19
ATOM     19  C   UNL     1      48.789   7.313  15.237  0.00  0.00    +0.000 C 
BRANCH  19  20
ATOM     20  N   UNL     1      49.873   6.477  15.692  0.00  0.00    +0.000 N 
ATOM     21  C   UNL     1      49.913   5.988  16.976  0.00  0.00    +0.000 C 
ATOM     22  O   UNL     1      49.007   6.184  17.782  0.00  0.00    +0.000 OA
ATOM     23  H   UNL     1      50.725   6.494  15.141  0.00  0.00    +0.000 HD
BRANCH  21  24
ATOM     24  C   UNL     1      51.078   5.163  17.324  0.00  0.00    +0.000 A 
ATOM     25  C   UNL     1      50.904   3.866  17.793  0.00  0.00    +0.000 A 
ATOM     26  S   UNL     1      52.370   3.055  18.119  0.00  0.00    +0.000 S 
ATOM     27  C   UNL     1      53.288   4.419  17.685  0.00  0.00    +0.000 A 
ATOM     28  N   UNL     1      54.646   4.405  17.760  0.00  0.00    +0.000 NA
ATOM     29  C   UNL     1      55.210   5.514  17.411  0.00  0.00    +0.000 A 
ATOM     30  N   UNL     1      54.542   6.632  16.991  0.00  0.00    +0.000 N 
ATOM     31  C   UNL     1      53.173   6.686  16.878  0.00  0.00    +0.000 A 
ATOM     32  O   UNL     1      52.609   7.689  16.456  0.00  0.00    +0.000 OA
ATOM     33  C   UNL     1      52.487   5.470  17.272  0.00  0.00    +0.000 A 
ATOM     34  H   UNL     1      55.040   7.463  16.712  0.00  0.00    +0.000 HD
ENDBRANCH  21  24
ENDBRANCH  19  20
ENDBRANCH   4  19
TORSDOF 6
ENDMDL
MODEL 6
REMARK VINA RESULT:    -6.679      3.241      8.945
REMARK INTER + INTRA:         -10.125
REMARK INTER:                  -9.185
REMARK INTRA:                  -0.940
REMARK UNBOUND:                -1.104
REMARK  Name = 
REMARK  7 active torsions:
REMARK  status: ('A' for Active; 'I' for Inactive)
REMARK    1  A    between atoms: C_1  and  C_2
REMARK    2  A    between atoms: C_6  and  C_7
REMARK    3  A    between atoms: N_9  and  C_10
REMARK    4  A    between atoms: C_10  and  C_11
REMARK    5  A    between atoms: C_14  and  C_15
REMARK    6  A    between atoms: C_15  and  N_16
REMARK    7  A    between atoms: C_17  and  C_19
REMARK                            x       y       z     vdW  Elec       q    Type
REMARK                         _______ _______ _______ _____ _____    ______ ____
ROOT
ATOM      1  C   UNL     1      50.481   7.997  14.414  0.00  0.00    +0.000 A 
ATOM      2  C   UNL     1      50.581   8.107  13.020  0.00  0.00    +0.000 A 
ATOM      3  C   UNL     1      49.436   8.079  12.207  0.00  0.00    +0.000 A 
ATOM      4  C   UNL     1      48.157   7.963  12.768  0.00  0.00    +0.000 A 
ATOM      5  C   UNL     1      48.058   7.828  14.160  0.00  0.00    +0.000 A 
ATOM      6  C   UNL     1      49.203   7.861  14.973  0.00  0.00    +0.000 A 
ENDROOT
BRANCH   1   7
ATOM      7  C   UNL     1      51.721   7.992  15.281  0.00  0.00    +0.000 C 
BRANCH   7  10
ATOM      8  C   UNL     1      51.962   6.448  17.203  0.00  0.00    +0.000 C 
ATOM      9  O   UNL     1      51.658   7.292  18.035  0.00  0.00    +0.000 OA
ATOM     10  N   UNL     1      52.029   6.698  15.842  0.00  0.00    +0.000 N 
ATOM     11  H   UNL     1      52.269   5.913  15.244  0.00  0.00    +0.000 HD
BRANCH   8  17
ATOM     12  C   UNL     1      50.642   1.777  17.187  0.00  0.00    +0.000 C 
ATOM     13  C   UNL     1      51.660   2.802  17.585  0.00  0.00    +0.000 A 
ATOM     14  C   UNL     1      52.818   2.433  18.265  0.00  0.00    +0.000 A 
ATOM     15  C   UNL     1      53.734   3.420  18.621  0.00  0.00    +0.000 A 
ATOM     16  C   UNL     1      53.472   4.745  18.284  0.00  0.00    +0.000 A 
ATOM     17  C   UNL     1      52.296   5.033  17.601  0.00  0.00    +0.000 A 
ATOM     18  N   UNL     1      51.383   4.086  17.247  0.00  0.00    +0.000 NA
ENDBRANCH   8  17
ENDBRANCH   7  10
ENDBRANCH   1   7
BRANCH   4  19
ATOM     19  C   UNL     1      46.924   8.001  11.896  0.00  0.00    +0.000 C 
BRANCH  19  20
ATOM     20  N   UNL     1      46.387   6.687  11.637  0.00  0.00    +0.000 N 
ATOM     21  C   UNL     1      45.037   6.483  11.469  0.00  0.00    +0.000 C 
ATOM     22  O   UNL     1      44.229   7.407  11.470  0.00  0.00    +0.000 OA
ATOM     23  H   UNL     1      46.983   5.898  11.860  0.00  0.00    +0.000 HD
BRANCH  21  24
ATOM     24  C   UNL     1      44.612   5.097  11.229  0.00  0.00    +0.000 A 
ATOM     25  C   UNL     1      43.834   4.431  12.168  0.00  0.00    +0.000 A 
ATOM     26  S   UNL     1      43.416   2.842  11.706  0.00  0.00    +0.000 S 
ATOM     27  C   UNL     1      44.293   2.973  10.254  0.00  0.00    +0.000 A 
ATOM     28  N   UNL     1      44.369   1.931   9.383  0.00  0.00    +0.000 NA
ATOM     29  C   UNL     1      45.079   2.168   8.330  0.00  0.00    +0.000 A 
ATOM     30  N   UNL     1      45.715   3.352   8.067  0.00  0.00    +0.000 N 
ATOM     31  C   UNL     1      45.649   4.438   8.906  0.00  0.00    +0.000 A 
ATOM     32  O   UNL     1      46.194   5.498   8.619  0.00  0.00    +0.000 OA
ATOM     33  C   UNL     1      44.874   4.221  10.113  0.00  0.00    +0.000 A 
ATOM     34  H   UNL     1      46.239   3.484   7.216  0.00  0.00    +0.000 HD
ENDBRANCH  21  24
ENDBRANCH  19  20
ENDBRANCH   4  19
TORSDOF 6
ENDMDL
MODEL 7
REMARK VINA RESULT:    -6.612      5.221      7.832
REMARK INTER + INTRA:         -10.035
REMARK INTER:                  -9.141
REMARK INTRA:                  -0.894
REMARK UNBOUND:                -1.104
REMARK  Name = 
REMARK  7 active torsions:
REMARK  status: ('A' for Active; 'I' for Inactive)
REMARK    1  A    between atoms: C_1  and  C_2
REMARK    2  A    between atoms: C_6  and  C_7
REMARK    3  A    between atoms: N_9  and  C_10
REMARK    4  A    between atoms: C_10  and  C_11
REMARK    5  A    between atoms: C_14  and  C_15
REMARK    6  A    between atoms: C_15  and  N_16
REMARK    7  A    between atoms: C_17  and  C_19
REMARK                            x       y       z     vdW  Elec       q    Type
REMARK                         _______ _______ _______ _____ _____    ______ ____
ROOT
ATOM      1  C   UNL     1      50.149   9.129  11.391  0.00  0.00    +0.000 A 
ATOM      2  C   UNL     1      49.185  10.115  11.644  0.00  0.00    +0.000 A 
ATOM      3  C   UNL     1      47.927   9.779  12.170  0.00  0.00    +0.000 A 
ATOM      4  C   UNL     1      47.606   8.450  12.478  0.00  0.00    +0.000 A 
ATOM      5  C   UNL     1      48.560   7.461  12.201  0.00  0.00    +0.000 A 
ATOM      6  C   UNL     1      49.820   7.798  11.680  0.00  0.00    +0.000 A 
ENDROOT
BRANCH   1   7
ATOM      7  C   UNL     1      51.489   9.493  10.791  0.00  0.00    +0.000 C 
BRANCH   7  10
ATOM      8  C   UNL     1      53.029   8.309   9.253  0.00  0.00    +0.000 C 
ATOM      9  O   UNL     1      53.054   9.218   8.435  0.00  0.00    +0.000 OA
ATOM     10  N   UNL     1      52.289   8.348  10.424  0.00  0.00    +0.000 N 
ATOM     11  H   UNL     1      52.365   7.545  11.040  0.00  0.00    +0.000 HD
BRANCH   8  17
ATOM     12  C   UNL     1      55.116   4.425  11.279  0.00  0.00    +0.000 C 
ATOM     13  C   UNL     1      54.811   5.186  10.026  0.00  0.00    +0.000 A 
ATOM     14  C   UNL     1      55.238   4.721   8.785  0.00  0.00    +0.000 A 
ATOM     15  C   UNL     1      54.937   5.465   7.647  0.00  0.00    +0.000 A 
ATOM     16  C   UNL     1      54.215   6.647   7.777  0.00  0.00    +0.000 A 
ATOM     17  C   UNL     1      53.820   7.043   9.050  0.00  0.00    +0.000 A 
ATOM     18  N   UNL     1      54.107   6.335  10.178  0.00  0.00    +0.000 NA
ENDBRANCH   8  17
ENDBRANCH   7  10
ENDBRANCH   1   7
BRANCH   4  19
ATOM     19  C   UNL     1      46.276   8.101  13.106  0.00  0.00    +0.000 C 
BRANCH  19  20
ATOM     20  N   UNL     1      45.823   6.780  12.746  0.00  0.00    +0.000 N 
ATOM     21  C   UNL     1      44.932   6.581  11.718  0.00  0.00    +0.000 C 
ATOM     22  O   UNL     1      44.522   7.503  11.017  0.00  0.00    +0.000 OA
ATOM     23  H   UNL     1      45.955   6.048  13.436  0.00  0.00    +0.000 HD
BRANCH  21  24
ATOM     24  C   UNL     1      44.532   5.191  11.460  0.00  0.00    +0.000 A 
ATOM     25  C   UNL     1      43.771   4.496  12.392  0.00  0.00    +0.000 A 
ATOM     26  S   UNL     1      43.382   2.907  11.908  0.00  0.00    +0.000 S 
ATOM     27  C   UNL     1      44.251   3.075  10.456  0.00  0.00    +0.000 A 
ATOM     28  N   UNL     1      44.344   2.047   9.569  0.00  0.00    +0.000 NA
ATOM     29  C   UNL     1      45.045   2.313   8.517  0.00  0.00    +0.000 A 
ATOM     30  N   UNL     1      45.657   3.512   8.269  0.00  0.00    +0.000 N 
ATOM     31  C   UNL     1      45.573   4.585   9.124  0.00  0.00    +0.000 A 
ATOM     32  O   UNL     1      46.096   5.659   8.850  0.00  0.00    +0.000 OA
ATOM     33  C   UNL     1      44.808   4.336  10.331  0.00  0.00    +0.000 A 
ATOM     34  H   UNL     1      46.175   3.667   7.418  0.00  0.00    +0.000 HD
ENDBRANCH  21  24
ENDBRANCH  19  20
ENDBRANCH   4  19
TORSDOF 6
ENDMDL
MODEL 8
REMARK VINA RESULT:    -6.612      3.970      8.847
REMARK INTER + INTRA:         -10.034
REMARK INTER:                  -9.113
REMARK INTRA:                  -0.922
REMARK UNBOUND:                -1.104
REMARK  Name = 
REMARK  7 active torsions:
REMARK  status: ('A' for Active; 'I' for Inactive)
REMARK    1  A    between atoms: C_1  and  C_2
REMARK    2  A    between atoms: C_6  and  C_7
REMARK    3  A    between atoms: N_9  and  C_10
REMARK    4  A    between atoms: C_10  and  C_11
REMARK    5  A    between atoms: C_14  and  C_15
REMARK    6  A    between atoms: C_15  and  N_16
REMARK    7  A    between atoms: C_17  and  C_19
REMARK                            x       y       z     vdW  Elec       q    Type
REMARK                         _______ _______ _______ _____ _____    ______ ____
ROOT
ATOM      1  C   UNL     1      49.596   5.907  16.972  0.00  0.00    +0.000 A 
ATOM      2  C   UNL     1      48.407   5.518  16.340  0.00  0.00    +0.000 A 
ATOM      3  C   UNL     1      48.048   6.039  15.086  0.00  0.00    +0.000 A 
ATOM      4  C   UNL     1      48.881   6.947  14.419  0.00  0.00    +0.000 A 
ATOM      5  C   UNL     1      50.058   7.357  15.061  0.00  0.00    +0.000 A 
ATOM      6  C   UNL     1      50.419   6.831  16.312  0.00  0.00    +0.000 A 
ENDROOT
BRANCH   1   7
ATOM      7  C   UNL     1      49.959   5.369  18.338  0.00  0.00    +0.000 C 
BRANCH   7  10
ATOM      8  C   UNL     1      51.306   3.367  17.779  0.00  0.00    +0.000 C 
ATOM      9  O   UNL     1      50.379   2.787  17.229  0.00  0.00    +0.000 OA
ATOM     10  N   UNL     1      51.194   4.621  18.356  0.00  0.00    +0.000 N 
ATOM     11  H   UNL     1      52.037   5.015  18.762  0.00  0.00    +0.000 HD
BRANCH   8  17
ATOM     12  C   UNL     1      53.938  -0.659  18.430  0.00  0.00    +0.000 C 
ATOM     13  C   UNL     1      53.927   0.819  18.183  0.00  0.00    +0.000 A 
ATOM     14  C   UNL     1      55.117   1.530  18.052  0.00  0.00    +0.000 A 
ATOM     15  C   UNL     1      55.060   2.904  17.829  0.00  0.00    +0.000 A 
ATOM     16  C   UNL     1      53.820   3.527  17.738  0.00  0.00    +0.000 A 
ATOM     17  C   UNL     1      52.677   2.749  17.875  0.00  0.00    +0.000 A 
ATOM     18  N   UNL     1      52.708   1.405  18.099  0.00  0.00    +0.000 NA
ENDBRANCH   8  17
ENDBRANCH   7  10
ENDBRANCH   1   7
BRANCH   4  19
ATOM     19  C   UNL     1      48.525   7.454  13.040  0.00  0.00    +0.000 C 
BRANCH  19  20
ATOM     20  N   UNL     1      47.759   6.499  12.278  0.00  0.00    +0.000 N 
ATOM     21  C   UNL     1      46.513   6.808  11.783  0.00  0.00    +0.000 C 
ATOM     22  O   UNL     1      46.015   7.923  11.910  0.00  0.00    +0.000 OA
ATOM     23  H   UNL     1      48.032   5.525  12.359  0.00  0.00    +0.000 HD
BRANCH  21  24
ATOM     24  C   UNL     1      45.825   5.744  11.039  0.00  0.00    +0.000 A 
ATOM     25  C   UNL     1      45.944   5.667   9.657  0.00  0.00    +0.000 A 
ATOM     26  S   UNL     1      45.097   4.353   8.971  0.00  0.00    +0.000 S 
ATOM     27  C   UNL     1      44.509   3.865  10.490  0.00  0.00    +0.000 A 
ATOM     28  N   UNL     1      43.683   2.791  10.611  0.00  0.00    +0.000 NA
ATOM     29  C   UNL     1      43.305   2.544  11.823  0.00  0.00    +0.000 A 
ATOM     30  N   UNL     1      43.681   3.269  12.921  0.00  0.00    +0.000 N 
ATOM     31  C   UNL     1      44.529   4.348  12.850  0.00  0.00    +0.000 A 
ATOM     32  O   UNL     1      44.881   4.948  13.859  0.00  0.00    +0.000 OA
ATOM     33  C   UNL     1      44.974   4.678  11.509  0.00  0.00    +0.000 A 
ATOM     34  H   UNL     1      43.368   3.015  13.845  0.00  0.00    +0.000 HD
ENDBRANCH  21  24
ENDBRANCH  19  20
ENDBRANCH   4  19
TORSDOF 6
ENDMDL
MODEL 9
REMARK VINA RESULT:    -6.592      3.275      8.980
REMARK INTER + INTRA:         -10.008
REMARK INTER:                  -9.107
REMARK INTRA:                  -0.901
REMARK UNBOUND:                -1.104
REMARK  Name = 
REMARK  7 active torsions:
REMARK  status: ('A' for Active; 'I' for Inactive)
REMARK    1  A    between atoms: C_1  and  C_2
REMARK    2  A    between atoms: C_6  and  C_7
REMARK    3  A    between atoms: N_9  and  C_10
REMARK    4  A    between atoms: C_10  and  C_11
REMARK    5  A    between atoms: C_14  and  C_15
REMARK    6  A    between atoms: C_15  and  N_16
REMARK    7  A    between atoms: C_17  and  C_19
REMARK                            x       y       z     vdW  Elec       q    Type
REMARK                         _______ _______ _______ _____ _____    ______ ____
ROOT
ATOM      1  C   UNL     1      49.349   7.412  15.843  0.00  0.00    +0.000 A 
ATOM      2  C   UNL     1      48.635   6.315  15.341  0.00  0.00    +0.000 A 
ATOM      3  C   UNL     1      47.883   6.420  14.160  0.00  0.00    +0.000 A 
ATOM      4  C   UNL     1      47.842   7.619  13.436  0.00  0.00    +0.000 A 
ATOM      5  C   UNL     1      48.534   8.724  13.951  0.00  0.00    +0.000 A 
ATOM      6  C   UNL     1      49.292   8.617  15.130  0.00  0.00    +0.000 A 
ENDROOT
BRANCH   1   7
ATOM      7  C   UNL     1      50.129   7.302  17.135  0.00  0.00    +0.000 C 
BRANCH   7  10
ATOM      8  C   UNL     1      50.319   4.976  17.967  0.00  0.00    +0.000 C 
ATOM      9  O   UNL     1      49.230   4.992  18.525  0.00  0.00    +0.000 OA
ATOM     10  N   UNL     1      50.845   6.055  17.275  0.00  0.00    +0.000 N 
ATOM     11  H   UNL     1      51.747   5.919  16.831  0.00  0.00    +0.000 HD
BRANCH   8  17
ATOM     12  C   UNL     1      54.507   2.978  19.388  0.00  0.00    +0.000 C 
ATOM     13  C   UNL     1      53.201   2.804  18.675  0.00  0.00    +0.000 A 
ATOM     14  C   UNL     1      52.861   1.585  18.093  0.00  0.00    +0.000 A 
ATOM     15  C   UNL     1      51.639   1.471  17.435  0.00  0.00    +0.000 A 
ATOM     16  C   UNL     1      50.790   2.572  17.379  0.00  0.00    +0.000 A 
ATOM     17  C   UNL     1      51.199   3.752  17.988  0.00  0.00    +0.000 A 
ATOM     18  N   UNL     1      52.391   3.890  18.633  0.00  0.00    +0.000 NA
ENDBRANCH   8  17
ENDBRANCH   7  10
ENDBRANCH   1   7
BRANCH   4  19
ATOM     19  C   UNL     1      47.085   7.710  12.131  0.00  0.00    +0.000 C 
BRANCH  19  20
ATOM     20  N   UNL     1      46.507   6.449  11.736  0.00  0.00    +0.000 N 
ATOM     21  C   UNL     1      45.144   6.273  11.669  0.00  0.00    +0.000 C 
ATOM     22  O   UNL     1      44.354   7.189  11.882  0.00  0.00    +0.000 OA
ATOM     23  H   UNL     1      47.109   5.634  11.785  0.00  0.00    +0.000 HD
BRANCH  21  24
ATOM     24  C   UNL     1      44.677   4.938  11.273  0.00  0.00    +0.000 A 
ATOM     25  C   UNL     1      43.876   4.193  12.130  0.00  0.00    +0.000 A 
ATOM     26  S   UNL     1      43.410   2.681  11.488  0.00  0.00    +0.000 S 
ATOM     27  C   UNL     1      44.296   2.950  10.061  0.00  0.00    +0.000 A 
ATOM     28  N   UNL     1      44.342   2.013   9.076  0.00  0.00    +0.000 NA
ATOM     29  C   UNL     1      45.063   2.347   8.056  0.00  0.00    +0.000 A 
ATOM     30  N   UNL     1      45.735   3.533   7.931  0.00  0.00    +0.000 N 
ATOM     31  C   UNL     1      45.700   4.517   8.889  0.00  0.00    +0.000 A 
ATOM     32  O   UNL     1      46.278   5.586   8.725  0.00  0.00    +0.000 OA
ATOM     33  C   UNL     1      44.916   4.188  10.064  0.00  0.00    +0.000 A 
ATOM     34  H   UNL     1      46.266   3.745   7.100  0.00  0.00    +0.000 HD
ENDBRANCH  21  24
ENDBRANCH  19  20
ENDBRANCH   4  19
TORSDOF 6
ENDMDL
