MODEL 1
REMARK VINA RESULT:    -7.540      0.000      0.000
REMARK INTER + INTRA:         -11.125
REMARK INTER:                 -10.625
REMARK INTRA:                  -0.499
REMARK UNBOUND:                -0.499
REMARK  Name = 
REMARK  9 active torsions:
REMARK  status: ('A' for Active; 'I' for Inactive)
REMARK    1  A    between atoms: C_1  and  C_2
REMARK    2  A    between atoms: C_2  and  C_3
REMARK    3  A    between atoms: C_5  and  N_6
REMARK    4  A    between atoms: N_6  and  C_7
REMARK    5  A    between atoms: C_7  and  C_8
REMARK    6  A    between atoms: C_8  and  C_9
REMARK    7  A    between atoms: C_8  and  C_10
REMARK    8  A    between atoms: N_15  and  C_16
REMARK    9  A    between atoms: C_23  and  C_24
REMARK                            x       y       z     vdW  Elec       q    Type
REMARK                         _______ _______ _______ _____ _____    ______ ____
ROOT
ATOM      1  N   UNL     1      46.614   4.697  13.246  0.00  0.00    +0.000 N 
ATOM      2  H   UNL     1      47.148   4.357  12.456  0.00  0.00    +0.000 HD
ENDROOT
BRANCH   1   5
ATOM      3  C   UNL     1      48.303   5.303  16.498  0.00  0.00    +0.000 A 
ATOM      4  C   UNL     1      47.681   5.551  15.259  0.00  0.00    +0.000 A 
ATOM      5  C   UNL     1      47.261   4.507  14.444  0.00  0.00    +0.000 A 
ATOM      6  N   UNL     1      47.433   3.228  14.816  0.00  0.00    +0.000 NA
ATOM      7  C   UNL     1      48.018   2.990  16.024  0.00  0.00    +0.000 A 
ATOM      8  C   UNL     1      48.484   3.971  16.892  0.00  0.00    +0.000 A 
BRANCH   8   9
ATOM      9  C   UNL     1      49.096   3.583  18.191  0.00  0.00    +0.000 C 
ATOM     10  N   UNL     1      48.248   3.171  19.192  0.00  0.00    +0.000 N 
ATOM     11  O   UNL     1      50.301   3.592  18.392  0.00  0.00    +0.000 OA
ATOM     12  H   UNL     1      47.276   2.946  19.050  0.00  0.00    +0.000 HD
ATOM     13  H   UNL     1      48.693   2.826  20.033  0.00  0.00    +0.000 HD
ENDBRANCH   8   9
BRANCH   3  15
ATOM     14  C   UNL     1      49.122   7.673  16.474  0.00  0.00    +0.000 C 
ATOM     15  C   UNL     1      48.688   6.498  17.339  0.00  0.00    +0.000 C 
ENDBRANCH   3  15
ENDBRANCH   1   5
BRANCH   1  16
ATOM     16  C   UNL     1      45.506   5.618  13.069  0.00  0.00    +0.000 C 
BRANCH  16  17
ATOM     17  C   UNL     1      45.380   6.150  11.623  0.00  0.00    +0.000 C 
ATOM     18  C   UNL     1      44.374   7.304  11.520  0.00  0.00    +0.000 C 
BRANCH  17  19
ATOM     19  C   UNL     1      45.059   4.985  10.689  0.00  0.00    +0.000 A 
ATOM     20  C   UNL     1      44.238   3.914  11.045  0.00  0.00    +0.000 A 
ATOM     21  C   UNL     1      44.095   2.861  10.150  0.00  0.00    +0.000 A 
ATOM     22  N   UNL     1      44.718   2.784   8.953  0.00  0.00    +0.000 NA
ATOM     23  C   UNL     1      45.495   3.822   8.597  0.00  0.00    +0.000 A 
ATOM     24  N   UNL     1      46.204   3.802   7.379  0.00  0.00    +0.000 N 
ATOM     25  C   UNL     1      45.676   4.928   9.431  0.00  0.00    +0.000 A 
ATOM     26  H   UNL     1      45.953   4.626   6.837  0.00  0.00    +0.000 HD
BRANCH  24  27
ATOM     27  C   UNL     1      46.406   2.621   6.584  0.00  0.00    +0.000 C 
ATOM     28  C   UNL     1      47.435   1.668   7.211  0.00  0.00    +0.000 C 
ATOM     29  O   UNL     1      48.212   1.634   5.990  0.00  0.00    +0.000 OA
ATOM     30  C   UNL     1      47.411   2.711   5.433  0.00  0.00    +0.000 C 
ENDBRANCH  24  27
ENDBRANCH  17  19
ENDBRANCH  16  17
ENDBRANCH   1  16
TORSDOF 7
ENDMDL
MODEL 2
REMARK VINA RESULT:    -7.294      1.338      2.016
REMARK INTER + INTRA:         -10.778
REMARK INTER:                  -9.990
REMARK INTRA:                  -0.788
REMARK UNBOUND:                -0.499
REMARK  Name = 
REMARK  9 active torsions:
REMARK  status: ('A' for Active; 'I' for Inactive)
REMARK    1  A    between atoms: C_1  and  C_2
REMARK    2  A    between atoms: C_2  and  C_3
REMARK    3  A    between atoms: C_5  and  N_6
REMARK    4  A    between atoms: N_6  and  C_7
REMARK    5  A    between atoms: C_7  and  C_8
REMARK    6  A    between atoms: C_8  and  C_9
REMARK    7  A    between atoms: C_8  and  C_10
REMARK    8  A    between atoms: N_15  and  C_16
REMARK    9  A    between atoms: C_23  and  C_24
REMARK                            x       y       z     vdW  Elec       q    Type
REMARK                         _______ _______ _______ _____ _____    ______ ____
ROOT
ATOM      1  N   UNL     1      46.935   5.270  12.441  0.00  0.00    +0.000 N 
ATOM      2  H   UNL     1      47.361   4.477  11.980  0.00  0.00    +0.000 HD
ENDROOT
BRANCH   1   5
ATOM      3  C   UNL     1      47.539   4.701  16.062  0.00  0.00    +0.000 A 
ATOM      4  C   UNL     1      47.044   4.525  14.755  0.00  0.00    +0.000 A 
ATOM      5  C   UNL     1      47.361   5.420  13.740  0.00  0.00    +0.000 A 
ATOM      6  N   UNL     1      48.155   6.477  13.974  0.00  0.00    +0.000 NA
ATOM      7  C   UNL     1      48.650   6.635  15.234  0.00  0.00    +0.000 A 
ATOM      8  C   UNL     1      48.369   5.801  16.312  0.00  0.00    +0.000 A 
BRANCH   8   9
ATOM      9  C   UNL     1      48.982   6.074  17.639  0.00  0.00    +0.000 C 
ATOM     10  N   UNL     1      48.227   6.769  18.554  0.00  0.00    +0.000 N 
ATOM     11  O   UNL     1      50.100   5.693  17.951  0.00  0.00    +0.000 OA
ATOM     12  H   UNL     1      47.240   6.944  18.454  0.00  0.00    +0.000 HD
ATOM     13  H   UNL     1      48.630   6.862  19.479  0.00  0.00    +0.000 HD
ENDBRANCH   8   9
BRANCH   3  15
ATOM     14  C   UNL     1      48.187   2.517  17.109  0.00  0.00    +0.000 C 
ATOM     15  C   UNL     1      47.178   3.657  17.093  0.00  0.00    +0.000 C 
ENDBRANCH   3  15
ENDBRANCH   1   5
BRANCH   1  16
ATOM     16  C   UNL     1      46.281   6.323  11.685  0.00  0.00    +0.000 C 
BRANCH  16  17
ATOM     17  C   UNL     1      44.790   6.030  11.397  0.00  0.00    +0.000 C 
ATOM     18  C   UNL     1      43.960   5.956  12.685  0.00  0.00    +0.000 C 
BRANCH  17  19
ATOM     19  C   UNL     1      44.686   4.771  10.539  0.00  0.00    +0.000 A 
ATOM     20  C   UNL     1      44.101   3.583  10.980  0.00  0.00    +0.000 A 
ATOM     21  C   UNL     1      44.150   2.471  10.148  0.00  0.00    +0.000 A 
ATOM     22  N   UNL     1      44.750   2.446   8.936  0.00  0.00    +0.000 NA
ATOM     23  C   UNL     1      45.298   3.593   8.499  0.00  0.00    +0.000 A 
ATOM     24  N   UNL     1      45.971   3.641   7.262  0.00  0.00    +0.000 N 
ATOM     25  C   UNL     1      45.275   4.761   9.266  0.00  0.00    +0.000 A 
ATOM     26  H   UNL     1      45.550   4.365   6.685  0.00  0.00    +0.000 HD
BRANCH  24  27
ATOM     27  C   UNL     1      46.386   2.477   6.526  0.00  0.00    +0.000 C 
ATOM     28  C   UNL     1      47.525   1.722   7.227  0.00  0.00    +0.000 C 
ATOM     29  O   UNL     1      48.345   1.765   6.036  0.00  0.00    +0.000 OA
ATOM     30  C   UNL     1      47.409   2.681   5.406  0.00  0.00    +0.000 C 
ENDBRANCH  24  27
ENDBRANCH  17  19
ENDBRANCH  16  17
ENDBRANCH   1  16
TORSDOF 7
ENDMDL
MODEL 3
REMARK VINA RESULT:    -7.129      3.259      7.751
REMARK INTER + INTRA:         -10.546
REMARK INTER:                  -9.173
REMARK INTRA:                  -1.373
REMARK UNBOUND:                -0.499
REMARK  Name = 
REMARK  9 active torsions:
REMARK  status: ('A' for Active; 'I' for Inactive)
REMARK    1  A    between atoms: C_1  and  C_2
REMARK    2  A    between atoms: C_2  and  C_3
REMARK    3  A    between atoms: C_5  and  N_6
REMARK    4  A    between atoms: N_6  and  C_7
REMARK    5  A    between atoms: C_7  and  C_8
REMARK    6  A    between atoms: C_8  and  C_9
REMARK    7  A    between atoms: C_8  and  C_10
REMARK    8  A    between atoms: N_15  and  C_16
REMARK    9  A    between atoms: C_23  and  C_24
REMARK                            x       y       z     vdW  Elec       q    Type
REMARK                         _______ _______ _______ _____ _____    ______ ____
ROOT
ATOM      1  N   UNL     1      44.786   8.125  12.538  0.00  0.00    +0.000 N 
ATOM      2  H   UNL     1      44.167   8.401  13.290  0.00  0.00    +0.000 HD
ENDROOT
BRANCH   1   5
ATOM      3  C   UNL     1      45.206   4.442  12.300  0.00  0.00    +0.000 A 
ATOM      4  C   UNL     1      45.433   5.783  12.666  0.00  0.00    +0.000 A 
ATOM      5  C   UNL     1      44.628   6.807  12.181  0.00  0.00    +0.000 A 
ATOM      6  N   UNL     1      43.605   6.547  11.351  0.00  0.00    +0.000 NA
ATOM      7  C   UNL     1      43.373   5.247  11.014  0.00  0.00    +0.000 A 
ATOM      8  C   UNL     1      44.138   4.164  11.436  0.00  0.00    +0.000 A 
BRANCH   8   9
ATOM      9  C   UNL     1      43.775   2.788  11.007  0.00  0.00    +0.000 C 
ATOM     10  N   UNL     1      44.443   2.265   9.925  0.00  0.00    +0.000 N 
ATOM     11  O   UNL     1      42.939   2.106  11.580  0.00  0.00    +0.000 OA
ATOM     12  H   UNL     1      45.272   2.673   9.523  0.00  0.00    +0.000 HD
ATOM     13  H   UNL     1      44.244   1.296   9.709  0.00  0.00    +0.000 HD
ENDBRANCH   8   9
BRANCH   3  15
ATOM     14  C   UNL     1      47.005   3.978  13.983  0.00  0.00    +0.000 C 
ATOM     15  C   UNL     1      46.102   3.389  12.908  0.00  0.00    +0.000 C 
ENDBRANCH   3  15
ENDBRANCH   1   5
BRANCH   1  16
ATOM     16  C   UNL     1      45.447   9.110  11.701  0.00  0.00    +0.000 C 
BRANCH  16  17
ATOM     17  C   UNL     1      46.623   9.821  12.410  0.00  0.00    +0.000 C 
ATOM     18  C   UNL     1      47.264  10.895  11.523  0.00  0.00    +0.000 C 
BRANCH  17  19
ATOM     19  C   UNL     1      47.618   8.770  12.900  0.00  0.00    +0.000 A 
ATOM     20  C   UNL     1      48.366   7.959  12.046  0.00  0.00    +0.000 A 
ATOM     21  C   UNL     1      49.168   6.971  12.604  0.00  0.00    +0.000 A 
ATOM     22  N   UNL     1      49.263   6.717  13.929  0.00  0.00    +0.000 NA
ATOM     23  C   UNL     1      48.558   7.509  14.756  0.00  0.00    +0.000 A 
ATOM     24  N   UNL     1      48.578   7.289  16.148  0.00  0.00    +0.000 N 
ATOM     25  C   UNL     1      47.743   8.538  14.277  0.00  0.00    +0.000 A 
ATOM     26  H   UNL     1      48.875   8.143  16.614  0.00  0.00    +0.000 HD
BRANCH  24  27
ATOM     27  C   UNL     1      49.069   6.087  16.766  0.00  0.00    +0.000 C 
ATOM     28  C   UNL     1      47.932   5.202  17.299  0.00  0.00    +0.000 C 
ATOM     29  O   UNL     1      48.530   5.152  18.616  0.00  0.00    +0.000 OA
ATOM     30  C   UNL     1      49.491   6.174  18.235  0.00  0.00    +0.000 C 
ENDBRANCH  24  27
ENDBRANCH  17  19
ENDBRANCH  16  17
ENDBRANCH   1  16
TORSDOF 7
ENDMDL
MODEL 4
REMARK VINA RESULT:    -6.662      3.047      7.380
REMARK INTER + INTRA:          -9.888
REMARK INTER:                  -8.787
REMARK INTRA:                  -1.101
REMARK UNBOUND:                -0.499
REMARK  Name = 
REMARK  9 active torsions:
REMARK  status: ('A' for Active; 'I' for Inactive)
REMARK    1  A    between atoms: C_1  and  C_2
REMARK    2  A    between atoms: C_2  and  C_3
REMARK    3  A    between atoms: C_5  and  N_6
REMARK    4  A    between atoms: N_6  and  C_7
REMARK    5  A    between atoms: C_7  and  C_8
REMARK    6  A    between atoms: C_8  and  C_9
REMARK    7  A    between atoms: C_8  and  C_10
REMARK    8  A    between atoms: N_15  and  C_16
REMARK    9  A    between atoms: C_23  and  C_24
REMARK                            x       y       z     vdW  Elec       q    Type
REMARK                         _______ _______ _______ _____ _____    ______ ____
ROOT
ATOM      1  N   UNL     1      45.106   8.756  11.434  0.00  0.00    +0.000 N 
ATOM      2  H   UNL     1      45.237   9.017  10.466  0.00  0.00    +0.000 HD
ENDROOT
BRANCH   1   5
ATOM      3  C   UNL     1      44.600   5.140  10.750  0.00  0.00    +0.000 A 
ATOM      4  C   UNL     1      44.756   6.522  10.533  0.00  0.00    +0.000 A 
ATOM      5  C   UNL     1      44.912   7.404  11.596  0.00  0.00    +0.000 A 
ATOM      6  N   UNL     1      44.922   6.962  12.864  0.00  0.00    +0.000 NA
ATOM      7  C   UNL     1      44.792   5.621  13.072  0.00  0.00    +0.000 A 
ATOM      8  C   UNL     1      44.612   4.672  12.070  0.00  0.00    +0.000 A 
BRANCH   8   9
ATOM      9  C   UNL     1      44.493   3.233  12.426  0.00  0.00    +0.000 C 
ATOM     10  N   UNL     1      45.651   2.555  12.721  0.00  0.00    +0.000 N 
ATOM     11  O   UNL     1      43.423   2.646  12.487  0.00  0.00    +0.000 OA
ATOM     12  H   UNL     1      46.539   3.002  12.887  0.00  0.00    +0.000 HD
ATOM     13  H   UNL     1      45.535   1.604  13.048  0.00  0.00    +0.000 HD
ENDBRANCH   8   9
BRANCH   3  15
ATOM     14  C   UNL     1      45.624   4.484   8.557  0.00  0.00    +0.000 C 
ATOM     15  C   UNL     1      44.481   4.250   9.535  0.00  0.00    +0.000 C 
ENDBRANCH   3  15
ENDBRANCH   1   5
BRANCH   1  16
ATOM     16  C   UNL     1      45.483   9.647  12.517  0.00  0.00    +0.000 C 
BRANCH  16  17
ATOM     17  C   UNL     1      46.995   9.970  12.542  0.00  0.00    +0.000 C 
ATOM     18  C   UNL     1      47.471  10.599  11.227  0.00  0.00    +0.000 C 
BRANCH  17  19
ATOM     19  C   UNL     1      47.767   8.708  12.922  0.00  0.00    +0.000 A 
ATOM     20  C   UNL     1      48.563   7.991  12.028  0.00  0.00    +0.000 A 
ATOM     21  C   UNL     1      49.141   6.804  12.458  0.00  0.00    +0.000 A 
ATOM     22  N   UNL     1      48.971   6.270  13.689  0.00  0.00    +0.000 NA
ATOM     23  C   UNL     1      48.221   6.967  14.561  0.00  0.00    +0.000 A 
ATOM     24  N   UNL     1      47.969   6.463  15.852  0.00  0.00    +0.000 N 
ATOM     25  C   UNL     1      47.619   8.179  14.213  0.00  0.00    +0.000 A 
ATOM     26  H   UNL     1      48.269   7.150  16.539  0.00  0.00    +0.000 HD
BRANCH  24  27
ATOM     27  C   UNL     1      48.209   5.100  16.246  0.00  0.00    +0.000 C 
ATOM     28  C   UNL     1      47.146   4.140  15.693  0.00  0.00    +0.000 C 
ATOM     29  O   UNL     1      46.870   3.615  17.013  0.00  0.00    +0.000 OA
ATOM     30  C   UNL     1      47.682   4.660  17.614  0.00  0.00    +0.000 C 
ENDBRANCH  24  27
ENDBRANCH  17  19
ENDBRANCH  16  17
ENDBRANCH   1  16
TORSDOF 7
ENDMDL
MODEL 5
REMARK VINA RESULT:    -6.345      3.214      9.016
REMARK INTER + INTRA:          -9.441
REMARK INTER:                  -8.872
REMARK INTRA:                  -0.569
REMARK UNBOUND:                -0.499
REMARK  Name = 
REMARK  9 active torsions:
REMARK  status: ('A' for Active; 'I' for Inactive)
REMARK    1  A    between atoms: C_1  and  C_2
REMARK    2  A    between atoms: C_2  and  C_3
REMARK    3  A    between atoms: C_5  and  N_6
REMARK    4  A    between atoms: N_6  and  C_7
REMARK    5  A    between atoms: C_7  and  C_8
REMARK    6  A    between atoms: C_8  and  C_9
REMARK    7  A    between atoms: C_8  and  C_10
REMARK    8  A    between atoms: N_15  and  C_16
REMARK    9  A    between atoms: C_23  and  C_24
REMARK                            x       y       z     vdW  Elec       q    Type
REMARK                         _______ _______ _______ _____ _____    ______ ____
ROOT
ATOM      1  N   UNL     1      47.173   4.764  15.233  0.00  0.00    +0.000 N 
ATOM      2  H   UNL     1      47.656   5.638  15.401  0.00  0.00    +0.000 HD
ENDROOT
BRANCH   1   5
ATOM      3  C   UNL     1      45.368   5.879  12.184  0.00  0.00    +0.000 A 
ATOM      4  C   UNL     1      46.050   5.929  13.415  0.00  0.00    +0.000 A 
ATOM      5  C   UNL     1      46.471   4.767  14.051  0.00  0.00    +0.000 A 
ATOM      6  N   UNL     1      46.243   3.560  13.507  0.00  0.00    +0.000 NA
ATOM      7  C   UNL     1      45.602   3.515  12.305  0.00  0.00    +0.000 A 
ATOM      8  C   UNL     1      45.130   4.624  11.610  0.00  0.00    +0.000 A 
BRANCH   8   9
ATOM      9  C   UNL     1      44.453   4.444  10.298  0.00  0.00    +0.000 C 
ATOM     10  N   UNL     1      45.155   4.793   9.170  0.00  0.00    +0.000 N 
ATOM     11  O   UNL     1      43.326   3.985  10.184  0.00  0.00    +0.000 OA
ATOM     12  H   UNL     1      46.144   4.988   9.159  0.00  0.00    +0.000 HD
ATOM     13  H   UNL     1      44.709   4.576   8.287  0.00  0.00    +0.000 HD
ENDBRANCH   8   9
BRANCH   3  15
ATOM     14  C   UNL     1      45.710   8.363  12.194  0.00  0.00    +0.000 C 
ATOM     15  C   UNL     1      44.986   7.193  11.543  0.00  0.00    +0.000 C 
ENDBRANCH   3  15
ENDBRANCH   1   5
BRANCH   1  16
ATOM     16  C   UNL     1      47.523   3.555  15.956  0.00  0.00    +0.000 C 
BRANCH  16  17
ATOM     17  C   UNL     1      47.892   3.814  17.435  0.00  0.00    +0.000 C 
ATOM     18  C   UNL     1      47.119   5.002  18.021  0.00  0.00    +0.000 C 
BRANCH  17  19
ATOM     19  C   UNL     1      49.408   3.965  17.551  0.00  0.00    +0.000 A 
ATOM     20  C   UNL     1      50.080   5.172  17.362  0.00  0.00    +0.000 A 
ATOM     21  C   UNL     1      51.469   5.171  17.396  0.00  0.00    +0.000 A 
ATOM     22  N   UNL     1      52.230   4.068  17.579  0.00  0.00    +0.000 NA
ATOM     23  C   UNL     1      51.587   2.905  17.781  0.00  0.00    +0.000 A 
ATOM     24  N   UNL     1      52.308   1.706  17.947  0.00  0.00    +0.000 N 
ATOM     25  C   UNL     1      50.192   2.824  17.781  0.00  0.00    +0.000 A 
ATOM     26  H   UNL     1      52.036   1.276  18.828  0.00  0.00    +0.000 HD
BRANCH  24  27
ATOM     27  C   UNL     1      53.703   1.555  17.630  0.00  0.00    +0.000 C 
ATOM     28  C   UNL     1      54.018   0.172  17.041  0.00  0.00    +0.000 C 
ATOM     29  O   UNL     1      55.054  -0.059  18.025  0.00  0.00    +0.000 OA
ATOM     30  C   UNL     1      54.638   1.122  18.762  0.00  0.00    +0.000 C 
ENDBRANCH  24  27
ENDBRANCH  17  19
ENDBRANCH  16  17
ENDBRANCH   1  16
TORSDOF 7
ENDMDL
MODEL 6
REMARK VINA RESULT:    -6.269      3.392      4.763
REMARK INTER + INTRA:          -9.333
REMARK INTER:                  -8.053
REMARK INTRA:                  -1.280
REMARK UNBOUND:                -0.499
REMARK  Name = 
REMARK  9 active torsions:
REMARK  status: ('A' for Active; 'I' for Inactive)
REMARK    1  A    between atoms: C_1  and  C_2
REMARK    2  A    between atoms: C_2  and  C_3
REMARK    3  A    between atoms: C_5  and  N_6
REMARK    4  A    between atoms: N_6  and  C_7
REMARK    5  A    between atoms: C_7  and  C_8
REMARK    6  A    between atoms: C_8  and  C_9
REMARK    7  A    between atoms: C_8  and  C_10
REMARK    8  A    between atoms: N_15  and  C_16
REMARK    9  A    between atoms: C_23  and  C_24
REMARK                            x       y       z     vdW  Elec       q    Type
REMARK                         _______ _______ _______ _____ _____    ______ ____
ROOT
ATOM      1  N   UNL     1      49.428   8.386  14.409  0.00  0.00    +0.000 N 
ATOM      2  H   UNL     1      49.101   9.341  14.485  0.00  0.00    +0.000 HD
ENDROOT
BRANCH   1   5
ATOM      3  C   UNL     1      48.211   5.539  16.462  0.00  0.00    +0.000 A 
ATOM      4  C   UNL     1      48.557   6.311  15.336  0.00  0.00    +0.000 A 
ATOM      5  C   UNL     1      49.040   7.607  15.474  0.00  0.00    +0.000 A 
ATOM      6  N   UNL     1      49.195   8.161  16.687  0.00  0.00    +0.000 NA
ATOM      7  C   UNL     1      48.879   7.406  17.777  0.00  0.00    +0.000 A 
ATOM      8  C   UNL     1      48.373   6.111  17.730  0.00  0.00    +0.000 A 
BRANCH   8   9
ATOM      9  C   UNL     1      48.076   5.386  18.994  0.00  0.00    +0.000 C 
ATOM     10  N   UNL     1      46.812   5.516  19.517  0.00  0.00    +0.000 N 
ATOM     11  O   UNL     1      48.890   4.674  19.564  0.00  0.00    +0.000 OA
ATOM     12  H   UNL     1      46.033   5.913  19.017  0.00  0.00    +0.000 HD
ATOM     13  H   UNL     1      46.607   4.941  20.326  0.00  0.00    +0.000 HD
ENDBRANCH   8   9
BRANCH   3  15
ATOM     14  C   UNL     1      47.018   3.998  14.885  0.00  0.00    +0.000 C 
ATOM     15  C   UNL     1      47.735   4.126  16.221  0.00  0.00    +0.000 C 
ENDBRANCH   3  15
ENDBRANCH   1   5
BRANCH   1  16
ATOM     16  C   UNL     1      49.891   7.843  13.145  0.00  0.00    +0.000 C 
BRANCH  16  17
ATOM     17  C   UNL     1      49.141   8.421  11.922  0.00  0.00    +0.000 C 
ATOM     18  C   UNL     1      49.426   9.915  11.726  0.00  0.00    +0.000 C 
BRANCH  17  19
ATOM     19  C   UNL     1      47.653   8.102  12.055  0.00  0.00    +0.000 A 
ATOM     20  C   UNL     1      46.703   9.024  12.496  0.00  0.00    +0.000 A 
ATOM     21  C   UNL     1      45.393   8.595  12.670  0.00  0.00    +0.000 A 
ATOM     22  N   UNL     1      44.967   7.328  12.463  0.00  0.00    +0.000 NA
ATOM     23  C   UNL     1      45.875   6.441  12.019  0.00  0.00    +0.000 A 
ATOM     24  N   UNL     1      45.518   5.094  11.810  0.00  0.00    +0.000 N 
ATOM     25  C   UNL     1      47.209   6.797  11.800  0.00  0.00    +0.000 A 
ATOM     26  H   UNL     1      45.739   4.839  10.851  0.00  0.00    +0.000 HD
BRANCH  24  27
ATOM     27  C   UNL     1      44.310   4.494  12.310  0.00  0.00    +0.000 C 
ATOM     28  C   UNL     1      44.276   2.976  12.077  0.00  0.00    +0.000 C 
ATOM     29  O   UNL     1      42.992   3.063  11.415  0.00  0.00    +0.000 OA
ATOM     30  C   UNL     1      43.084   4.513  11.394  0.00  0.00    +0.000 C 
ENDBRANCH  24  27
ENDBRANCH  17  19
ENDBRANCH  16  17
ENDBRANCH   1  16
TORSDOF 7
ENDMDL
MODEL 7
REMARK VINA RESULT:    -6.226      3.080      4.437
REMARK INTER + INTRA:          -9.274
REMARK INTER:                  -8.380
REMARK INTRA:                  -0.894
REMARK UNBOUND:                -0.499
REMARK  Name = 
REMARK  9 active torsions:
REMARK  status: ('A' for Active; 'I' for Inactive)
REMARK    1  A    between atoms: C_1  and  C_2
REMARK    2  A    between atoms: C_2  and  C_3
REMARK    3  A    between atoms: C_5  and  N_6
REMARK    4  A    between atoms: N_6  and  C_7
REMARK    5  A    between atoms: C_7  and  C_8
REMARK    6  A    between atoms: C_8  and  C_9
REMARK    7  A    between atoms: C_8  and  C_10
REMARK    8  A    between atoms: N_15  and  C_16
REMARK    9  A    between atoms: C_23  and  C_24
REMARK                            x       y       z     vdW  Elec       q    Type
REMARK                         _______ _______ _______ _____ _____    ______ ____
ROOT
ATOM      1  N   UNL     1      48.044   7.389  14.969  0.00  0.00    +0.000 N 
ATOM      2  H   UNL     1      47.125   7.019  14.761  0.00  0.00    +0.000 HD
ENDROOT
BRANCH   1   5
ATOM      3  C   UNL     1      49.082   4.541  17.115  0.00  0.00    +0.000 A 
ATOM      4  C   UNL     1      48.286   5.362  16.294  0.00  0.00    +0.000 A 
ATOM      5  C   UNL     1      48.767   6.572  15.805  0.00  0.00    +0.000 A 
ATOM      6  N   UNL     1      50.008   6.991  16.100  0.00  0.00    +0.000 NA
ATOM      7  C   UNL     1      50.784   6.186  16.878  0.00  0.00    +0.000 A 
ATOM      8  C   UNL     1      50.378   4.972  17.424  0.00  0.00    +0.000 A 
BRANCH   8   9
ATOM      9  C   UNL     1      51.325   4.178  18.251  0.00  0.00    +0.000 C 
ATOM     10  N   UNL     1      51.287   4.364  19.612  0.00  0.00    +0.000 N 
ATOM     11  O   UNL     1      52.106   3.365  17.780  0.00  0.00    +0.000 OA
ATOM     12  H   UNL     1      50.552   4.857  20.094  0.00  0.00    +0.000 HD
ATOM     13  H   UNL     1      51.876   3.747  20.159  0.00  0.00    +0.000 HD
ENDBRANCH   8   9
BRANCH   3  15
ATOM     14  C   UNL     1      48.758   2.120  16.550  0.00  0.00    +0.000 C 
ATOM     15  C   UNL     1      48.495   3.224  17.565  0.00  0.00    +0.000 C 
ENDBRANCH   3  15
ENDBRANCH   1   5
BRANCH   1  16
ATOM     16  C   UNL     1      48.639   8.436  14.159  0.00  0.00    +0.000 C 
BRANCH  16  17
ATOM     17  C   UNL     1      48.703   8.082  12.655  0.00  0.00    +0.000 C 
ATOM     18  C   UNL     1      49.442   9.153  11.843  0.00  0.00    +0.000 C 
BRANCH  17  19
ATOM     19  C   UNL     1      47.288   7.809  12.148  0.00  0.00    +0.000 A 
ATOM     20  C   UNL     1      46.278   8.771  12.121  0.00  0.00    +0.000 A 
ATOM     21  C   UNL     1      45.003   8.384  11.730  0.00  0.00    +0.000 A 
ATOM     22  N   UNL     1      44.656   7.122  11.389  0.00  0.00    +0.000 NA
ATOM     23  C   UNL     1      45.630   6.195  11.394  0.00  0.00    +0.000 A 
ATOM     24  N   UNL     1      45.342   4.851  11.083  0.00  0.00    +0.000 N 
ATOM     25  C   UNL     1      46.943   6.506  11.757  0.00  0.00    +0.000 A 
ATOM     26  H   UNL     1      45.940   4.555  10.315  0.00  0.00    +0.000 HD
BRANCH  24  27
ATOM     27  C   UNL     1      44.013   4.302  11.034  0.00  0.00    +0.000 C 
ATOM     28  C   UNL     1      43.530   3.828  12.413  0.00  0.00    +0.000 C 
ATOM     29  O   UNL     1      43.213   2.513  11.897  0.00  0.00    +0.000 OA
ATOM     30  C   UNL     1      43.875   2.829  10.643  0.00  0.00    +0.000 C 
ENDBRANCH  24  27
ENDBRANCH  17  19
ENDBRANCH  16  17
ENDBRANCH   1  16
TORSDOF 7
ENDMDL
MODEL 8
REMARK VINA RESULT:    -6.190      2.469      3.900
REMARK INTER + INTRA:          -9.222
REMARK INTER:                  -8.748
REMARK INTRA:                  -0.474
REMARK UNBOUND:                -0.499
REMARK  Name = 
REMARK  9 active torsions:
REMARK  status: ('A' for Active; 'I' for Inactive)
REMARK    1  A    between atoms: C_1  and  C_2
REMARK    2  A    between atoms: C_2  and  C_3
REMARK    3  A    between atoms: C_5  and  N_6
REMARK    4  A    between atoms: N_6  and  C_7
REMARK    5  A    between atoms: C_7  and  C_8
REMARK    6  A    between atoms: C_8  and  C_9
REMARK    7  A    between atoms: C_8  and  C_10
REMARK    8  A    between atoms: N_15  and  C_16
REMARK    9  A    between atoms: C_23  and  C_24
REMARK                            x       y       z     vdW  Elec       q    Type
REMARK                         _______ _______ _______ _____ _____    ______ ____
ROOT
ATOM      1  N   UNL     1      49.849   7.735  15.316  0.00  0.00    +0.000 N 
ATOM      2  H   UNL     1      50.660   8.333  15.421  0.00  0.00    +0.000 HD
ENDROOT
BRANCH   1   5
ATOM      3  C   UNL     1      50.386   5.002  17.773  0.00  0.00    +0.000 A 
ATOM      4  C   UNL     1      50.572   5.835  16.654  0.00  0.00    +0.000 A 
ATOM      5  C   UNL     1      49.689   6.871  16.373  0.00  0.00    +0.000 A 
ATOM      6  N   UNL     1      48.632   7.111  17.166  0.00  0.00    +0.000 NA
ATOM      7  C   UNL     1      48.464   6.316  18.260  0.00  0.00    +0.000 A 
ATOM      8  C   UNL     1      49.286   5.248  18.605  0.00  0.00    +0.000 A 
BRANCH   8   9
ATOM      9  C   UNL     1      49.002   4.461  19.835  0.00  0.00    +0.000 C 
ATOM     10  N   UNL     1      48.280   3.301  19.692  0.00  0.00    +0.000 N 
ATOM     11  O   UNL     1      49.398   4.788  20.944  0.00  0.00    +0.000 OA
ATOM     12  H   UNL     1      48.089   2.861  18.805  0.00  0.00    +0.000 HD
ATOM     13  H   UNL     1      48.178   2.738  20.527  0.00  0.00    +0.000 HD
ENDBRANCH   8   9
BRANCH   3  15
ATOM     14  C   UNL     1      51.012   2.604  17.396  0.00  0.00    +0.000 C 
ATOM     15  C   UNL     1      51.418   3.928  18.026  0.00  0.00    +0.000 C 
ENDBRANCH   3  15
ENDBRANCH   1   5
BRANCH   1  16
ATOM     16  C   UNL     1      48.795   8.050  14.370  0.00  0.00    +0.000 C 
BRANCH  16  17
ATOM     17  C   UNL     1      48.859   7.198  13.080  0.00  0.00    +0.000 C 
ATOM     18  C   UNL     1      49.118   8.058  11.836  0.00  0.00    +0.000 C 
BRANCH  17  19
ATOM     19  C   UNL     1      47.590   6.354  12.977  0.00  0.00    +0.000 A 
ATOM     20  C   UNL     1      47.128   5.527  14.001  0.00  0.00    +0.000 A 
ATOM     21  C   UNL     1      46.016   4.730  13.760  0.00  0.00    +0.000 A 
ATOM     22  N   UNL     1      45.352   4.677  12.583  0.00  0.00    +0.000 NA
ATOM     23  C   UNL     1      45.782   5.487  11.599  0.00  0.00    +0.000 A 
ATOM     24  N   UNL     1      45.164   5.467  10.333  0.00  0.00    +0.000 N 
ATOM     25  C   UNL     1      46.881   6.333  11.767  0.00  0.00    +0.000 A 
ATOM     26  H   UNL     1      44.851   6.407  10.103  0.00  0.00    +0.000 HD
BRANCH  24  27
ATOM     27  C   UNL     1      44.270   4.431   9.889  0.00  0.00    +0.000 C 
ATOM     28  C   UNL     1      44.781   3.029  10.253  0.00  0.00    +0.000 C 
ATOM     29  O   UNL     1      44.671   2.585   8.880  0.00  0.00    +0.000 OA
ATOM     30  C   UNL     1      44.416   3.948   8.444  0.00  0.00    +0.000 C 
ENDBRANCH  24  27
ENDBRANCH  17  19
ENDBRANCH  16  17
ENDBRANCH   1  16
TORSDOF 7
ENDMDL
MODEL 9
REMARK VINA RESULT:    -6.132      3.622      4.837
REMARK INTER + INTRA:          -9.141
REMARK INTER:                  -7.921
REMARK INTRA:                  -1.220
REMARK UNBOUND:                -0.499
REMARK  Name = 
REMARK  9 active torsions:
REMARK  status: ('A' for Active; 'I' for Inactive)
REMARK    1  A    between atoms: C_1  and  C_2
REMARK    2  A    between atoms: C_2  and  C_3
REMARK    3  A    between atoms: C_5  and  N_6
REMARK    4  A    between atoms: N_6  and  C_7
REMARK    5  A    between atoms: C_7  and  C_8
REMARK    6  A    between atoms: C_8  and  C_9
REMARK    7  A    between atoms: C_8  and  C_10
REMARK    8  A    between atoms: N_15  and  C_16
REMARK    9  A    between atoms: C_23  and  C_24
REMARK                            x       y       z     vdW  Elec       q    Type
REMARK                         _______ _______ _______ _____ _____    ______ ____
ROOT
ATOM      1  N   UNL     1      50.504   7.870  14.022  0.00  0.00    +0.000 N 
ATOM      2  H   UNL     1      51.123   8.667  14.099  0.00  0.00    +0.000 HD
ENDROOT
BRANCH   1   5
ATOM      3  C   UNL     1      48.551   8.140  17.171  0.00  0.00    +0.000 A 
ATOM      4  C   UNL     1      49.209   8.508  15.982  0.00  0.00    +0.000 A 
ATOM      5  C   UNL     1      49.880   7.567  15.210  0.00  0.00    +0.000 A 
ATOM      6  N   UNL     1      49.918   6.275  15.574  0.00  0.00    +0.000 NA
ATOM      7  C   UNL     1      49.264   5.916  16.715  0.00  0.00    +0.000 A 
ATOM      8  C   UNL     1      48.585   6.793  17.555  0.00  0.00    +0.000 A 
BRANCH   8   9
ATOM      9  C   UNL     1      47.900   6.275  18.769  0.00  0.00    +0.000 C 
ATOM     10  N   UNL     1      46.721   5.593  18.588  0.00  0.00    +0.000 N 
ATOM     11  O   UNL     1      48.346   6.411  19.898  0.00  0.00    +0.000 OA
ATOM     12  H   UNL     1      46.389   5.268  17.693  0.00  0.00    +0.000 HD
ATOM     13  H   UNL     1      46.321   5.172  19.418  0.00  0.00    +0.000 HD
ENDBRANCH   8   9
BRANCH   3  15
ATOM     14  C   UNL     1      48.763  10.088  18.735  0.00  0.00    +0.000 C 
ATOM     15  C   UNL     1      47.811   9.220  17.924  0.00  0.00    +0.000 C 
ENDBRANCH   3  15
ENDBRANCH   1   5
BRANCH   1  16
ATOM     16  C   UNL     1      50.047   7.389  12.731  0.00  0.00    +0.000 C 
BRANCH  16  17
ATOM     17  C   UNL     1      49.232   8.439  11.942  0.00  0.00    +0.000 C 
ATOM     18  C   UNL     1      49.624   9.873  12.320  0.00  0.00    +0.000 C 
BRANCH  17  19
ATOM     19  C   UNL     1      47.742   8.153  12.124  0.00  0.00    +0.000 A 
ATOM     20  C   UNL     1      46.843   9.066  12.676  0.00  0.00    +0.000 A 
ATOM     21  C   UNL     1      45.530   8.662  12.883  0.00  0.00    +0.000 A 
ATOM     22  N   UNL     1      45.056   7.426  12.607  0.00  0.00    +0.000 NA
ATOM     23  C   UNL     1      45.914   6.548  12.057  0.00  0.00    +0.000 A 
ATOM     24  N   UNL     1      45.507   5.230  11.770  0.00  0.00    +0.000 N 
ATOM     25  C   UNL     1      47.246   6.882  11.799  0.00  0.00    +0.000 A 
ATOM     26  H   UNL     1      45.674   5.040  10.785  0.00  0.00    +0.000 HD
BRANCH  24  27
ATOM     27  C   UNL     1      44.305   4.629  12.285  0.00  0.00    +0.000 C 
ATOM     28  C   UNL     1      44.272   3.111  12.056  0.00  0.00    +0.000 C 
ATOM     29  O   UNL     1      42.981   3.193  11.407  0.00  0.00    +0.000 OA
ATOM     30  C   UNL     1      43.069   4.644  11.381  0.00  0.00    +0.000 C 
ENDBRANCH  24  27
ENDBRANCH  17  19
ENDBRANCH  16  17
ENDBRANCH   1  16
TORSDOF 7
ENDMDL
