MODEL 1
REMARK VINA RESULT:    -8.754      0.000      0.000
REMARK INTER + INTRA:         -13.751
REMARK INTER:                 -12.847
REMARK INTRA:                  -0.903
REMARK UNBOUND:                -0.903
REMARK  Name = 
REMARK  9 active torsions:
REMARK  status: ('A' for Active; 'I' for Inactive)
REMARK    1  A    between atoms: C_1  and  C_2
REMARK    2  A    between atoms: C_2  and  C_3
REMARK    3  A    between atoms: C_2  and  C_17
REMARK    4  A    between atoms: C_3  and  N_4
REMARK    5  A    between atoms: C_5  and  C_7
REMARK    6  A    between atoms: C_20  and  C_21
REMARK    7  A    between atoms: C_21  and  N_22
REMARK    8  A    between atoms: N_22  and  C_23
REMARK    9  A    between atoms: C_23  and  C_24
REMARK                            x       y       z     vdW  Elec       q    Type
REMARK                         _______ _______ _______ _____ _____    ______ ____
ROOT
ATOM      1  C   UNL     1      48.227   8.125  13.648  0.00  0.00    +0.000 C 
ATOM      2  C   UNL     1      48.113   6.591  13.789  0.00  0.00    +0.000 C 
ENDROOT
BRANCH   2   3
ATOM      3  C   UNL     1      47.044   5.985  12.871  0.00  0.00    +0.000 A 
ATOM      4  C   UNL     1      46.325   4.840  13.248  0.00  0.00    +0.000 A 
ATOM      5  C   UNL     1      45.311   4.319  12.442  0.00  0.00    +0.000 A 
ATOM      6  C   UNL     1      44.962   4.943  11.241  0.00  0.00    +0.000 A 
ATOM      7  C   UNL     1      45.664   6.083  10.852  0.00  0.00    +0.000 A 
ATOM      8  C   UNL     1      46.682   6.599  11.659  0.00  0.00    +0.000 A 
BRANCH   6   9
ATOM      9  C   UNL     1      43.827   4.402  10.410  0.00  0.00    +0.000 C 
BRANCH   9  10
ATOM     10  N   UNL     1      44.314   3.361   9.507  0.00  0.00    +0.000 NA
ATOM     11  H   UNL     1      43.526   2.782   9.217  0.00  0.00    +0.000 HD
BRANCH  10  12
ATOM     12  C   UNL     1      44.956   3.939   8.336  0.00  0.00    +0.000 C 
BRANCH  12  13
ATOM     13  C   UNL     1      45.939   2.974   7.725  0.00  0.00    +0.000 A 
ATOM     14  C   UNL     1      46.074   1.677   8.230  0.00  0.00    +0.000 A 
ATOM     15  C   UNL     1      46.971   0.815   7.619  0.00  0.00    +0.000 A 
ATOM     16  N   UNL     1      47.735   1.152   6.559  0.00  0.00    +0.000 NA
ATOM     17  C   UNL     1      47.599   2.411   6.091  0.00  0.00    +0.000 A 
ATOM     18  C   UNL     1      46.728   3.344   6.630  0.00  0.00    +0.000 A 
ENDBRANCH  12  13
ENDBRANCH  10  12
ENDBRANCH   9  10
ENDBRANCH   6   9
ENDBRANCH   2   3
BRANCH   2  19
ATOM     19  C   UNL     1      47.893   6.231  15.279  0.00  0.00    +0.000 C 
BRANCH  19  20
ATOM     20  N   UNL     1      49.070   5.700  15.929  0.00  0.00    +0.000 N 
ATOM     21  C   UNL     1      49.024   5.022  17.121  0.00  0.00    +0.000 C 
ATOM     22  O   UNL     1      47.973   4.794  17.710  0.00  0.00    +0.000 OA
ATOM     23  H   UNL     1      49.964   6.011  15.563  0.00  0.00    +0.000 HD
BRANCH  21  24
ATOM     24  C   UNL     1      50.312   4.522  17.613  0.00  0.00    +0.000 A 
ATOM     25  C   UNL     1      51.176   5.377  18.281  0.00  0.00    +0.000 A 
ATOM     26  S   UNL     1      52.580   4.603  18.865  0.00  0.00    +0.000 S 
ATOM     27  C   UNL     1      52.104   3.112  18.192  0.00  0.00    +0.000 A 
ATOM     28  N   UNL     1      52.877   1.999  18.329  0.00  0.00    +0.000 NA
ATOM     29  C   UNL     1      52.411   0.951  17.740  0.00  0.00    +0.000 A 
ATOM     30  N   UNL     1      51.248   0.909  17.021  0.00  0.00    +0.000 N 
ATOM     31  C   UNL     1      50.415   1.993  16.888  0.00  0.00    +0.000 A 
ATOM     32  O   UNL     1      49.346   1.900  16.296  0.00  0.00    +0.000 OA
ATOM     33  C   UNL     1      50.894   3.205  17.532  0.00  0.00    +0.000 A 
ATOM     34  H   UNL     1      50.934   0.051  16.588  0.00  0.00    +0.000 HD
ENDBRANCH  21  24
ENDBRANCH  19  20
ENDBRANCH   2  19
TORSDOF 8
ENDMDL
MODEL 2
REMARK VINA RESULT:    -8.372      2.670      3.750
REMARK INTER + INTRA:         -13.191
REMARK INTER:                 -11.745
REMARK INTRA:                  -1.446
REMARK UNBOUND:                -0.903
REMARK  Name = 
REMARK  9 active torsions:
REMARK  status: ('A' for Active; 'I' for Inactive)
REMARK    1  A    between atoms: C_1  and  C_2
REMARK    2  A    between atoms: C_2  and  C_3
REMARK    3  A    between atoms: C_2  and  C_17
REMARK    4  A    between atoms: C_3  and  N_4
REMARK    5  A    between atoms: C_5  and  C_7
REMARK    6  A    between atoms: C_20  and  C_21
REMARK    7  A    between atoms: C_21  and  N_22
REMARK    8  A    between atoms: N_22  and  C_23
REMARK    9  A    between atoms: C_23  and  C_24
REMARK                            x       y       z     vdW  Elec       q    Type
REMARK                         _______ _______ _______ _____ _____    ______ ____
ROOT
ATOM      1  C   UNL     1      48.964   7.635  11.704  0.00  0.00    +0.000 C 
ATOM      2  C   UNL     1      48.309   6.837  12.853  0.00  0.00    +0.000 C 
ENDROOT
BRANCH   2   3
ATOM      3  C   UNL     1      47.022   6.123  12.426  0.00  0.00    +0.000 A 
ATOM      4  C   UNL     1      46.248   6.595  11.354  0.00  0.00    +0.000 A 
ATOM      5  C   UNL     1      45.107   5.915  10.924  0.00  0.00    +0.000 A 
ATOM      6  C   UNL     1      44.715   4.720  11.536  0.00  0.00    +0.000 A 
ATOM      7  C   UNL     1      45.473   4.235  12.601  0.00  0.00    +0.000 A 
ATOM      8  C   UNL     1      46.612   4.921  13.031  0.00  0.00    +0.000 A 
BRANCH   6   9
ATOM      9  C   UNL     1      43.515   3.967  11.024  0.00  0.00    +0.000 C 
BRANCH   9  10
ATOM     10  N   UNL     1      43.740   3.533   9.646  0.00  0.00    +0.000 NA
ATOM     11  H   UNL     1      44.236   4.270   9.146  0.00  0.00    +0.000 HD
BRANCH  10  12
ATOM     12  C   UNL     1      44.516   2.303   9.604  0.00  0.00    +0.000 C 
BRANCH  12  13
ATOM     13  C   UNL     1      45.579   2.369   8.536  0.00  0.00    +0.000 A 
ATOM     14  C   UNL     1      45.901   3.584   7.924  0.00  0.00    +0.000 A 
ATOM     15  C   UNL     1      46.903   3.602   6.967  0.00  0.00    +0.000 A 
ATOM     16  N   UNL     1      47.594   2.509   6.580  0.00  0.00    +0.000 NA
ATOM     17  C   UNL     1      47.262   1.343   7.175  0.00  0.00    +0.000 A 
ATOM     18  C   UNL     1      46.279   1.223   8.144  0.00  0.00    +0.000 A 
ENDBRANCH  12  13
ENDBRANCH  10  12
ENDBRANCH   9  10
ENDBRANCH   6   9
ENDBRANCH   2   3
BRANCH   2  19
ATOM     19  C   UNL     1      48.096   7.775  14.068  0.00  0.00    +0.000 C 
BRANCH  19  20
ATOM     20  N   UNL     1      48.000   7.080  15.331  0.00  0.00    +0.000 N 
ATOM     21  C   UNL     1      49.085   6.527  15.964  0.00  0.00    +0.000 C 
ATOM     22  O   UNL     1      50.223   6.606  15.514  0.00  0.00    +0.000 OA
ATOM     23  H   UNL     1      47.064   6.850  15.647  0.00  0.00    +0.000 HD
BRANCH  21  24
ATOM     24  C   UNL     1      48.805   5.892  17.256  0.00  0.00    +0.000 A 
ATOM     25  C   UNL     1      49.033   4.534  17.425  0.00  0.00    +0.000 A 
ATOM     26  S   UNL     1      48.745   3.990  19.016  0.00  0.00    +0.000 S 
ATOM     27  C   UNL     1      48.249   5.541  19.516  0.00  0.00    +0.000 A 
ATOM     28  N   UNL     1      47.859   5.776  20.799  0.00  0.00    +0.000 NA
ATOM     29  C   UNL     1      47.477   6.986  21.027  0.00  0.00    +0.000 A 
ATOM     30  N   UNL     1      47.441   7.986  20.093  0.00  0.00    +0.000 N 
ATOM     31  C   UNL     1      47.862   7.809  18.797  0.00  0.00    +0.000 A 
ATOM     32  O   UNL     1      47.883   8.744  18.006  0.00  0.00    +0.000 OA
ATOM     33  C   UNL     1      48.302   6.459  18.484  0.00  0.00    +0.000 A 
ATOM     34  H   UNL     1      47.137   8.917  20.338  0.00  0.00    +0.000 HD
ENDBRANCH  21  24
ENDBRANCH  19  20
ENDBRANCH   2  19
TORSDOF 8
ENDMDL
MODEL 3
REMARK VINA RESULT:    -8.336      2.369      2.756
REMARK INTER + INTRA:         -13.139
REMARK INTER:                 -11.817
REMARK INTRA:                  -1.322
REMARK UNBOUND:                -0.903
REMARK  Name = 
REMARK  9 active torsions:
REMARK  status: ('A' for Active; 'I' for Inactive)
REMARK    1  A    between atoms: C_1  and  C_2
REMARK    2  A    between atoms: C_2  and  C_3
REMARK    3  A    between atoms: C_2  and  C_17
REMARK    4  A    between atoms: C_3  and  N_4
REMARK    5  A    between atoms: C_5  and  C_7
REMARK    6  A    between atoms: C_20  and  C_21
REMARK    7  A    between atoms: C_21  and  N_22
REMARK    8  A    between atoms: N_22  and  C_23
REMARK    9  A    between atoms: C_23  and  C_24
REMARK                            x       y       z     vdW  Elec       q    Type
REMARK                         _______ _______ _______ _____ _____    ______ ____
ROOT
ATOM      1  C   UNL     1      48.022   9.710  11.790  0.00  0.00    +0.000 C 
ATOM      2  C   UNL     1      47.850   8.472  12.697  0.00  0.00    +0.000 C 
ENDROOT
BRANCH   2   3
ATOM      3  C   UNL     1      46.765   7.511  12.197  0.00  0.00    +0.000 A 
ATOM      4  C   UNL     1      45.479   7.508  12.761  0.00  0.00    +0.000 A 
ATOM      5  C   UNL     1      44.471   6.676  12.270  0.00  0.00    +0.000 A 
ATOM      6  C   UNL     1      44.706   5.837  11.177  0.00  0.00    +0.000 A 
ATOM      7  C   UNL     1      45.977   5.828  10.603  0.00  0.00    +0.000 A 
ATOM      8  C   UNL     1      46.985   6.659  11.100  0.00  0.00    +0.000 A 
BRANCH   6   9
ATOM      9  C   UNL     1      43.592   4.987  10.622  0.00  0.00    +0.000 C 
BRANCH   9  10
ATOM     10  N   UNL     1      43.973   4.443   9.320  0.00  0.00    +0.000 NA
ATOM     11  H   UNL     1      44.763   4.975   8.959  0.00  0.00    +0.000 HD
BRANCH  10  12
ATOM     12  C   UNL     1      44.335   3.037   9.425  0.00  0.00    +0.000 C 
BRANCH  12  13
ATOM     13  C   UNL     1      45.448   2.691   8.468  0.00  0.00    +0.000 A 
ATOM     14  C   UNL     1      45.936   1.384   8.384  0.00  0.00    +0.000 A 
ATOM     15  C   UNL     1      46.942   1.107   7.471  0.00  0.00    +0.000 A 
ATOM     16  N   UNL     1      47.489   2.028   6.651  0.00  0.00    +0.000 NA
ATOM     17  C   UNL     1      47.011   3.287   6.753  0.00  0.00    +0.000 A 
ATOM     18  C   UNL     1      46.007   3.662   7.631  0.00  0.00    +0.000 A 
ENDBRANCH  12  13
ENDBRANCH  10  12
ENDBRANCH   9  10
ENDBRANCH   6   9
ENDBRANCH   2   3
BRANCH   2  19
ATOM     19  C   UNL     1      47.610   8.937  14.154  0.00  0.00    +0.000 C 
BRANCH  19  20
ATOM     20  N   UNL     1      47.883   7.919  15.143  0.00  0.00    +0.000 N 
ATOM     21  C   UNL     1      49.149   7.474  15.429  0.00  0.00    +0.000 C 
ATOM     22  O   UNL     1      50.148   7.930  14.882  0.00  0.00    +0.000 OA
ATOM     23  H   UNL     1      47.081   7.405  15.492  0.00  0.00    +0.000 HD
BRANCH  21  24
ATOM     24  C   UNL     1      49.239   6.463  16.488  0.00  0.00    +0.000 A 
ATOM     25  C   UNL     1      50.131   6.637  17.536  0.00  0.00    +0.000 A 
ATOM     26  S   UNL     1      50.029   5.415  18.722  0.00  0.00    +0.000 S 
ATOM     27  C   UNL     1      48.831   4.583  17.842  0.00  0.00    +0.000 A 
ATOM     28  N   UNL     1      48.292   3.423  18.309  0.00  0.00    +0.000 NA
ATOM     29  C   UNL     1      47.423   2.885  17.523  0.00  0.00    +0.000 A 
ATOM     30  N   UNL     1      47.043   3.393  16.310  0.00  0.00    +0.000 N 
ATOM     31  C   UNL     1      47.527   4.579  15.815  0.00  0.00    +0.000 A 
ATOM     32  O   UNL     1      47.112   5.040  14.758  0.00  0.00    +0.000 OA
ATOM     33  C   UNL     1      48.515   5.228  16.662  0.00  0.00    +0.000 A 
ATOM     34  H   UNL     1      46.349   2.925  15.744  0.00  0.00    +0.000 HD
ENDBRANCH  21  24
ENDBRANCH  19  20
ENDBRANCH   2  19
TORSDOF 8
ENDMDL
MODEL 4
REMARK VINA RESULT:    -8.269      2.503      3.242
REMARK INTER + INTRA:         -13.039
REMARK INTER:                 -11.709
REMARK INTRA:                  -1.330
REMARK UNBOUND:                -0.903
REMARK  Name = 
REMARK  9 active torsions:
REMARK  status: ('A' for Active; 'I' for Inactive)
REMARK    1  A    between atoms: C_1  and  C_2
REMARK    2  A    between atoms: C_2  and  C_3
REMARK    3  A    between atoms: C_2  and  C_17
REMARK    4  A    between atoms: C_3  and  N_4
REMARK    5  A    between atoms: C_5  and  C_7
REMARK    6  A    between atoms: C_20  and  C_21
REMARK    7  A    between atoms: C_21  and  N_22
REMARK    8  A    between atoms: N_22  and  C_23
REMARK    9  A    between atoms: C_23  and  C_24
REMARK                            x       y       z     vdW  Elec       q    Type
REMARK                         _______ _______ _______ _____ _____    ______ ____
ROOT
ATOM      1  C   UNL     1      49.084   7.911  11.760  0.00  0.00    +0.000 C 
ATOM      2  C   UNL     1      48.365   7.274  12.969  0.00  0.00    +0.000 C 
ENDROOT
BRANCH   2   3
ATOM      3  C   UNL     1      47.213   6.350  12.559  0.00  0.00    +0.000 A 
ATOM      4  C   UNL     1      46.461   6.593  11.398  0.00  0.00    +0.000 A 
ATOM      5  C   UNL     1      45.450   5.722  10.989  0.00  0.00    +0.000 A 
ATOM      6  C   UNL     1      45.173   4.559  11.714  0.00  0.00    +0.000 A 
ATOM      7  C   UNL     1      45.910   4.300  12.869  0.00  0.00    +0.000 A 
ATOM      8  C   UNL     1      46.919   5.177  13.277  0.00  0.00    +0.000 A 
BRANCH   6   9
ATOM      9  C   UNL     1      44.117   3.600  11.230  0.00  0.00    +0.000 C 
BRANCH   9  10
ATOM     10  N   UNL     1      44.723   2.556  10.405  0.00  0.00    +0.000 NA
ATOM     11  H   UNL     1      44.288   1.663  10.632  0.00  0.00    +0.000 HD
BRANCH  10  12
ATOM     12  C   UNL     1      44.549   2.840   8.988  0.00  0.00    +0.000 C 
BRANCH  12  13
ATOM     13  C   UNL     1      45.756   2.405   8.196  0.00  0.00    +0.000 A 
ATOM     14  C   UNL     1      46.133   1.059   8.150  0.00  0.00    +0.000 A 
ATOM     15  C   UNL     1      47.233   0.701   7.388  0.00  0.00    +0.000 A 
ATOM     16  N   UNL     1      47.976   1.578   6.681  0.00  0.00    +0.000 NA
ATOM     17  C   UNL     1      47.604   2.874   6.744  0.00  0.00    +0.000 A 
ATOM     18  C   UNL     1      46.518   3.330   7.475  0.00  0.00    +0.000 A 
ENDBRANCH  12  13
ENDBRANCH  10  12
ENDBRANCH   9  10
ENDBRANCH   6   9
ENDBRANCH   2   3
BRANCH   2  19
ATOM     19  C   UNL     1      47.915   8.393  13.941  0.00  0.00    +0.000 C 
BRANCH  19  20
ATOM     20  N   UNL     1      47.907   7.989  15.329  0.00  0.00    +0.000 N 
ATOM     21  C   UNL     1      48.647   8.621  16.296  0.00  0.00    +0.000 C 
ATOM     22  O   UNL     1      49.352   9.595  16.056  0.00  0.00    +0.000 OA
ATOM     23  H   UNL     1      47.473   7.095  15.534  0.00  0.00    +0.000 HD
BRANCH  21  24
ATOM     24  C   UNL     1      48.484   8.098  17.657  0.00  0.00    +0.000 A 
ATOM     25  C   UNL     1      48.143   8.956  18.692  0.00  0.00    +0.000 A 
ATOM     26  S   UNL     1      47.902   8.160  20.181  0.00  0.00    +0.000 S 
ATOM     27  C   UNL     1      48.304   6.650  19.503  0.00  0.00    +0.000 A 
ATOM     28  N   UNL     1      48.295   5.515  20.255  0.00  0.00    +0.000 NA
ATOM     29  C   UNL     1      48.653   4.452  19.620  0.00  0.00    +0.000 A 
ATOM     30  N   UNL     1      49.026   4.414  18.304  0.00  0.00    +0.000 N 
ATOM     31  C   UNL     1      49.012   5.523  17.493  0.00  0.00    +0.000 A 
ATOM     32  O   UNL     1      49.284   5.440  16.302  0.00  0.00    +0.000 OA
ATOM     33  C   UNL     1      48.617   6.753  18.161  0.00  0.00    +0.000 A 
ATOM     34  H   UNL     1      49.290   3.544  17.862  0.00  0.00    +0.000 HD
ENDBRANCH  21  24
ENDBRANCH  19  20
ENDBRANCH   2  19
TORSDOF 8
ENDMDL
MODEL 5
REMARK VINA RESULT:    -7.655      3.645      8.638
REMARK INTER + INTRA:         -12.138
REMARK INTER:                 -10.438
REMARK INTRA:                  -1.701
REMARK UNBOUND:                -0.903
REMARK  Name = 
REMARK  9 active torsions:
REMARK  status: ('A' for Active; 'I' for Inactive)
REMARK    1  A    between atoms: C_1  and  C_2
REMARK    2  A    between atoms: C_2  and  C_3
REMARK    3  A    between atoms: C_2  and  C_17
REMARK    4  A    between atoms: C_3  and  N_4
REMARK    5  A    between atoms: C_5  and  C_7
REMARK    6  A    between atoms: C_20  and  C_21
REMARK    7  A    between atoms: C_21  and  N_22
REMARK    8  A    between atoms: N_22  and  C_23
REMARK    9  A    between atoms: C_23  and  C_24
REMARK                            x       y       z     vdW  Elec       q    Type
REMARK                         _______ _______ _______ _____ _____    ______ ____
ROOT
ATOM      1  C   UNL     1      49.731   7.742  11.566  0.00  0.00    +0.000 C 
ATOM      2  C   UNL     1      48.761   8.622  12.385  0.00  0.00    +0.000 C 
ENDROOT
BRANCH   2   3
ATOM      3  C   UNL     1      48.679   8.209  13.859  0.00  0.00    +0.000 A 
ATOM      4  C   UNL     1      49.031   6.915  14.273  0.00  0.00    +0.000 A 
ATOM      5  C   UNL     1      49.013   6.552  15.622  0.00  0.00    +0.000 A 
ATOM      6  C   UNL     1      48.669   7.482  16.607  0.00  0.00    +0.000 A 
ATOM      7  C   UNL     1      48.318   8.773  16.214  0.00  0.00    +0.000 A 
ATOM      8  C   UNL     1      48.332   9.131  14.863  0.00  0.00    +0.000 A 
BRANCH   6   9
ATOM      9  C   UNL     1      48.710   7.092  18.062  0.00  0.00    +0.000 C 
BRANCH   9  10
ATOM     10  N   UNL     1      47.633   6.150  18.363  0.00  0.00    +0.000 NA
ATOM     11  H   UNL     1      47.193   5.863  17.490  0.00  0.00    +0.000 HD
BRANCH  10  12
ATOM     12  C   UNL     1      48.141   4.980  19.065  0.00  0.00    +0.000 C 
BRANCH  12  13
ATOM     13  C   UNL     1      48.596   3.921  18.094  0.00  0.00    +0.000 A 
ATOM     14  C   UNL     1      47.708   3.378  17.161  0.00  0.00    +0.000 A 
ATOM     15  C   UNL     1      48.178   2.427  16.270  0.00  0.00    +0.000 A 
ATOM     16  N   UNL     1      49.451   1.981  16.247  0.00  0.00    +0.000 NA
ATOM     17  C   UNL     1      50.293   2.509  17.161  0.00  0.00    +0.000 A 
ATOM     18  C   UNL     1      49.919   3.467  18.090  0.00  0.00    +0.000 A 
ENDBRANCH  12  13
ENDBRANCH  10  12
ENDBRANCH   9  10
ENDBRANCH   6   9
ENDBRANCH   2   3
BRANCH   2  19
ATOM     19  C   UNL     1      47.376   8.635  11.691  0.00  0.00    +0.000 C 
BRANCH  19  20
ATOM     20  N   UNL     1      46.668   7.379  11.781  0.00  0.00    +0.000 N 
ATOM     21  C   UNL     1      45.306   7.276  11.646  0.00  0.00    +0.000 C 
ATOM     22  O   UNL     1      44.591   8.245  11.413  0.00  0.00    +0.000 OA
ATOM     23  H   UNL     1      47.198   6.589  12.135  0.00  0.00    +0.000 HD
BRANCH  21  24
ATOM     24  C   UNL     1      44.765   5.916  11.729  0.00  0.00    +0.000 A 
ATOM     25  C   UNL     1      44.083   5.510  12.867  0.00  0.00    +0.000 A 
ATOM     26  S   UNL     1      43.441   3.934  12.749  0.00  0.00    +0.000 S 
ATOM     27  C   UNL     1      44.104   3.721  11.194  0.00  0.00    +0.000 A 
ATOM     28  N   UNL     1      43.924   2.561  10.505  0.00  0.00    +0.000 NA
ATOM     29  C   UNL     1      44.511   2.527   9.357  0.00  0.00    +0.000 A 
ATOM     30  N   UNL     1      45.267   3.540   8.833  0.00  0.00    +0.000 N 
ATOM     31  C   UNL     1      45.445   4.743   9.471  0.00  0.00    +0.000 A 
ATOM     32  O   UNL     1      46.070   5.654   8.942  0.00  0.00    +0.000 OA
ATOM     33  C   UNL     1      44.805   4.835  10.774  0.00  0.00    +0.000 A 
ATOM     34  H   UNL     1      45.696   3.453   7.922  0.00  0.00    +0.000 HD
ENDBRANCH  21  24
ENDBRANCH  19  20
ENDBRANCH   2  19
TORSDOF 8
ENDMDL
MODEL 6
REMARK VINA RESULT:    -7.365      1.830      2.428
REMARK INTER + INTRA:         -11.713
REMARK INTER:                 -10.830
REMARK INTRA:                  -0.882
REMARK UNBOUND:                -0.903
REMARK  Name = 
REMARK  9 active torsions:
REMARK  status: ('A' for Active; 'I' for Inactive)
REMARK    1  A    between atoms: C_1  and  C_2
REMARK    2  A    between atoms: C_2  and  C_3
REMARK    3  A    between atoms: C_2  and  C_17
REMARK    4  A    between atoms: C_3  and  N_4
REMARK    5  A    between atoms: C_5  and  C_7
REMARK    6  A    between atoms: C_20  and  C_21
REMARK    7  A    between atoms: C_21  and  N_22
REMARK    8  A    between atoms: N_22  and  C_23
REMARK    9  A    between atoms: C_23  and  C_24
REMARK                            x       y       z     vdW  Elec       q    Type
REMARK                         _______ _______ _______ _____ _____    ______ ____
ROOT
ATOM      1  C   UNL     1      47.671   8.986  11.953  0.00  0.00    +0.000 C 
ATOM      2  C   UNL     1      47.743   7.641  12.711  0.00  0.00    +0.000 C 
ENDROOT
BRANCH   2   3
ATOM      3  C   UNL     1      46.596   6.691  12.350  0.00  0.00    +0.000 A 
ATOM      4  C   UNL     1      45.570   7.085  11.476  0.00  0.00    +0.000 A 
ATOM      5  C   UNL     1      44.556   6.203  11.099  0.00  0.00    +0.000 A 
ATOM      6  C   UNL     1      44.547   4.885  11.563  0.00  0.00    +0.000 A 
ATOM      7  C   UNL     1      45.559   4.475  12.430  0.00  0.00    +0.000 A 
ATOM      8  C   UNL     1      46.571   5.362  12.809  0.00  0.00    +0.000 A 
BRANCH   6   9
ATOM      9  C   UNL     1      43.478   3.928  11.102  0.00  0.00    +0.000 C 
BRANCH   9  10
ATOM     10  N   UNL     1      43.771   3.455   9.751  0.00  0.00    +0.000 NA
ATOM     11  H   UNL     1      44.117   4.237   9.195  0.00  0.00    +0.000 HD
BRANCH  10  12
ATOM     12  C   UNL     1      44.764   2.391   9.771  0.00  0.00    +0.000 C 
BRANCH  12  13
ATOM     13  C   UNL     1      45.652   2.455   8.554  0.00  0.00    +0.000 A 
ATOM     14  C   UNL     1      46.302   1.310   8.084  0.00  0.00    +0.000 A 
ATOM     15  C   UNL     1      47.086   1.410   6.945  0.00  0.00    +0.000 A 
ATOM     16  N   UNL     1      47.269   2.556   6.256  0.00  0.00    +0.000 NA
ATOM     17  C   UNL     1      46.641   3.653   6.730  0.00  0.00    +0.000 A 
ATOM     18  C   UNL     1      45.834   3.653   7.856  0.00  0.00    +0.000 A 
ENDBRANCH  12  13
ENDBRANCH  10  12
ENDBRANCH   9  10
ENDBRANCH   6   9
ENDBRANCH   2   3
BRANCH   2  19
ATOM     19  C   UNL     1      47.833   7.918  14.232  0.00  0.00    +0.000 C 
BRANCH  19  20
ATOM     20  N   UNL     1      48.332   6.799  14.999  0.00  0.00    +0.000 N 
ATOM     21  C   UNL     1      48.775   6.917  16.292  0.00  0.00    +0.000 C 
ATOM     22  O   UNL     1      48.755   7.980  16.902  0.00  0.00    +0.000 OA
ATOM     23  H   UNL     1      48.520   5.947  14.480  0.00  0.00    +0.000 HD
BRANCH  21  24
ATOM     24  C   UNL     1      49.211   5.668  16.926  0.00  0.00    +0.000 A 
ATOM     25  C   UNL     1      48.269   4.745  17.356  0.00  0.00    +0.000 A 
ATOM     26  S   UNL     1      48.957   3.314  17.978  0.00  0.00    +0.000 S 
ATOM     27  C   UNL     1      50.537   3.906  17.746  0.00  0.00    +0.000 A 
ATOM     28  N   UNL     1      51.626   3.158  18.079  0.00  0.00    +0.000 NA
ATOM     29  C   UNL     1      52.756   3.746  17.881  0.00  0.00    +0.000 A 
ATOM     30  N   UNL     1      52.905   5.014  17.387  0.00  0.00    +0.000 N 
ATOM     31  C   UNL     1      51.840   5.791  16.999  0.00  0.00    +0.000 A 
ATOM     32  O   UNL     1      52.013   6.894  16.495  0.00  0.00    +0.000 OA
ATOM     33  C   UNL     1      50.538   5.176  17.203  0.00  0.00    +0.000 A 
ATOM     34  H   UNL     1      53.822   5.415  17.249  0.00  0.00    +0.000 HD
ENDBRANCH  21  24
ENDBRANCH  19  20
ENDBRANCH   2  19
TORSDOF 8
ENDMDL
MODEL 7
REMARK VINA RESULT:    -7.280      2.024      2.765
REMARK INTER + INTRA:         -11.588
REMARK INTER:                 -10.421
REMARK INTRA:                  -1.167
REMARK UNBOUND:                -0.903
REMARK  Name = 
REMARK  9 active torsions:
REMARK  status: ('A' for Active; 'I' for Inactive)
REMARK    1  A    between atoms: C_1  and  C_2
REMARK    2  A    between atoms: C_2  and  C_3
REMARK    3  A    between atoms: C_2  and  C_17
REMARK    4  A    between atoms: C_3  and  N_4
REMARK    5  A    between atoms: C_5  and  C_7
REMARK    6  A    between atoms: C_20  and  C_21
REMARK    7  A    between atoms: C_21  and  N_22
REMARK    8  A    between atoms: N_22  and  C_23
REMARK    9  A    between atoms: C_23  and  C_24
REMARK                            x       y       z     vdW  Elec       q    Type
REMARK                         _______ _______ _______ _____ _____    ______ ____
ROOT
ATOM      1  C   UNL     1      47.543   3.702  15.379  0.00  0.00    +0.000 C 
ATOM      2  C   UNL     1      47.012   5.047  14.836  0.00  0.00    +0.000 C 
ENDROOT
BRANCH   2   3
ATOM      3  C   UNL     1      46.206   4.892  13.541  0.00  0.00    +0.000 A 
ATOM      4  C   UNL     1      45.500   3.712  13.260  0.00  0.00    +0.000 A 
ATOM      5  C   UNL     1      44.718   3.588  12.109  0.00  0.00    +0.000 A 
ATOM      6  C   UNL     1      44.593   4.653  11.213  0.00  0.00    +0.000 A 
ATOM      7  C   UNL     1      45.287   5.834  11.477  0.00  0.00    +0.000 A 
ATOM      8  C   UNL     1      46.072   5.952  12.627  0.00  0.00    +0.000 A 
BRANCH   6   9
ATOM      9  C   UNL     1      43.701   4.525  10.006  0.00  0.00    +0.000 C 
BRANCH   9  10
ATOM     10  N   UNL     1      44.190   3.466   9.125  0.00  0.00    +0.000 NA
ATOM     11  H   UNL     1      43.391   2.969   8.731  0.00  0.00    +0.000 HD
BRANCH  10  12
ATOM     12  C   UNL     1      45.007   4.012   8.051  0.00  0.00    +0.000 C 
BRANCH  12  13
ATOM     13  C   UNL     1      46.001   2.992   7.554  0.00  0.00    +0.000 A 
ATOM     14  C   UNL     1      46.908   3.315   6.541  0.00  0.00    +0.000 A 
ATOM     15  C   UNL     1      47.821   2.355   6.135  0.00  0.00    +0.000 A 
ATOM     16  N   UNL     1      47.890   1.113   6.658  0.00  0.00    +0.000 NA
ATOM     17  C   UNL     1      47.000   0.816   7.629  0.00  0.00    +0.000 A 
ATOM     18  C   UNL     1      46.052   1.707   8.105  0.00  0.00    +0.000 A 
ENDBRANCH  12  13
ENDBRANCH  10  12
ENDBRANCH   9  10
ENDBRANCH   6   9
ENDBRANCH   2   3
BRANCH   2  19
ATOM     19  C   UNL     1      48.192   6.039  14.690  0.00  0.00    +0.000 C 
BRANCH  19  20
ATOM     20  N   UNL     1      48.880   6.312  15.931  0.00  0.00    +0.000 N 
ATOM     21  C   UNL     1      50.107   6.924  15.987  0.00  0.00    +0.000 C 
ATOM     22  O   UNL     1      50.699   7.309  14.984  0.00  0.00    +0.000 OA
ATOM     23  H   UNL     1      48.506   5.864  16.760  0.00  0.00    +0.000 HD
BRANCH  21  24
ATOM     24  C   UNL     1      50.637   7.154  17.335  0.00  0.00    +0.000 A 
ATOM     25  C   UNL     1      51.066   8.420  17.704  0.00  0.00    +0.000 A 
ATOM     26  S   UNL     1      51.557   8.522  19.334  0.00  0.00    +0.000 S 
ATOM     27  C   UNL     1      51.268   6.862  19.583  0.00  0.00    +0.000 A 
ATOM     28  N   UNL     1      51.490   6.283  20.795  0.00  0.00    +0.000 NA
ATOM     29  C   UNL     1      51.261   5.014  20.829  0.00  0.00    +0.000 A 
ATOM     30  N   UNL     1      50.837   4.266  19.765  0.00  0.00    +0.000 N 
ATOM     31  C   UNL     1      50.561   4.810  18.534  0.00  0.00    +0.000 A 
ATOM     32  O   UNL     1      50.116   4.123  17.624  0.00  0.00    +0.000 OA
ATOM     33  C   UNL     1      50.804   6.241  18.439  0.00  0.00    +0.000 A 
ATOM     34  H   UNL     1      50.669   3.274  19.859  0.00  0.00    +0.000 HD
ENDBRANCH  21  24
ENDBRANCH  19  20
ENDBRANCH   2  19
TORSDOF 8
ENDMDL
MODEL 8
REMARK VINA RESULT:    -7.237      3.894      8.533
REMARK INTER + INTRA:         -11.525
REMARK INTER:                  -9.819
REMARK INTRA:                  -1.705
REMARK UNBOUND:                -0.903
REMARK  Name = 
REMARK  9 active torsions:
REMARK  status: ('A' for Active; 'I' for Inactive)
REMARK    1  A    between atoms: C_1  and  C_2
REMARK    2  A    between atoms: C_2  and  C_3
REMARK    3  A    between atoms: C_2  and  C_17
REMARK    4  A    between atoms: C_3  and  N_4
REMARK    5  A    between atoms: C_5  and  C_7
REMARK    6  A    between atoms: C_20  and  C_21
REMARK    7  A    between atoms: C_21  and  N_22
REMARK    8  A    between atoms: N_22  and  C_23
REMARK    9  A    between atoms: C_23  and  C_24
REMARK                            x       y       z     vdW  Elec       q    Type
REMARK                         _______ _______ _______ _____ _____    ______ ____
ROOT
ATOM      1  C   UNL     1      50.756   9.472  13.720  0.00  0.00    +0.000 C 
ATOM      2  C   UNL     1      49.597   8.510  14.066  0.00  0.00    +0.000 C 
ENDROOT
BRANCH   2   3
ATOM      3  C   UNL     1      49.660   7.994  15.508  0.00  0.00    +0.000 A 
ATOM      4  C   UNL     1      50.764   7.260  15.971  0.00  0.00    +0.000 A 
ATOM      5  C   UNL     1      50.851   6.838  17.300  0.00  0.00    +0.000 A 
ATOM      6  C   UNL     1      49.849   7.160  18.219  0.00  0.00    +0.000 A 
ATOM      7  C   UNL     1      48.747   7.891  17.777  0.00  0.00    +0.000 A 
ATOM      8  C   UNL     1      48.660   8.307  16.446  0.00  0.00    +0.000 A 
BRANCH   6   9
ATOM      9  C   UNL     1      49.986   6.748  19.662  0.00  0.00    +0.000 C 
BRANCH   9  10
ATOM     10  N   UNL     1      50.283   5.319  19.753  0.00  0.00    +0.000 NA
ATOM     11  H   UNL     1      50.765   5.139  20.633  0.00  0.00    +0.000 HD
BRANCH  10  12
ATOM     12  C   UNL     1      49.066   4.524  19.688  0.00  0.00    +0.000 C 
BRANCH  12  13
ATOM     13  C   UNL     1      49.013   3.717  18.415  0.00  0.00    +0.000 A 
ATOM     14  C   UNL     1      47.878   3.744  17.600  0.00  0.00    +0.000 A 
ATOM     15  C   UNL     1      47.884   3.007  16.426  0.00  0.00    +0.000 A 
ATOM     16  N   UNL     1      48.926   2.254  16.015  0.00  0.00    +0.000 NA
ATOM     17  C   UNL     1      50.010   2.233  16.820  0.00  0.00    +0.000 A 
ATOM     18  C   UNL     1      50.101   2.937  18.010  0.00  0.00    +0.000 A 
ENDBRANCH  12  13
ENDBRANCH  10  12
ENDBRANCH   9  10
ENDBRANCH   6   9
ENDBRANCH   2   3
BRANCH   2  19
ATOM     19  C   UNL     1      49.557   7.366  13.023  0.00  0.00    +0.000 C 
BRANCH  19  20
ATOM     20  N   UNL     1      48.228   7.060  12.545  0.00  0.00    +0.000 N 
ATOM     21  C   UNL     1      47.419   6.121  13.133  0.00  0.00    +0.000 C 
ATOM     22  O   UNL     1      47.757   5.489  14.128  0.00  0.00    +0.000 OA
ATOM     23  H   UNL     1      47.981   7.437  11.636  0.00  0.00    +0.000 HD
BRANCH  21  24
ATOM     24  C   UNL     1      46.088   5.971  12.535  0.00  0.00    +0.000 A 
ATOM     25  C   UNL     1      45.415   7.086  12.058  0.00  0.00    +0.000 A 
ATOM     26  S   UNL     1      43.928   6.712  11.310  0.00  0.00    +0.000 S 
ATOM     27  C   UNL     1      44.110   5.053  11.652  0.00  0.00    +0.000 A 
ATOM     28  N   UNL     1      43.165   4.148  11.273  0.00  0.00    +0.000 NA
ATOM     29  C   UNL     1      43.418   2.934  11.628  0.00  0.00    +0.000 A 
ATOM     30  N   UNL     1      44.522   2.537  12.332  0.00  0.00    +0.000 N 
ATOM     31  C   UNL     1      45.522   3.405  12.701  0.00  0.00    +0.000 A 
ATOM     32  O   UNL     1      46.530   3.003  13.268  0.00  0.00    +0.000 OA
ATOM     33  C   UNL     1      45.286   4.790  12.327  0.00  0.00    +0.000 A 
ATOM     34  H   UNL     1      44.665   1.567  12.574  0.00  0.00    +0.000 HD
ENDBRANCH  21  24
ENDBRANCH  19  20
ENDBRANCH   2  19
TORSDOF 8
ENDMDL
MODEL 9
REMARK VINA RESULT:    -7.066      1.516      2.278
REMARK INTER + INTRA:         -11.274
REMARK INTER:                 -10.096
REMARK INTRA:                  -1.179
REMARK UNBOUND:                -0.903
REMARK  Name = 
REMARK  9 active torsions:
REMARK  status: ('A' for Active; 'I' for Inactive)
REMARK    1  A    between atoms: C_1  and  C_2
REMARK    2  A    between atoms: C_2  and  C_3
REMARK    3  A    between atoms: C_2  and  C_17
REMARK    4  A    between atoms: C_3  and  N_4
REMARK    5  A    between atoms: C_5  and  C_7
REMARK    6  A    between atoms: C_20  and  C_21
REMARK    7  A    between atoms: C_21  and  N_22
REMARK    8  A    between atoms: N_22  and  C_23
REMARK    9  A    between atoms: C_23  and  C_24
REMARK                            x       y       z     vdW  Elec       q    Type
REMARK                         _______ _______ _______ _____ _____    ______ ____
ROOT
ATOM      1  C   UNL     1      48.025   3.152  15.713  0.00  0.00    +0.000 C 
ATOM      2  C   UNL     1      47.173   4.437  15.610  0.00  0.00    +0.000 C 
ENDROOT
BRANCH   2   3
ATOM      3  C   UNL     1      46.588   4.655  14.210  0.00  0.00    +0.000 A 
ATOM      4  C   UNL     1      46.829   5.841  13.497  0.00  0.00    +0.000 A 
ATOM      5  C   UNL     1      46.347   6.020  12.198  0.00  0.00    +0.000 A 
ATOM      6  C   UNL     1      45.630   5.006  11.557  0.00  0.00    +0.000 A 
ATOM      7  C   UNL     1      45.383   3.821  12.249  0.00  0.00    +0.000 A 
ATOM      8  C   UNL     1      45.862   3.647  13.550  0.00  0.00    +0.000 A 
BRANCH   6   9
ATOM      9  C   UNL     1      45.166   5.192  10.136  0.00  0.00    +0.000 C 
BRANCH   9  10
ATOM     10  N   UNL     1      44.731   3.914   9.575  0.00  0.00    +0.000 NA
ATOM     11  H   UNL     1      43.765   3.743   9.854  0.00  0.00    +0.000 HD
BRANCH  10  12
ATOM     12  C   UNL     1      44.828   3.918   8.122  0.00  0.00    +0.000 C 
BRANCH  12  13
ATOM     13  C   UNL     1      45.897   2.965   7.649  0.00  0.00    +0.000 A 
ATOM     14  C   UNL     1      46.842   3.367   6.700  0.00  0.00    +0.000 A 
ATOM     15  C   UNL     1      47.822   2.466   6.314  0.00  0.00    +0.000 A 
ATOM     16  N   UNL     1      47.922   1.210   6.798  0.00  0.00    +0.000 NA
ATOM     17  C   UNL     1      46.995   0.836   7.706  0.00  0.00    +0.000 A 
ATOM     18  C   UNL     1      45.980   1.664   8.157  0.00  0.00    +0.000 A 
ENDBRANCH  12  13
ENDBRANCH  10  12
ENDBRANCH   9  10
ENDBRANCH   6   9
ENDBRANCH   2   3
BRANCH   2  19
ATOM     19  C   UNL     1      48.010   5.643  16.103  0.00  0.00    +0.000 C 
BRANCH  19  20
ATOM     20  N   UNL     1      49.414   5.347  16.273  0.00  0.00    +0.000 N 
ATOM     21  C   UNL     1      50.296   6.218  16.862  0.00  0.00    +0.000 C 
ATOM     22  O   UNL     1      49.949   7.304  17.313  0.00  0.00    +0.000 OA
ATOM     23  H   UNL     1      49.767   4.541  15.769  0.00  0.00    +0.000 HD
BRANCH  21  24
ATOM     24  C   UNL     1      51.675   5.734  16.983  0.00  0.00    +0.000 A 
ATOM     25  C   UNL     1      52.723   6.501  16.497  0.00  0.00    +0.000 A 
ATOM     26  S   UNL     1      54.259   5.828  16.811  0.00  0.00    +0.000 S 
ATOM     27  C   UNL     1      53.569   4.460  17.556  0.00  0.00    +0.000 A 
ATOM     28  N   UNL     1      54.349   3.466  18.064  0.00  0.00    +0.000 NA
ATOM     29  C   UNL     1      53.691   2.477  18.567  0.00  0.00    +0.000 A 
ATOM     30  N   UNL     1      52.327   2.383  18.607  0.00  0.00    +0.000 N 
ATOM     31  C   UNL     1      51.498   3.377  18.145  0.00  0.00    +0.000 A 
ATOM     32  O   UNL     1      50.281   3.290  18.261  0.00  0.00    +0.000 OA
ATOM     33  C   UNL     1      52.188   4.517  17.564  0.00  0.00    +0.000 A 
ATOM     34  H   UNL     1      51.872   1.582  19.022  0.00  0.00    +0.000 HD
ENDBRANCH  21  24
ENDBRANCH  19  20
ENDBRANCH   2  19
TORSDOF 8
ENDMDL
