MODEL 1
REMARK VINA RESULT:    -7.191      0.000      0.000
REMARK INTER + INTRA:          -9.257
REMARK INTER:                  -9.083
REMARK INTRA:                  -0.174
REMARK UNBOUND:                -0.174
REMARK  Name = 
REMARK  5 active torsions:
REMARK  status: ('A' for Active; 'I' for Inactive)
REMARK    1  A    between atoms: N_1  and  C_2
REMARK    2  A    between atoms: C_2  and  C_3
REMARK    3  A    between atoms: C_3  and  C_4
REMARK    4  A    between atoms: C_7  and  C_8
REMARK    5  A    between atoms: C_8  and  N_9
REMARK                            x       y       z     vdW  Elec       q    Type
REMARK                         _______ _______ _______ _____ _____    ______ ____
ROOT
ATOM      1  C   UNL     1      46.144   2.317   7.814  0.00  0.00    +0.000 A 
ATOM      2  C   UNL     1      46.167   3.714   7.725  0.00  0.00    +0.000 A 
ATOM      3  C   UNL     1      45.377   4.494   8.577  0.00  0.00    +0.000 A 
ATOM      4  C   UNL     1      44.564   3.892   9.545  0.00  0.00    +0.000 A 
ATOM      5  C   UNL     1      44.540   2.492   9.631  0.00  0.00    +0.000 A 
ATOM      6  C   UNL     1      45.328   1.713   8.779  0.00  0.00    +0.000 A 
ENDROOT
BRANCH   1   7
ATOM      7  C   UNL     1      46.983   1.474   6.883  0.00  0.00    +0.000 C 
BRANCH   7   8
ATOM      8  C   UNL     1      48.280   2.171   6.461  0.00  0.00    +0.000 C 
BRANCH   8   9
ATOM      9  N   UNL     1      48.270   2.470   5.028  0.00  0.00    +0.000 NA
ATOM     10  H   UNL     1      47.355   2.835   4.766  0.00  0.00    +0.000 HD
ATOM     11  H   UNL     1      48.393   1.607   4.498  0.00  0.00    +0.000 HD
ENDBRANCH   8   9
ENDBRANCH   7   8
ENDBRANCH   1   7
BRANCH   4  12
ATOM     12  C   UNL     1      43.733   4.734  10.489  0.00  0.00    +0.000 C 
BRANCH  12  13
ATOM     13  N   UNL     1      44.451   5.955  10.838  0.00  0.00    +0.000 N 
ATOM     14  C   UNL     1      45.354   5.788  11.906  0.00  0.00    +0.000 A 
ATOM     15  C   UNL     1      46.090   6.881  12.327  0.00  0.00    +0.000 A 
ATOM     16  C   UNL     1      46.984   6.674  13.353  0.00  0.00    +0.000 A 
ATOM     17  N   UNL     1      47.163   5.483  13.951  0.00  0.00    +0.000 NA
ATOM     18  C   UNL     1      46.414   4.486  13.464  0.00  0.00    +0.000 A 
ATOM     19  N   UNL     1      45.523   4.578  12.466  0.00  0.00    +0.000 NA
ATOM     20  H   UNL     1      43.816   6.722  11.041  0.00  0.00    +0.000 HD
ENDBRANCH  12  13
ENDBRANCH   4  12
TORSDOF 5
ENDMDL
MODEL 2
REMARK VINA RESULT:    -6.917      1.444      2.122
REMARK INTER + INTRA:          -8.911
REMARK INTER:                  -8.542
REMARK INTRA:                  -0.369
REMARK UNBOUND:                -0.174
REMARK  Name = 
REMARK  5 active torsions:
REMARK  status: ('A' for Active; 'I' for Inactive)
REMARK    1  A    between atoms: N_1  and  C_2
REMARK    2  A    between atoms: C_2  and  C_3
REMARK    3  A    between atoms: C_3  and  C_4
REMARK    4  A    between atoms: C_7  and  C_8
REMARK    5  A    between atoms: C_8  and  N_9
REMARK                            x       y       z     vdW  Elec       q    Type
REMARK                         _______ _______ _______ _____ _____    ______ ____
ROOT
ATOM      1  C   UNL     1      45.987   2.533   8.067  0.00  0.00    +0.000 A 
ATOM      2  C   UNL     1      46.110   3.927   8.052  0.00  0.00    +0.000 A 
ATOM      3  C   UNL     1      45.383   4.715   8.950  0.00  0.00    +0.000 A 
ATOM      4  C   UNL     1      44.532   4.123   9.892  0.00  0.00    +0.000 A 
ATOM      5  C   UNL     1      44.408   2.726   9.904  0.00  0.00    +0.000 A 
ATOM      6  C   UNL     1      45.134   1.939   9.006  0.00  0.00    +0.000 A 
ENDROOT
BRANCH   1   7
ATOM      7  C   UNL     1      46.758   1.683   7.086  0.00  0.00    +0.000 C 
BRANCH   7   8
ATOM      8  C   UNL     1      48.084   2.324   6.662  0.00  0.00    +0.000 C 
BRANCH   8   9
ATOM      9  N   UNL     1      48.452   1.913   5.306  0.00  0.00    +0.000 NA
ATOM     10  H   UNL     1      47.623   1.577   4.818  0.00  0.00    +0.000 HD
ATOM     11  H   UNL     1      49.094   1.121   5.352  0.00  0.00    +0.000 HD
ENDBRANCH   8   9
ENDBRANCH   7   8
ENDBRANCH   1   7
BRANCH   4  12
ATOM     12  C   UNL     1      43.769   4.971  10.886  0.00  0.00    +0.000 C 
BRANCH  12  13
ATOM     13  N   UNL     1      44.657   5.416  11.955  0.00  0.00    +0.000 N 
ATOM     14  C   UNL     1      44.842   6.812  11.984  0.00  0.00    +0.000 A 
ATOM     15  C   UNL     1      45.667   7.350  12.955  0.00  0.00    +0.000 A 
ATOM     16  C   UNL     1      45.801   8.720  12.972  0.00  0.00    +0.000 A 
ATOM     17  N   UNL     1      45.182   9.536  12.102  0.00  0.00    +0.000 NA
ATOM     18  C   UNL     1      44.395   8.921  11.209  0.00  0.00    +0.000 A 
ATOM     19  N   UNL     1      44.189   7.600  11.111  0.00  0.00    +0.000 NA
ATOM     20  H   UNL     1      45.558   4.951  11.915  0.00  0.00    +0.000 HD
ENDBRANCH  12  13
ENDBRANCH   4  12
TORSDOF 5
ENDMDL
MODEL 3
REMARK VINA RESULT:    -6.911      1.078      1.988
REMARK INTER + INTRA:          -8.903
REMARK INTER:                  -8.689
REMARK INTRA:                  -0.214
REMARK UNBOUND:                -0.174
REMARK  Name = 
REMARK  5 active torsions:
REMARK  status: ('A' for Active; 'I' for Inactive)
REMARK    1  A    between atoms: N_1  and  C_2
REMARK    2  A    between atoms: C_2  and  C_3
REMARK    3  A    between atoms: C_3  and  C_4
REMARK    4  A    between atoms: C_7  and  C_8
REMARK    5  A    between atoms: C_8  and  N_9
REMARK                            x       y       z     vdW  Elec       q    Type
REMARK                         _______ _______ _______ _____ _____    ______ ____
ROOT
ATOM      1  C   UNL     1      45.802   3.077   7.930  0.00  0.00    +0.000 A 
ATOM      2  C   UNL     1      45.267   2.129   8.810  0.00  0.00    +0.000 A 
ATOM      3  C   UNL     1      44.723   2.524  10.037  0.00  0.00    +0.000 A 
ATOM      4  C   UNL     1      44.688   3.877  10.399  0.00  0.00    +0.000 A 
ATOM      5  C   UNL     1      45.228   4.825   9.517  0.00  0.00    +0.000 A 
ATOM      6  C   UNL     1      45.772   4.430   8.292  0.00  0.00    +0.000 A 
ENDROOT
BRANCH   1   7
ATOM      7  C   UNL     1      46.405   2.648   6.613  0.00  0.00    +0.000 C 
BRANCH   7   8
ATOM      8  C   UNL     1      47.584   1.686   6.788  0.00  0.00    +0.000 C 
BRANCH   8   9
ATOM      9  N   UNL     1      48.557   1.850   5.706  0.00  0.00    +0.000 NA
ATOM     10  H   UNL     1      49.240   1.094   5.748  0.00  0.00    +0.000 HD
ATOM     11  H   UNL     1      49.082   2.714   5.847  0.00  0.00    +0.000 HD
ENDBRANCH   8   9
ENDBRANCH   7   8
ENDBRANCH   1   7
BRANCH   4  12
ATOM     12  C   UNL     1      44.072   4.310  11.711  0.00  0.00    +0.000 C 
BRANCH  12  13
ATOM     13  N   UNL     1      44.868   3.816  12.829  0.00  0.00    +0.000 N 
ATOM     14  C   UNL     1      45.851   4.726  13.263  0.00  0.00    +0.000 A 
ATOM     15  C   UNL     1      46.669   4.364  14.317  0.00  0.00    +0.000 A 
ATOM     16  C   UNL     1      47.599   5.290  14.733  0.00  0.00    +0.000 A 
ATOM     17  N   UNL     1      47.744   6.500  14.168  0.00  0.00    +0.000 NA
ATOM     18  C   UNL     1      46.897   6.762  13.164  0.00  0.00    +0.000 A 
ATOM     19  N   UNL     1      45.953   5.937  12.687  0.00  0.00    +0.000 NA
ATOM     20  H   UNL     1      45.297   2.920  12.620  0.00  0.00    +0.000 HD
ENDBRANCH  12  13
ENDBRANCH   4  12
TORSDOF 5
ENDMDL
MODEL 4
REMARK VINA RESULT:    -6.863      1.935      6.331
REMARK INTER + INTRA:          -8.842
REMARK INTER:                  -8.522
REMARK INTRA:                  -0.320
REMARK UNBOUND:                -0.174
REMARK  Name = 
REMARK  5 active torsions:
REMARK  status: ('A' for Active; 'I' for Inactive)
REMARK    1  A    between atoms: N_1  and  C_2
REMARK    2  A    between atoms: C_2  and  C_3
REMARK    3  A    between atoms: C_3  and  C_4
REMARK    4  A    between atoms: C_7  and  C_8
REMARK    5  A    between atoms: C_8  and  N_9
REMARK                            x       y       z     vdW  Elec       q    Type
REMARK                         _______ _______ _______ _____ _____    ______ ____
ROOT
ATOM      1  C   UNL     1      46.450   5.023  13.128  0.00  0.00    +0.000 A 
ATOM      2  C   UNL     1      46.266   5.935  12.082  0.00  0.00    +0.000 A 
ATOM      3  C   UNL     1      45.568   5.563  10.929  0.00  0.00    +0.000 A 
ATOM      4  C   UNL     1      45.024   4.278  10.807  0.00  0.00    +0.000 A 
ATOM      5  C   UNL     1      45.212   3.364  11.855  0.00  0.00    +0.000 A 
ATOM      6  C   UNL     1      45.911   3.736  13.007  0.00  0.00    +0.000 A 
ENDROOT
BRANCH   1   7
ATOM      7  C   UNL     1      47.219   5.419  14.366  0.00  0.00    +0.000 C 
BRANCH   7   8
ATOM      8  C   UNL     1      47.217   4.325  15.439  0.00  0.00    +0.000 C 
BRANCH   8   9
ATOM      9  N   UNL     1      47.316   4.907  16.778  0.00  0.00    +0.000 NA
ATOM     10  H   UNL     1      46.805   5.788  16.802  0.00  0.00    +0.000 HD
ATOM     11  H   UNL     1      48.289   5.138  16.980  0.00  0.00    +0.000 HD
ENDBRANCH   8   9
ENDBRANCH   7   8
ENDBRANCH   1   7
BRANCH   4  12
ATOM     12  C   UNL     1      44.241   3.883   9.574  0.00  0.00    +0.000 C 
BRANCH  12  13
ATOM     13  N   UNL     1      44.980   4.246   8.370  0.00  0.00    +0.000 N 
ATOM     14  C   UNL     1      45.778   3.200   7.867  0.00  0.00    +0.000 A 
ATOM     15  C   UNL     1      46.528   3.429   6.727  0.00  0.00    +0.000 A 
ATOM     16  C   UNL     1      47.273   2.375   6.247  0.00  0.00    +0.000 A 
ATOM     17  N   UNL     1      47.304   1.165   6.828  0.00  0.00    +0.000 NA
ATOM     18  C   UNL     1      46.535   1.038   7.917  0.00  0.00    +0.000 A 
ATOM     19  N   UNL     1      45.769   1.994   8.462  0.00  0.00    +0.000 NA
ATOM     20  H   UNL     1      45.549   5.075   8.511  0.00  0.00    +0.000 HD
ENDBRANCH  12  13
ENDBRANCH   4  12
TORSDOF 5
ENDMDL
MODEL 5
REMARK VINA RESULT:    -6.618      1.847      6.216
REMARK INTER + INTRA:          -8.533
REMARK INTER:                  -8.159
REMARK INTRA:                  -0.374
REMARK UNBOUND:                -0.174
REMARK  Name = 
REMARK  5 active torsions:
REMARK  status: ('A' for Active; 'I' for Inactive)
REMARK    1  A    between atoms: N_1  and  C_2
REMARK    2  A    between atoms: C_2  and  C_3
REMARK    3  A    between atoms: C_3  and  C_4
REMARK    4  A    between atoms: C_7  and  C_8
REMARK    5  A    between atoms: C_8  and  N_9
REMARK                            x       y       z     vdW  Elec       q    Type
REMARK                         _______ _______ _______ _____ _____    ______ ____
ROOT
ATOM      1  C   UNL     1      46.353   5.740  12.668  0.00  0.00    +0.000 A 
ATOM      2  C   UNL     1      45.975   4.437  13.012  0.00  0.00    +0.000 A 
ATOM      3  C   UNL     1      45.265   3.641  12.107  0.00  0.00    +0.000 A 
ATOM      4  C   UNL     1      44.935   4.126  10.835  0.00  0.00    +0.000 A 
ATOM      5  C   UNL     1      45.313   5.434  10.494  0.00  0.00    +0.000 A 
ATOM      6  C   UNL     1      46.021   6.230  11.398  0.00  0.00    +0.000 A 
ENDROOT
BRANCH   1   7
ATOM      7  C   UNL     1      47.105   6.606  13.651  0.00  0.00    +0.000 C 
BRANCH   7   8
ATOM      8  C   UNL     1      48.215   7.428  12.988  0.00  0.00    +0.000 C 
BRANCH   8   9
ATOM      9  N   UNL     1      49.442   6.640  12.859  0.00  0.00    +0.000 NA
ATOM     10  H   UNL     1      50.221   7.160  13.261  0.00  0.00    +0.000 HD
ATOM     11  H   UNL     1      49.665   6.514  11.871  0.00  0.00    +0.000 HD
ENDBRANCH   8   9
ENDBRANCH   7   8
ENDBRANCH   1   7
BRANCH   4  12
ATOM     12  C   UNL     1      44.195   3.256   9.843  0.00  0.00    +0.000 C 
BRANCH  12  13
ATOM     13  N   UNL     1      44.960   2.046   9.567  0.00  0.00    +0.000 N 
ATOM     14  C   UNL     1      45.719   2.121   8.383  0.00  0.00    +0.000 A 
ATOM     15  C   UNL     1      46.485   1.029   8.016  0.00  0.00    +0.000 A 
ATOM     16  C   UNL     1      47.237   1.150   6.870  0.00  0.00    +0.000 A 
ATOM     17  N   UNL     1      47.254   2.257   6.108  0.00  0.00    +0.000 NA
ATOM     18  C   UNL     1      46.491   3.263   6.553  0.00  0.00    +0.000 A 
ATOM     19  N   UNL     1      45.729   3.253   7.656  0.00  0.00    +0.000 NA
ATOM     20  H   UNL     1      44.367   1.221   9.542  0.00  0.00    +0.000 HD
ENDBRANCH  12  13
ENDBRANCH   4  12
TORSDOF 5
ENDMDL
MODEL 6
REMARK VINA RESULT:    -6.381      2.022      6.322
REMARK INTER + INTRA:          -8.233
REMARK INTER:                  -7.888
REMARK INTRA:                  -0.345
REMARK UNBOUND:                -0.174
REMARK  Name = 
REMARK  5 active torsions:
REMARK  status: ('A' for Active; 'I' for Inactive)
REMARK    1  A    between atoms: N_1  and  C_2
REMARK    2  A    between atoms: C_2  and  C_3
REMARK    3  A    between atoms: C_3  and  C_4
REMARK    4  A    between atoms: C_7  and  C_8
REMARK    5  A    between atoms: C_8  and  N_9
REMARK                            x       y       z     vdW  Elec       q    Type
REMARK                         _______ _______ _______ _____ _____    ______ ____
ROOT
ATOM      1  C   UNL     1      46.091   5.941  12.298  0.00  0.00    +0.000 A 
ATOM      2  C   UNL     1      46.196   6.304  10.950  0.00  0.00    +0.000 A 
ATOM      3  C   UNL     1      45.701   5.464   9.947  0.00  0.00    +0.000 A 
ATOM      4  C   UNL     1      45.075   4.255  10.274  0.00  0.00    +0.000 A 
ATOM      5  C   UNL     1      44.972   3.892  11.625  0.00  0.00    +0.000 A 
ATOM      6  C   UNL     1      45.469   4.730  12.627  0.00  0.00    +0.000 A 
ENDROOT
BRANCH   1   7
ATOM      7  C   UNL     1      46.642   6.840  13.381  0.00  0.00    +0.000 C 
BRANCH   7   8
ATOM      8  C   UNL     1      46.209   8.300  13.215  0.00  0.00    +0.000 C 
BRANCH   8   9
ATOM      9  N   UNL     1      47.345   9.142  12.838  0.00  0.00    +0.000 NA
ATOM     10  H   UNL     1      47.601   8.949  11.870  0.00  0.00    +0.000 HD
ATOM     11  H   UNL     1      48.158   8.891  13.401  0.00  0.00    +0.000 HD
ENDBRANCH   8   9
ENDBRANCH   7   8
ENDBRANCH   1   7
BRANCH   4  12
ATOM     12  C   UNL     1      44.509   3.360   9.192  0.00  0.00    +0.000 C 
BRANCH  12  13
ATOM     13  N   UNL     1      44.989   3.788   7.883  0.00  0.00    +0.000 N 
ATOM     14  C   UNL     1      45.995   2.954   7.356  0.00  0.00    +0.000 A 
ATOM     15  C   UNL     1      46.529   3.263   6.118  0.00  0.00    +0.000 A 
ATOM     16  C   UNL     1      47.488   2.410   5.621  0.00  0.00    +0.000 A 
ATOM     17  N   UNL     1      47.920   1.318   6.275  0.00  0.00    +0.000 NA
ATOM     18  C   UNL     1      47.333   1.098   7.458  0.00  0.00    +0.000 A 
ATOM     19  N   UNL     1      46.387   1.858   8.029  0.00  0.00    +0.000 NA
ATOM     20  H   UNL     1      45.312   4.750   7.895  0.00  0.00    +0.000 HD
ENDBRANCH  12  13
ENDBRANCH   4  12
TORSDOF 5
ENDMDL
MODEL 7
REMARK VINA RESULT:    -6.102      2.995      4.867
REMARK INTER + INTRA:          -7.882
REMARK INTER:                  -7.572
REMARK INTRA:                  -0.310
REMARK UNBOUND:                -0.174
REMARK  Name = 
REMARK  5 active torsions:
REMARK  status: ('A' for Active; 'I' for Inactive)
REMARK    1  A    between atoms: N_1  and  C_2
REMARK    2  A    between atoms: C_2  and  C_3
REMARK    3  A    between atoms: C_3  and  C_4
REMARK    4  A    between atoms: C_7  and  C_8
REMARK    5  A    between atoms: C_8  and  N_9
REMARK                            x       y       z     vdW  Elec       q    Type
REMARK                         _______ _______ _______ _____ _____    ______ ____
ROOT
ATOM      1  C   UNL     1      45.014   4.569  10.622  0.00  0.00    +0.000 A 
ATOM      2  C   UNL     1      45.075   3.589  11.620  0.00  0.00    +0.000 A 
ATOM      3  C   UNL     1      45.795   3.818  12.798  0.00  0.00    +0.000 A 
ATOM      4  C   UNL     1      46.452   5.038  13.007  0.00  0.00    +0.000 A 
ATOM      5  C   UNL     1      46.392   6.017  12.004  0.00  0.00    +0.000 A 
ATOM      6  C   UNL     1      45.674   5.787  10.827  0.00  0.00    +0.000 A 
ENDROOT
BRANCH   1   7
ATOM      7  C   UNL     1      44.252   4.315   9.343  0.00  0.00    +0.000 C 
BRANCH   7   8
ATOM      8  C   UNL     1      45.001   3.386   8.382  0.00  0.00    +0.000 C 
BRANCH   8   9
ATOM      9  N   UNL     1      45.898   4.148   7.512  0.00  0.00    +0.000 NA
ATOM     10  H   UNL     1      46.173   5.010   7.982  0.00  0.00    +0.000 HD
ATOM     11  H   UNL     1      45.398   4.431   6.669  0.00  0.00    +0.000 HD
ENDBRANCH   8   9
ENDBRANCH   7   8
ENDBRANCH   1   7
BRANCH   4  12
ATOM     12  C   UNL     1      47.204   5.300  14.293  0.00  0.00    +0.000 C 
BRANCH  12  13
ATOM     13  N   UNL     1      46.748   4.390  15.338  0.00  0.00    +0.000 N 
ATOM     14  C   UNL     1      47.684   4.215  16.376  0.00  0.00    +0.000 A 
ATOM     15  C   UNL     1      47.360   3.370  17.423  0.00  0.00    +0.000 A 
ATOM     16  C   UNL     1      48.286   3.246  18.434  0.00  0.00    +0.000 A 
ATOM     17  N   UNL     1      49.465   3.892  18.443  0.00  0.00    +0.000 NA
ATOM     18  C   UNL     1      49.679   4.696  17.393  0.00  0.00    +0.000 A 
ATOM     19  N   UNL     1      48.844   4.894  16.363  0.00  0.00    +0.000 NA
ATOM     20  H   UNL     1      46.479   3.486  14.961  0.00  0.00    +0.000 HD
ENDBRANCH  12  13
ENDBRANCH   4  12
TORSDOF 5
ENDMDL
MODEL 8
REMARK VINA RESULT:    -5.921      1.859      3.238
REMARK INTER + INTRA:          -7.653
REMARK INTER:                  -7.329
REMARK INTRA:                  -0.324
REMARK UNBOUND:                -0.174
REMARK  Name = 
REMARK  5 active torsions:
REMARK  status: ('A' for Active; 'I' for Inactive)
REMARK    1  A    between atoms: N_1  and  C_2
REMARK    2  A    between atoms: C_2  and  C_3
REMARK    3  A    between atoms: C_3  and  C_4
REMARK    4  A    between atoms: C_7  and  C_8
REMARK    5  A    between atoms: C_8  and  N_9
REMARK                            x       y       z     vdW  Elec       q    Type
REMARK                         _______ _______ _______ _____ _____    ______ ____
ROOT
ATOM      1  C   UNL     1      45.145   3.857   9.085  0.00  0.00    +0.000 A 
ATOM      2  C   UNL     1      44.669   3.132  10.184  0.00  0.00    +0.000 A 
ATOM      3  C   UNL     1      44.755   3.662  11.476  0.00  0.00    +0.000 A 
ATOM      4  C   UNL     1      45.301   4.934  11.691  0.00  0.00    +0.000 A 
ATOM      5  C   UNL     1      45.779   5.658  10.588  0.00  0.00    +0.000 A 
ATOM      6  C   UNL     1      45.694   5.128   9.298  0.00  0.00    +0.000 A 
ENDROOT
BRANCH   1   7
ATOM      7  C   UNL     1      45.068   3.278   7.691  0.00  0.00    +0.000 C 
BRANCH   7   8
ATOM      8  C   UNL     1      46.444   2.912   7.126  0.00  0.00    +0.000 C 
BRANCH   8   9
ATOM      9  N   UNL     1      46.906   3.928   6.179  0.00  0.00    +0.000 NA
ATOM     10  H   UNL     1      47.316   3.469   5.366  0.00  0.00    +0.000 HD
ATOM     11  H   UNL     1      47.657   4.474   6.603  0.00  0.00    +0.000 HD
ENDBRANCH   8   9
ENDBRANCH   7   8
ENDBRANCH   1   7
BRANCH   4  12
ATOM     12  C   UNL     1      45.365   5.522  13.083  0.00  0.00    +0.000 C 
BRANCH  12  13
ATOM     13  N   UNL     1      45.724   4.490  14.050  0.00  0.00    +0.000 N 
ATOM     14  C   UNL     1      46.864   4.810  14.813  0.00  0.00    +0.000 A 
ATOM     15  C   UNL     1      47.301   3.903  15.762  0.00  0.00    +0.000 A 
ATOM     16  C   UNL     1      48.400   4.262  16.509  0.00  0.00    +0.000 A 
ATOM     17  N   UNL     1      49.052   5.427  16.355  0.00  0.00    +0.000 NA
ATOM     18  C   UNL     1      48.546   6.241  15.421  0.00  0.00    +0.000 A 
ATOM     19  N   UNL     1      47.480   5.994  14.646  0.00  0.00    +0.000 NA
ATOM     20  H   UNL     1      45.850   3.585  13.607  0.00  0.00    +0.000 HD
ENDBRANCH  12  13
ENDBRANCH   4  12
TORSDOF 5
ENDMDL
MODEL 9
REMARK VINA RESULT:    -5.550      1.713      6.395
REMARK INTER + INTRA:          -7.183
REMARK INTER:                  -7.027
REMARK INTRA:                  -0.157
REMARK UNBOUND:                -0.174
REMARK  Name = 
REMARK  5 active torsions:
REMARK  status: ('A' for Active; 'I' for Inactive)
REMARK    1  A    between atoms: N_1  and  C_2
REMARK    2  A    between atoms: C_2  and  C_3
REMARK    3  A    between atoms: C_3  and  C_4
REMARK    4  A    between atoms: C_7  and  C_8
REMARK    5  A    between atoms: C_8  and  N_9
REMARK                            x       y       z     vdW  Elec       q    Type
REMARK                         _______ _______ _______ _____ _____    ______ ____
ROOT
ATOM      1  C   UNL     1      46.921   7.173  13.104  0.00  0.00    +0.000 A 
ATOM      2  C   UNL     1      46.949   5.790  12.887  0.00  0.00    +0.000 A 
ATOM      3  C   UNL     1      45.975   5.176  12.092  0.00  0.00    +0.000 A 
ATOM      4  C   UNL     1      44.967   5.935  11.485  0.00  0.00    +0.000 A 
ATOM      5  C   UNL     1      44.939   7.320  11.706  0.00  0.00    +0.000 A 
ATOM      6  C   UNL     1      45.911   7.933  12.501  0.00  0.00    +0.000 A 
ENDROOT
BRANCH   1   7
ATOM      7  C   UNL     1      47.962   7.834  13.977  0.00  0.00    +0.000 C 
BRANCH   7   8
ATOM      8  C   UNL     1      48.700   6.837  14.876  0.00  0.00    +0.000 C 
BRANCH   8   9
ATOM      9  N   UNL     1      50.150   7.007  14.763  0.00  0.00    +0.000 NA
ATOM     10  H   UNL     1      50.364   7.994  14.625  0.00  0.00    +0.000 HD
ATOM     11  H   UNL     1      50.487   6.524  13.930  0.00  0.00    +0.000 HD
ENDBRANCH   8   9
ENDBRANCH   7   8
ENDBRANCH   1   7
BRANCH   4  12
ATOM     12  C   UNL     1      43.931   5.277  10.599  0.00  0.00    +0.000 C 
BRANCH  12  13
ATOM     13  N   UNL     1      44.178   3.842  10.516  0.00  0.00    +0.000 N 
ATOM     14  C   UNL     1      44.943   3.468   9.394  0.00  0.00    +0.000 A 
ATOM     15  C   UNL     1      45.238   2.129   9.210  0.00  0.00    +0.000 A 
ATOM     16  C   UNL     1      46.013   1.805   8.119  0.00  0.00    +0.000 A 
ATOM     17  N   UNL     1      46.479   2.713   7.245  0.00  0.00    +0.000 NA
ATOM     18  C   UNL     1      46.150   3.982   7.516  0.00  0.00    +0.000 A 
ATOM     19  N   UNL     1      45.410   4.406   8.551  0.00  0.00    +0.000 NA
ATOM     20  H   UNL     1      43.314   3.308  10.536  0.00  0.00    +0.000 HD
ENDBRANCH  12  13
ENDBRANCH   4  12
TORSDOF 5
ENDMDL
