MODEL 1
REMARK VINA RESULT:    -8.309      0.000      0.000
REMARK INTER + INTRA:         -13.834
REMARK INTER:                 -12.923
REMARK INTRA:                  -0.911
REMARK UNBOUND:                -0.911
REMARK  Name = 
REMARK  10 active torsions:
REMARK  status: ('A' for Active; 'I' for Inactive)
REMARK    1  A    between atoms: C_2  and  C_4
REMARK    2  A    between atoms: C_7  and  N_8
REMARK    3  A    between atoms: N_8  and  C_9
REMARK    4  A    between atoms: C_9  and  C_10
REMARK    5  A    between atoms: C_10  and  C_11
REMARK    6  A    between atoms: C_10  and  C_13
REMARK    7  A    between atoms: C_11  and  O_12
REMARK    8  A    between atoms: C_17  and  O_18
REMARK    9  A    between atoms: O_18  and  C_19
REMARK   10  A    between atoms: C_22  and  C_24
REMARK                            x       y       z     vdW  Elec       q    Type
REMARK                         _______ _______ _______ _____ _____    ______ ____
ROOT
ATOM      1  C   UNL     1      43.621   5.513  12.184  0.00  0.00    +0.000 C 
ENDROOT
BRANCH   1   2
ATOM      2  C   UNL     1      45.121   5.784  12.322  0.00  0.00    +0.000 A 
ATOM      3  C   UNL     1      45.765   6.767  11.557  0.00  0.00    +0.000 A 
ATOM      4  C   UNL     1      47.116   7.059  11.756  0.00  0.00    +0.000 A 
ATOM      5  C   UNL     1      47.857   6.366  12.716  0.00  0.00    +0.000 A 
ATOM      6  C   UNL     1      47.244   5.365  13.465  0.00  0.00    +0.000 A 
ATOM      7  C   UNL     1      45.883   5.085  13.273  0.00  0.00    +0.000 A 
BRANCH   6   8
ATOM      8  O   UNL     1      47.862   4.628  14.447  0.00  0.00    +0.000 OA
BRANCH   8   9
ATOM      9  C   UNL     1      47.452   4.801  15.824  0.00  0.00    +0.000 C 
ATOM     10  C   UNL     1      48.466   5.449  16.791  0.00  0.00    +0.000 C 
ATOM     11  N   UNL     1      48.275   4.311  17.659  0.00  0.00    +0.000 N 
ATOM     12  C   UNL     1      48.571   4.032  18.972  0.00  0.00    +0.000 C 
ATOM     13  O   UNL     1      48.277   2.934  19.450  0.00  0.00    +0.000 OA
ATOM     14  C   UNL     1      47.537   3.526  16.693  0.00  0.00    +0.000 C 
BRANCH  12  15
ATOM     15  C   UNL     1      49.236   5.148  19.807  0.00  0.00    +0.000 C 
ATOM     16  F   UNL     1      50.372   5.659  19.250  0.00  0.00    +0.000 F 
ATOM     17  F   UNL     1      48.402   6.212  19.983  0.00  0.00    +0.000 F 
ATOM     18  F   UNL     1      49.591   4.726  21.052  0.00  0.00    +0.000 F 
ENDBRANCH  12  15
ENDBRANCH   8   9
ENDBRANCH   6   8
ENDBRANCH   1   2
BRANCH   1  19
ATOM     19  C   UNL     1      43.301   5.048  10.744  0.00  0.00    +0.000 C 
BRANCH  19  20
ATOM     20  N   UNL     1      43.701   3.651  10.509  0.00  0.00    +0.000 N 
ATOM     21  H   UNL     1      43.875   3.118  11.355  0.00  0.00    +0.000 HD
BRANCH  20  25
ATOM     22  C   UNL     1      46.518   2.714   7.583  0.00  0.00    +0.000 A 
ATOM     23  C   UNL     1      46.189   4.049   7.755  0.00  0.00    +0.000 A 
ATOM     24  C   UNL     1      45.254   4.383   8.737  0.00  0.00    +0.000 A 
ATOM     25  C   UNL     1      44.689   3.397   9.546  0.00  0.00    +0.000 A 
ATOM     26  C   UNL     1      45.064   2.077   9.250  0.00  0.00    +0.000 A 
ATOM     27  N   UNL     1      45.969   1.704   8.309  0.00  0.00    +0.000 NA
BRANCH  22  29
ATOM     28  N   UNL     1      47.499   3.084   5.398  0.00  0.00    +0.000 N 
ATOM     29  C   UNL     1      47.521   2.332   6.541  0.00  0.00    +0.000 C 
ATOM     30  O   UNL     1      48.322   1.420   6.693  0.00  0.00    +0.000 OA
ATOM     31  H   UNL     1      48.181   2.906   4.675  0.00  0.00    +0.000 HD
ATOM     32  H   UNL     1      46.863   3.870   5.328  0.00  0.00    +0.000 HD
ENDBRANCH  22  29
ENDBRANCH  20  25
ENDBRANCH  19  20
ENDBRANCH   1  19
BRANCH   1  33
ATOM     33  C   UNL     1      43.091   4.551  13.267  0.00  0.00    +0.000 C 
BRANCH  33  34
ATOM     34  O   UNL     1      43.653   3.244  13.199  0.00  0.00    +0.000 OA
ATOM     35  H   UNL     1      44.588   3.318  12.943  0.00  0.00    +0.000 HD
ENDBRANCH  33  34
ENDBRANCH   1  33
TORSDOF 10
ENDMDL
MODEL 2
REMARK VINA RESULT:    -8.102      4.821      9.330
REMARK INTER + INTRA:         -13.513
REMARK INTER:                 -12.964
REMARK INTRA:                  -0.548
REMARK UNBOUND:                -0.911
REMARK  Name = 
REMARK  10 active torsions:
REMARK  status: ('A' for Active; 'I' for Inactive)
REMARK    1  A    between atoms: C_2  and  C_4
REMARK    2  A    between atoms: C_7  and  N_8
REMARK    3  A    between atoms: N_8  and  C_9
REMARK    4  A    between atoms: C_9  and  C_10
REMARK    5  A    between atoms: C_10  and  C_11
REMARK    6  A    between atoms: C_10  and  C_13
REMARK    7  A    between atoms: C_11  and  O_12
REMARK    8  A    between atoms: C_17  and  O_18
REMARK    9  A    between atoms: O_18  and  C_19
REMARK   10  A    between atoms: C_22  and  C_24
REMARK                            x       y       z     vdW  Elec       q    Type
REMARK                         _______ _______ _______ _____ _____    ______ ____
ROOT
ATOM      1  C   UNL     1      46.247   5.539  13.906  0.00  0.00    +0.000 C 
ENDROOT
BRANCH   1   2
ATOM      2  C   UNL     1      45.098   5.256  12.935  0.00  0.00    +0.000 A 
ATOM      3  C   UNL     1      44.126   6.223  12.642  0.00  0.00    +0.000 A 
ATOM      4  C   UNL     1      43.135   5.977  11.690  0.00  0.00    +0.000 A 
ATOM      5  C   UNL     1      43.086   4.754  11.018  0.00  0.00    +0.000 A 
ATOM      6  C   UNL     1      44.024   3.768  11.316  0.00  0.00    +0.000 A 
ATOM      7  C   UNL     1      45.027   4.024  12.261  0.00  0.00    +0.000 A 
BRANCH   6   8
ATOM      8  O   UNL     1      44.088   2.536  10.711  0.00  0.00    +0.000 OA
BRANCH   8   9
ATOM      9  C   UNL     1      44.275   2.460   9.278  0.00  0.00    +0.000 C 
ATOM     10  C   UNL     1      45.526   1.717   8.763  0.00  0.00    +0.000 C 
ATOM     11  N   UNL     1      45.835   2.897   7.989  0.00  0.00    +0.000 N 
ATOM     12  C   UNL     1      46.680   3.176   6.942  0.00  0.00    +0.000 C 
ATOM     13  O   UNL     1      46.729   4.318   6.477  0.00  0.00    +0.000 OA
ATOM     14  C   UNL     1      44.848   3.741   8.628  0.00  0.00    +0.000 C 
BRANCH  12  15
ATOM     15  C   UNL     1      47.512   2.010   6.366  0.00  0.00    +0.000 C 
ATOM     16  F   UNL     1      46.809   0.853   6.199  0.00  0.00    +0.000 F 
ATOM     17  F   UNL     1      48.021   2.311   5.138  0.00  0.00    +0.000 F 
ATOM     18  F   UNL     1      48.574   1.688   7.155  0.00  0.00    +0.000 F 
ENDBRANCH  12  15
ENDBRANCH   8   9
ENDBRANCH   6   8
ENDBRANCH   1   2
BRANCH   1  19
ATOM     19  C   UNL     1      46.819   4.207  14.446  0.00  0.00    +0.000 C 
BRANCH  19  20
ATOM     20  N   UNL     1      46.997   4.229  15.906  0.00  0.00    +0.000 N 
ATOM     21  H   UNL     1      46.821   5.132  16.336  0.00  0.00    +0.000 HD
BRANCH  20  25
ATOM     22  C   UNL     1      50.464   2.383  17.300  0.00  0.00    +0.000 A 
ATOM     23  C   UNL     1      50.207   3.675  17.731  0.00  0.00    +0.000 A 
ATOM     24  C   UNL     1      49.044   4.305  17.281  0.00  0.00    +0.000 A 
ATOM     25  C   UNL     1      48.150   3.638  16.444  0.00  0.00    +0.000 A 
ATOM     26  C   UNL     1      48.539   2.352  16.039  0.00  0.00    +0.000 A 
ATOM     27  N   UNL     1      49.656   1.697  16.450  0.00  0.00    +0.000 NA
BRANCH  22  29
ATOM     28  N   UNL     1      52.523   2.422  18.579  0.00  0.00    +0.000 N 
ATOM     29  C   UNL     1      51.700   1.684  17.772  0.00  0.00    +0.000 C 
ATOM     30  O   UNL     1      51.962   0.526  17.476  0.00  0.00    +0.000 OA
ATOM     31  H   UNL     1      53.350   1.992  18.968  0.00  0.00    +0.000 HD
ATOM     32  H   UNL     1      52.247   3.357  18.854  0.00  0.00    +0.000 HD
ENDBRANCH  22  29
ENDBRANCH  20  25
ENDBRANCH  19  20
ENDBRANCH   1  19
BRANCH   1  33
ATOM     33  C   UNL     1      47.323   6.461  13.298  0.00  0.00    +0.000 C 
BRANCH  33  34
ATOM     34  O   UNL     1      48.657   6.011  13.516  0.00  0.00    +0.000 OA
ATOM     35  H   UNL     1      49.147   6.067  12.679  0.00  0.00    +0.000 HD
ENDBRANCH  33  34
ENDBRANCH   1  33
TORSDOF 10
ENDMDL
MODEL 3
REMARK VINA RESULT:    -7.913      1.671      2.057
REMARK INTER + INTRA:         -13.219
REMARK INTER:                 -12.062
REMARK INTRA:                  -1.158
REMARK UNBOUND:                -0.911
REMARK  Name = 
REMARK  10 active torsions:
REMARK  status: ('A' for Active; 'I' for Inactive)
REMARK    1  A    between atoms: C_2  and  C_4
REMARK    2  A    between atoms: C_7  and  N_8
REMARK    3  A    between atoms: N_8  and  C_9
REMARK    4  A    between atoms: C_9  and  C_10
REMARK    5  A    between atoms: C_10  and  C_11
REMARK    6  A    between atoms: C_10  and  C_13
REMARK    7  A    between atoms: C_11  and  O_12
REMARK    8  A    between atoms: C_17  and  O_18
REMARK    9  A    between atoms: O_18  and  C_19
REMARK   10  A    between atoms: C_22  and  C_24
REMARK                            x       y       z     vdW  Elec       q    Type
REMARK                         _______ _______ _______ _____ _____    ______ ____
ROOT
ATOM      1  C   UNL     1      44.310   5.528  12.268  0.00  0.00    +0.000 C 
ENDROOT
BRANCH   1   2
ATOM      2  C   UNL     1      45.705   6.156  12.258  0.00  0.00    +0.000 A 
ATOM      3  C   UNL     1      46.397   6.394  11.063  0.00  0.00    +0.000 A 
ATOM      4  C   UNL     1      47.632   7.046  11.067  0.00  0.00    +0.000 A 
ATOM      5  C   UNL     1      48.209   7.464  12.269  0.00  0.00    +0.000 A 
ATOM      6  C   UNL     1      47.551   7.210  13.471  0.00  0.00    +0.000 A 
ATOM      7  C   UNL     1      46.305   6.569  13.461  0.00  0.00    +0.000 A 
BRANCH   6   8
ATOM      8  O   UNL     1      48.009   7.586  14.711  0.00  0.00    +0.000 OA
BRANCH   8   9
ATOM      9  C   UNL     1      48.792   6.651  15.490  0.00  0.00    +0.000 C 
ATOM     10  C   UNL     1      48.152   5.283  15.810  0.00  0.00    +0.000 C 
ATOM     11  N   UNL     1      48.450   5.537  17.200  0.00  0.00    +0.000 N 
ATOM     12  C   UNL     1      48.492   4.769  18.339  0.00  0.00    +0.000 C 
ATOM     13  O   UNL     1      48.787   5.285  19.420  0.00  0.00    +0.000 OA
ATOM     14  C   UNL     1      48.811   6.926  17.010  0.00  0.00    +0.000 C 
BRANCH  12  15
ATOM     15  C   UNL     1      48.200   3.260  18.194  0.00  0.00    +0.000 C 
ATOM     16  F   UNL     1      49.059   2.604  17.361  0.00  0.00    +0.000 F 
ATOM     17  F   UNL     1      48.281   2.612  19.390  0.00  0.00    +0.000 F 
ATOM     18  F   UNL     1      46.952   3.016  17.707  0.00  0.00    +0.000 F 
ENDBRANCH  12  15
ENDBRANCH   8   9
ENDBRANCH   6   8
ENDBRANCH   1   2
BRANCH   1  19
ATOM     19  C   UNL     1      43.798   5.362  10.817  0.00  0.00    +0.000 C 
BRANCH  19  20
ATOM     20  N   UNL     1      43.695   3.949  10.421  0.00  0.00    +0.000 N 
ATOM     21  H   UNL     1      43.641   3.300  11.199  0.00  0.00    +0.000 HD
BRANCH  20  25
ATOM     22  C   UNL     1      46.400   2.720   7.499  0.00  0.00    +0.000 A 
ATOM     23  C   UNL     1      45.962   1.771   8.409  0.00  0.00    +0.000 A 
ATOM     24  C   UNL     1      45.048   2.163   9.390  0.00  0.00    +0.000 A 
ATOM     25  C   UNL     1      44.565   3.471   9.430  0.00  0.00    +0.000 A 
ATOM     26  C   UNL     1      45.113   4.353   8.487  0.00  0.00    +0.000 A 
ATOM     27  N   UNL     1      46.001   4.019   7.515  0.00  0.00    +0.000 NA
BRANCH  22  29
ATOM     28  N   UNL     1      47.362   3.095   5.306  0.00  0.00    +0.000 N 
ATOM     29  C   UNL     1      47.375   2.323   6.435  0.00  0.00    +0.000 C 
ATOM     30  O   UNL     1      48.146   1.382   6.560  0.00  0.00    +0.000 OA
ATOM     31  H   UNL     1      48.027   2.906   4.569  0.00  0.00    +0.000 HD
ATOM     32  H   UNL     1      46.752   3.903   5.258  0.00  0.00    +0.000 HD
ENDBRANCH  22  29
ENDBRANCH  20  25
ENDBRANCH  19  20
ENDBRANCH   1  19
BRANCH   1  33
ATOM     33  C   UNL     1      44.254   4.220  13.085  0.00  0.00    +0.000 C 
BRANCH  33  34
ATOM     34  O   UNL     1      45.327   3.325  12.810  0.00  0.00    +0.000 OA
ATOM     35  H   UNL     1      44.971   2.424  12.733  0.00  0.00    +0.000 HD
ENDBRANCH  33  34
ENDBRANCH   1  33
TORSDOF 10
ENDMDL
MODEL 4
REMARK VINA RESULT:    -7.533      4.662      9.683
REMARK INTER + INTRA:         -12.628
REMARK INTER:                 -12.080
REMARK INTRA:                  -0.548
REMARK UNBOUND:                -0.911
REMARK  Name = 
REMARK  10 active torsions:
REMARK  status: ('A' for Active; 'I' for Inactive)
REMARK    1  A    between atoms: C_2  and  C_4
REMARK    2  A    between atoms: C_7  and  N_8
REMARK    3  A    between atoms: N_8  and  C_9
REMARK    4  A    between atoms: C_9  and  C_10
REMARK    5  A    between atoms: C_10  and  C_11
REMARK    6  A    between atoms: C_10  and  C_13
REMARK    7  A    between atoms: C_11  and  O_12
REMARK    8  A    between atoms: C_17  and  O_18
REMARK    9  A    between atoms: O_18  and  C_19
REMARK   10  A    between atoms: C_22  and  C_24
REMARK                            x       y       z     vdW  Elec       q    Type
REMARK                         _______ _______ _______ _____ _____    ______ ____
ROOT
ATOM      1  C   UNL     1      46.208   5.643  13.691  0.00  0.00    +0.000 C 
ENDROOT
BRANCH   1   2
ATOM      2  C   UNL     1      44.980   5.152  12.922  0.00  0.00    +0.000 A 
ATOM      3  C   UNL     1      43.804   5.912  12.847  0.00  0.00    +0.000 A 
ATOM      4  C   UNL     1      42.724   5.487  12.071  0.00  0.00    +0.000 A 
ATOM      5  C   UNL     1      42.791   4.287  11.360  0.00  0.00    +0.000 A 
ATOM      6  C   UNL     1      43.938   3.502  11.445  0.00  0.00    +0.000 A 
ATOM      7  C   UNL     1      45.026   3.938  12.213  0.00  0.00    +0.000 A 
BRANCH   6   8
ATOM      8  O   UNL     1      44.127   2.313  10.780  0.00  0.00    +0.000 OA
BRANCH   8   9
ATOM      9  C   UNL     1      44.291   2.325   9.342  0.00  0.00    +0.000 C 
ATOM     10  C   UNL     1      45.550   1.643   8.765  0.00  0.00    +0.000 C 
ATOM     11  N   UNL     1      45.818   2.873   8.057  0.00  0.00    +0.000 N 
ATOM     12  C   UNL     1      46.638   3.233   7.014  0.00  0.00    +0.000 C 
ATOM     13  O   UNL     1      46.653   4.400   6.616  0.00  0.00    +0.000 OA
ATOM     14  C   UNL     1      44.823   3.655   8.759  0.00  0.00    +0.000 C 
BRANCH  12  15
ATOM     15  C   UNL     1      47.487   2.122   6.358  0.00  0.00    +0.000 C 
ATOM     16  F   UNL     1      48.525   1.685   7.127  0.00  0.00    +0.000 F 
ATOM     17  F   UNL     1      46.742   1.015   6.081  0.00  0.00    +0.000 F 
ATOM     18  F   UNL     1      48.041   2.519   5.178  0.00  0.00    +0.000 F 
ENDBRANCH  12  15
ENDBRANCH   8   9
ENDBRANCH   6   8
ENDBRANCH   1   2
BRANCH   1  19
ATOM     19  C   UNL     1      47.240   4.498  13.821  0.00  0.00    +0.000 C 
BRANCH  19  20
ATOM     20  N   UNL     1      47.035   3.699  15.039  0.00  0.00    +0.000 N 
ATOM     21  H   UNL     1      46.082   3.376  15.172  0.00  0.00    +0.000 HD
BRANCH  20  25
ATOM     22  C   UNL     1      48.705   4.899  18.663  0.00  0.00    +0.000 A 
ATOM     23  C   UNL     1      48.868   5.738  17.572  0.00  0.00    +0.000 A 
ATOM     24  C   UNL     1      48.306   5.356  16.351  0.00  0.00    +0.000 A 
ATOM     25  C   UNL     1      47.573   4.174  16.243  0.00  0.00    +0.000 A 
ATOM     26  C   UNL     1      47.515   3.386  17.403  0.00  0.00    +0.000 A 
ATOM     27  N   UNL     1      48.042   3.715  18.610  0.00  0.00    +0.000 NA
BRANCH  22  29
ATOM     28  N   UNL     1      50.020   4.318  20.615  0.00  0.00    +0.000 N 
ATOM     29  C   UNL     1      49.293   5.290  19.983  0.00  0.00    +0.000 C 
ATOM     30  O   UNL     1      49.152   6.404  20.468  0.00  0.00    +0.000 OA
ATOM     31  H   UNL     1      50.480   4.533  21.488  0.00  0.00    +0.000 HD
ATOM     32  H   UNL     1      50.166   3.425  20.159  0.00  0.00    +0.000 HD
ENDBRANCH  22  29
ENDBRANCH  20  25
ENDBRANCH  19  20
ENDBRANCH   1  19
BRANCH   1  33
ATOM     33  C   UNL     1      46.803   6.935  13.094  0.00  0.00    +0.000 C 
BRANCH  33  34
ATOM     34  O   UNL     1      47.112   7.929  14.066  0.00  0.00    +0.000 OA
ATOM     35  H   UNL     1      48.063   7.890  14.262  0.00  0.00    +0.000 HD
ENDBRANCH  33  34
ENDBRANCH   1  33
TORSDOF 10
ENDMDL
MODEL 5
REMARK VINA RESULT:    -6.816      5.611      8.479
REMARK INTER + INTRA:         -11.512
REMARK INTER:                 -10.589
REMARK INTRA:                  -0.923
REMARK UNBOUND:                -0.911
REMARK  Name = 
REMARK  10 active torsions:
REMARK  status: ('A' for Active; 'I' for Inactive)
REMARK    1  A    between atoms: C_2  and  C_4
REMARK    2  A    between atoms: C_7  and  N_8
REMARK    3  A    between atoms: N_8  and  C_9
REMARK    4  A    between atoms: C_9  and  C_10
REMARK    5  A    between atoms: C_10  and  C_11
REMARK    6  A    between atoms: C_10  and  C_13
REMARK    7  A    between atoms: C_11  and  O_12
REMARK    8  A    between atoms: C_17  and  O_18
REMARK    9  A    between atoms: O_18  and  C_19
REMARK   10  A    between atoms: C_22  and  C_24
REMARK                            x       y       z     vdW  Elec       q    Type
REMARK                         _______ _______ _______ _____ _____    ______ ____
ROOT
ATOM      1  C   UNL     1      45.374   7.504  12.703  0.00  0.00    +0.000 C 
ENDROOT
BRANCH   1   2
ATOM      2  C   UNL     1      45.602   5.994  12.606  0.00  0.00    +0.000 A 
ATOM      3  C   UNL     1      46.633   5.359  13.312  0.00  0.00    +0.000 A 
ATOM      4  C   UNL     1      46.775   3.969  13.279  0.00  0.00    +0.000 A 
ATOM      5  C   UNL     1      45.895   3.186  12.528  0.00  0.00    +0.000 A 
ATOM      6  C   UNL     1      44.882   3.800  11.796  0.00  0.00    +0.000 A 
ATOM      7  C   UNL     1      44.734   5.193  11.844  0.00  0.00    +0.000 A 
BRANCH   6   8
ATOM      8  O   UNL     1      43.948   3.136  11.036  0.00  0.00    +0.000 OA
BRANCH   8   9
ATOM      9  C   UNL     1      44.150   3.022   9.608  0.00  0.00    +0.000 C 
ATOM     10  C   UNL     1      45.256   2.061   9.121  0.00  0.00    +0.000 C 
ATOM     11  N   UNL     1      45.791   3.162   8.354  0.00  0.00    +0.000 N 
ATOM     12  C   UNL     1      46.695   3.279   7.326  0.00  0.00    +0.000 C 
ATOM     13  O   UNL     1      46.962   4.391   6.862  0.00  0.00    +0.000 OA
ATOM     14  C   UNL     1      44.960   4.174   8.971  0.00  0.00    +0.000 C 
BRANCH  12  15
ATOM     15  C   UNL     1      47.314   1.979   6.768  0.00  0.00    +0.000 C 
ATOM     16  F   UNL     1      46.400   1.012   6.466  0.00  0.00    +0.000 F 
ATOM     17  F   UNL     1      48.006   2.203   5.616  0.00  0.00    +0.000 F 
ATOM     18  F   UNL     1      48.189   1.403   7.639  0.00  0.00    +0.000 F 
ENDBRANCH  12  15
ENDBRANCH   8   9
ENDBRANCH   6   8
ENDBRANCH   1   2
BRANCH   1  19
ATOM     19  C   UNL     1      46.664   8.200  13.200  0.00  0.00    +0.000 C 
BRANCH  19  20
ATOM     20  N   UNL     1      47.179   9.176  12.227  0.00  0.00    +0.000 N 
ATOM     21  H   UNL     1      46.590   9.304  11.411  0.00  0.00    +0.000 HD
BRANCH  20  25
ATOM     22  C   UNL     1      51.146   8.753  11.019  0.00  0.00    +0.000 A 
ATOM     23  C   UNL     1      50.605  10.029  11.013  0.00  0.00    +0.000 A 
ATOM     24  C   UNL     1      49.280  10.191  11.424  0.00  0.00    +0.000 A 
ATOM     25  C   UNL     1      48.530   9.097  11.859  0.00  0.00    +0.000 A 
ATOM     26  C   UNL     1      49.169   7.850  11.778  0.00  0.00    +0.000 A 
ATOM     27  N   UNL     1      50.454   7.643  11.389  0.00  0.00    +0.000 NA
BRANCH  22  29
ATOM     28  N   UNL     1      52.981   9.342   9.549  0.00  0.00    +0.000 N 
ATOM     29  C   UNL     1      52.565   8.555  10.589  0.00  0.00    +0.000 C 
ATOM     30  O   UNL     1      53.318   7.758  11.131  0.00  0.00    +0.000 OA
ATOM     31  H   UNL     1      53.942   9.288   9.241  0.00  0.00    +0.000 HD
ATOM     32  H   UNL     1      52.351  10.034   9.162  0.00  0.00    +0.000 HD
ENDBRANCH  22  29
ENDBRANCH  20  25
ENDBRANCH  19  20
ENDBRANCH   1  19
BRANCH   1  33
ATOM     33  C   UNL     1      44.824   8.106  11.394  0.00  0.00    +0.000 C 
BRANCH  33  34
ATOM     34  O   UNL     1      44.049   9.286  11.584  0.00  0.00    +0.000 OA
ATOM     35  H   UNL     1      44.266   9.666  12.452  0.00  0.00    +0.000 HD
ENDBRANCH  33  34
ENDBRANCH   1  33
TORSDOF 10
ENDMDL
MODEL 6
REMARK VINA RESULT:    -6.664      4.341      8.630
REMARK INTER + INTRA:         -11.276
REMARK INTER:                  -9.938
REMARK INTRA:                  -1.338
REMARK UNBOUND:                -0.911
REMARK  Name = 
REMARK  10 active torsions:
REMARK  status: ('A' for Active; 'I' for Inactive)
REMARK    1  A    between atoms: C_2  and  C_4
REMARK    2  A    between atoms: C_7  and  N_8
REMARK    3  A    between atoms: N_8  and  C_9
REMARK    4  A    between atoms: C_9  and  C_10
REMARK    5  A    between atoms: C_10  and  C_11
REMARK    6  A    between atoms: C_10  and  C_13
REMARK    7  A    between atoms: C_11  and  O_12
REMARK    8  A    between atoms: C_17  and  O_18
REMARK    9  A    between atoms: O_18  and  C_19
REMARK   10  A    between atoms: C_22  and  C_24
REMARK                            x       y       z     vdW  Elec       q    Type
REMARK                         _______ _______ _______ _____ _____    ______ ____
ROOT
ATOM      1  C   UNL     1      48.195   9.454  16.912  0.00  0.00    +0.000 C 
ENDROOT
BRANCH   1   2
ATOM      2  C   UNL     1      48.674   8.899  15.568  0.00  0.00    +0.000 A 
ATOM      3  C   UNL     1      50.012   8.539  15.355  0.00  0.00    +0.000 A 
ATOM      4  C   UNL     1      50.415   7.955  14.152  0.00  0.00    +0.000 A 
ATOM      5  C   UNL     1      49.490   7.730  13.130  0.00  0.00    +0.000 A 
ATOM      6  C   UNL     1      48.162   8.109  13.310  0.00  0.00    +0.000 A 
ATOM      7  C   UNL     1      47.758   8.681  14.524  0.00  0.00    +0.000 A 
BRANCH   6   8
ATOM      8  O   UNL     1      47.160   7.924  12.386  0.00  0.00    +0.000 OA
BRANCH   8   9
ATOM      9  C   UNL     1      46.059   7.041  12.705  0.00  0.00    +0.000 C 
ATOM     10  C   UNL     1      46.210   5.552  12.328  0.00  0.00    +0.000 C 
ATOM     11  N   UNL     1      44.945   5.660  11.639  0.00  0.00    +0.000 N 
ATOM     12  C   UNL     1      44.033   4.762  11.139  0.00  0.00    +0.000 C 
ATOM     13  O   UNL     1      43.011   5.168  10.580  0.00  0.00    +0.000 OA
ATOM     14  C   UNL     1      44.869   7.104  11.721  0.00  0.00    +0.000 C 
BRANCH  12  15
ATOM     15  C   UNL     1      44.325   3.260  11.343  0.00  0.00    +0.000 C 
ATOM     16  F   UNL     1      44.821   2.951  12.575  0.00  0.00    +0.000 F 
ATOM     17  F   UNL     1      43.201   2.503  11.198  0.00  0.00    +0.000 F 
ATOM     18  F   UNL     1      45.231   2.779  10.447  0.00  0.00    +0.000 F 
ENDBRANCH  12  15
ENDBRANCH   8   9
ENDBRANCH   6   8
ENDBRANCH   1   2
BRANCH   1  19
ATOM     19  C   UNL     1      48.618   8.501  18.055  0.00  0.00    +0.000 C 
BRANCH  19  20
ATOM     20  N   UNL     1      47.794   7.283  18.097  0.00  0.00    +0.000 N 
ATOM     21  H   UNL     1      47.159   7.234  18.887  0.00  0.00    +0.000 HD
BRANCH  20  25
ATOM     22  C   UNL     1      49.510   3.568  17.307  0.00  0.00    +0.000 A 
ATOM     23  C   UNL     1      50.364   4.637  17.528  0.00  0.00    +0.000 A 
ATOM     24  C   UNL     1      49.806   5.887  17.804  0.00  0.00    +0.000 A 
ATOM     25  C   UNL     1      48.423   6.048  17.885  0.00  0.00    +0.000 A 
ATOM     26  C   UNL     1      47.660   4.906  17.597  0.00  0.00    +0.000 A 
ATOM     27  N   UNL     1      48.155   3.671  17.327  0.00  0.00    +0.000 NA
BRANCH  22  29
ATOM     28  N   UNL     1      50.990   1.752  17.929  0.00  0.00    +0.000 N 
ATOM     29  C   UNL     1      50.083   2.217  17.015  0.00  0.00    +0.000 C 
ATOM     30  O   UNL     1      49.762   1.557  16.037  0.00  0.00    +0.000 OA
ATOM     31  H   UNL     1      51.380   0.827  17.813  0.00  0.00    +0.000 HD
ATOM     32  H   UNL     1      51.190   2.298  18.759  0.00  0.00    +0.000 HD
ENDBRANCH  22  29
ENDBRANCH  20  25
ENDBRANCH  19  20
ENDBRANCH   1  19
BRANCH   1  33
ATOM     33  C   UNL     1      48.638  10.914  17.141  0.00  0.00    +0.000 C 
BRANCH  33  34
ATOM     34  O   UNL     1      49.390  11.105  18.336  0.00  0.00    +0.000 OA
ATOM     35  H   UNL     1      49.693  10.239  18.657  0.00  0.00    +0.000 HD
ENDBRANCH  33  34
ENDBRANCH   1  33
TORSDOF 10
ENDMDL
MODEL 7
REMARK VINA RESULT:    -6.620      4.631      8.649
REMARK INTER + INTRA:         -11.208
REMARK INTER:                  -9.668
REMARK INTRA:                  -1.540
REMARK UNBOUND:                -0.911
REMARK  Name = 
REMARK  10 active torsions:
REMARK  status: ('A' for Active; 'I' for Inactive)
REMARK    1  A    between atoms: C_2  and  C_4
REMARK    2  A    between atoms: C_7  and  N_8
REMARK    3  A    between atoms: N_8  and  C_9
REMARK    4  A    between atoms: C_9  and  C_10
REMARK    5  A    between atoms: C_10  and  C_11
REMARK    6  A    between atoms: C_10  and  C_13
REMARK    7  A    between atoms: C_11  and  O_12
REMARK    8  A    between atoms: C_17  and  O_18
REMARK    9  A    between atoms: O_18  and  C_19
REMARK   10  A    between atoms: C_22  and  C_24
REMARK                            x       y       z     vdW  Elec       q    Type
REMARK                         _______ _______ _______ _____ _____    ______ ____
ROOT
ATOM      1  C   UNL     1      49.532  10.294  15.675  0.00  0.00    +0.000 C 
ENDROOT
BRANCH   1   2
ATOM      2  C   UNL     1      49.247   9.770  14.266  0.00  0.00    +0.000 A 
ATOM      3  C   UNL     1      50.222   9.797  13.259  0.00  0.00    +0.000 A 
ATOM      4  C   UNL     1      49.973   9.236  12.005  0.00  0.00    +0.000 A 
ATOM      5  C   UNL     1      48.738   8.647  11.725  0.00  0.00    +0.000 A 
ATOM      6  C   UNL     1      47.745   8.636  12.702  0.00  0.00    +0.000 A 
ATOM      7  C   UNL     1      48.004   9.186  13.965  0.00  0.00    +0.000 A 
BRANCH   6   8
ATOM      8  O   UNL     1      46.500   8.073  12.551  0.00  0.00    +0.000 OA
BRANCH   8   9
ATOM      9  C   UNL     1      46.373   6.821  11.836  0.00  0.00    +0.000 C 
ATOM     10  C   UNL     1      44.946   6.302  11.559  0.00  0.00    +0.000 C 
ATOM     11  N   UNL     1      45.346   5.054  12.165  0.00  0.00    +0.000 N 
ATOM     12  C   UNL     1      44.830   3.781  12.195  0.00  0.00    +0.000 C 
ATOM     13  O   UNL     1      45.415   2.893  12.821  0.00  0.00    +0.000 OA
ATOM     14  C   UNL     1      46.597   5.555  12.694  0.00  0.00    +0.000 C 
BRANCH  12  15
ATOM     15  C   UNL     1      43.538   3.516  11.393  0.00  0.00    +0.000 C 
ATOM     16  F   UNL     1      42.532   4.402  11.647  0.00  0.00    +0.000 F 
ATOM     17  F   UNL     1      43.755   3.581  10.049  0.00  0.00    +0.000 F 
ATOM     18  F   UNL     1      43.015   2.282  11.640  0.00  0.00    +0.000 F 
ENDBRANCH  12  15
ENDBRANCH   8   9
ENDBRANCH   6   8
ENDBRANCH   1   2
BRANCH   1  19
ATOM     19  C   UNL     1      48.519   9.690  16.676  0.00  0.00    +0.000 C 
BRANCH  19  20
ATOM     20  N   UNL     1      49.144   8.706  17.574  0.00  0.00    +0.000 N 
ATOM     21  H   UNL     1      50.158   8.747  17.599  0.00  0.00    +0.000 HD
BRANCH  20  25
ATOM     22  C   UNL     1      48.024   4.700  17.312  0.00  0.00    +0.000 A 
ATOM     23  C   UNL     1      47.657   5.396  18.453  0.00  0.00    +0.000 A 
ATOM     24  C   UNL     1      48.016   6.743  18.554  0.00  0.00    +0.000 A 
ATOM     25  C   UNL     1      48.700   7.377  17.516  0.00  0.00    +0.000 A 
ATOM     26  C   UNL     1      49.055   6.559  16.432  0.00  0.00    +0.000 A 
ATOM     27  N   UNL     1      48.728   5.249  16.288  0.00  0.00    +0.000 NA
BRANCH  22  29
ATOM     28  N   UNL     1      48.623   2.435  16.689  0.00  0.00    +0.000 N 
ATOM     29  C   UNL     1      47.645   3.259  17.179  0.00  0.00    +0.000 C 
ATOM     30  O   UNL     1      46.545   2.829  17.496  0.00  0.00    +0.000 OA
ATOM     31  H   UNL     1      48.445   1.443  16.618  0.00  0.00    +0.000 HD
ATOM     32  H   UNL     1      49.543   2.812  16.492  0.00  0.00    +0.000 HD
ENDBRANCH  22  29
ENDBRANCH  20  25
ENDBRANCH  19  20
ENDBRANCH   1  19
BRANCH   1  33
ATOM     33  C   UNL     1      51.001  10.089  16.098  0.00  0.00    +0.000 C 
BRANCH  33  34
ATOM     34  O   UNL     1      51.357  10.776  17.294  0.00  0.00    +0.000 OA
ATOM     35  H   UNL     1      52.187  10.402  17.635  0.00  0.00    +0.000 HD
ENDBRANCH  33  34
ENDBRANCH   1  33
TORSDOF 10
ENDMDL
MODEL 8
REMARK VINA RESULT:    -6.503      3.017      4.688
REMARK INTER + INTRA:         -11.025
REMARK INTER:                 -10.330
REMARK INTRA:                  -0.696
REMARK UNBOUND:                -0.911
REMARK  Name = 
REMARK  10 active torsions:
REMARK  status: ('A' for Active; 'I' for Inactive)
REMARK    1  A    between atoms: C_2  and  C_4
REMARK    2  A    between atoms: C_7  and  N_8
REMARK    3  A    between atoms: N_8  and  C_9
REMARK    4  A    between atoms: C_9  and  C_10
REMARK    5  A    between atoms: C_10  and  C_11
REMARK    6  A    between atoms: C_10  and  C_13
REMARK    7  A    between atoms: C_11  and  O_12
REMARK    8  A    between atoms: C_17  and  O_18
REMARK    9  A    between atoms: O_18  and  C_19
REMARK   10  A    between atoms: C_22  and  C_24
REMARK                            x       y       z     vdW  Elec       q    Type
REMARK                         _______ _______ _______ _____ _____    ______ ____
ROOT
ATOM      1  C   UNL     1      46.920   9.464  11.961  0.00  0.00    +0.000 C 
ENDROOT
BRANCH   1   2
ATOM      2  C   UNL     1      48.385   9.202  12.314  0.00  0.00    +0.000 A 
ATOM      3  C   UNL     1      49.433   9.697  11.525  0.00  0.00    +0.000 A 
ATOM      4  C   UNL     1      50.764   9.521  11.907  0.00  0.00    +0.000 A 
ATOM      5  C   UNL     1      51.078   8.836  13.083  0.00  0.00    +0.000 A 
ATOM      6  C   UNL     1      50.054   8.310  13.867  0.00  0.00    +0.000 A 
ATOM      7  C   UNL     1      48.718   8.502  13.487  0.00  0.00    +0.000 A 
BRANCH   6   8
ATOM      8  O   UNL     1      50.237   7.634  15.049  0.00  0.00    +0.000 OA
BRANCH   8   9
ATOM      9  C   UNL     1      49.086   7.092  15.739  0.00  0.00    +0.000 C 
ATOM     10  C   UNL     1      49.327   5.912  16.706  0.00  0.00    +0.000 C 
ATOM     11  N   UNL     1      48.300   5.193  15.989  0.00  0.00    +0.000 N 
ATOM     12  C   UNL     1      47.556   4.064  16.234  0.00  0.00    +0.000 C 
ATOM     13  O   UNL     1      46.728   3.679  15.404  0.00  0.00    +0.000 OA
ATOM     14  C   UNL     1      48.211   6.137  14.895  0.00  0.00    +0.000 C 
BRANCH  12  15
ATOM     15  C   UNL     1      47.774   3.345  17.583  0.00  0.00    +0.000 C 
ATOM     16  F   UNL     1      48.962   2.681  17.675  0.00  0.00    +0.000 F 
ATOM     17  F   UNL     1      47.758   4.218  18.629  0.00  0.00    +0.000 F 
ATOM     18  F   UNL     1      46.810   2.417  17.840  0.00  0.00    +0.000 F 
ENDBRANCH  12  15
ENDBRANCH   8   9
ENDBRANCH   6   8
ENDBRANCH   1   2
BRANCH   1  19
ATOM     19  C   UNL     1      45.999   8.774  12.995  0.00  0.00    +0.000 C 
BRANCH  19  20
ATOM     20  N   UNL     1      44.729   8.328  12.399  0.00  0.00    +0.000 N 
ATOM     21  H   UNL     1      43.901   8.670  12.874  0.00  0.00    +0.000 HD
BRANCH  20  25
ATOM     22  C   UNL     1      44.238   4.362  11.215  0.00  0.00    +0.000 A 
ATOM     23  C   UNL     1      45.384   4.683  11.926  0.00  0.00    +0.000 A 
ATOM     24  C   UNL     1      45.560   6.006  12.340  0.00  0.00    +0.000 A 
ATOM     25  C   UNL     1      44.591   6.972  12.069  0.00  0.00    +0.000 A 
ATOM     26  C   UNL     1      43.497   6.539  11.304  0.00  0.00    +0.000 A 
ATOM     27  N   UNL     1      43.281   5.267  10.882  0.00  0.00    +0.000 NA
BRANCH  22  29
ATOM     28  N   UNL     1      43.422   2.127  11.679  0.00  0.00    +0.000 N 
ATOM     29  C   UNL     1      44.024   2.951  10.767  0.00  0.00    +0.000 C 
ATOM     30  O   UNL     1      44.348   2.550   9.657  0.00  0.00    +0.000 OA
ATOM     31  H   UNL     1      43.208   1.175  11.421  0.00  0.00    +0.000 HD
ATOM     32  H   UNL     1      43.112   2.505  12.567  0.00  0.00    +0.000 HD
ENDBRANCH  22  29
ENDBRANCH  20  25
ENDBRANCH  19  20
ENDBRANCH   1  19
BRANCH   1  33
ATOM     33  C   UNL     1      46.613  10.965  11.779  0.00  0.00    +0.000 C 
BRANCH  33  34
ATOM     34  O   UNL     1      45.317  11.346  12.231  0.00  0.00    +0.000 OA
ATOM     35  H   UNL     1      45.201  11.037  13.145  0.00  0.00    +0.000 HD
ENDBRANCH  33  34
ENDBRANCH   1  33
TORSDOF 10
ENDMDL
MODEL 9
REMARK VINA RESULT:    -6.163      4.405      8.314
REMARK INTER + INTRA:         -10.496
REMARK INTER:                  -9.031
REMARK INTRA:                  -1.465
REMARK UNBOUND:                -0.911
REMARK  Name = 
REMARK  10 active torsions:
REMARK  status: ('A' for Active; 'I' for Inactive)
REMARK    1  A    between atoms: C_2  and  C_4
REMARK    2  A    between atoms: C_7  and  N_8
REMARK    3  A    between atoms: N_8  and  C_9
REMARK    4  A    between atoms: C_9  and  C_10
REMARK    5  A    between atoms: C_10  and  C_11
REMARK    6  A    between atoms: C_10  and  C_13
REMARK    7  A    between atoms: C_11  and  O_12
REMARK    8  A    between atoms: C_17  and  O_18
REMARK    9  A    between atoms: O_18  and  C_19
REMARK   10  A    between atoms: C_22  and  C_24
REMARK                            x       y       z     vdW  Elec       q    Type
REMARK                         _______ _______ _______ _____ _____    ______ ____
ROOT
ATOM      1  C   UNL     1      49.360   5.921  19.003  0.00  0.00    +0.000 C 
ENDROOT
BRANCH   1   2
ATOM      2  C   UNL     1      49.043   4.788  18.025  0.00  0.00    +0.000 A 
ATOM      3  C   UNL     1      49.821   3.623  17.970  0.00  0.00    +0.000 A 
ATOM      4  C   UNL     1      49.467   2.563  17.131  0.00  0.00    +0.000 A 
ATOM      5  C   UNL     1      48.333   2.650  16.321  0.00  0.00    +0.000 A 
ATOM      6  C   UNL     1      47.563   3.810  16.338  0.00  0.00    +0.000 A 
ATOM      7  C   UNL     1      47.913   4.866  17.192  0.00  0.00    +0.000 A 
BRANCH   6   8
ATOM      8  O   UNL     1      46.420   4.005  15.601  0.00  0.00    +0.000 OA
BRANCH   8   9
ATOM      9  C   UNL     1      46.533   4.393  14.211  0.00  0.00    +0.000 C 
ATOM     10  C   UNL     1      45.283   5.000  13.538  0.00  0.00    +0.000 C 
ATOM     11  N   UNL     1      45.435   4.009  12.499  0.00  0.00    +0.000 N 
ATOM     12  C   UNL     1      44.926   3.846  11.233  0.00  0.00    +0.000 C 
ATOM     13  O   UNL     1      45.248   2.863  10.561  0.00  0.00    +0.000 OA
ATOM     14  C   UNL     1      46.432   3.229  13.200  0.00  0.00    +0.000 C 
BRANCH  12  15
ATOM     15  C   UNL     1      43.986   4.946  10.694  0.00  0.00    +0.000 C 
ATOM     16  F   UNL     1      42.838   5.100  11.413  0.00  0.00    +0.000 F 
ATOM     17  F   UNL     1      44.588   6.169  10.696  0.00  0.00    +0.000 F 
ATOM     18  F   UNL     1      43.592   4.712   9.411  0.00  0.00    +0.000 F 
ENDBRANCH  12  15
ENDBRANCH   8   9
ENDBRANCH   6   8
ENDBRANCH   1   2
BRANCH   1  19
ATOM     19  C   UNL     1      48.614   7.208  18.577  0.00  0.00    +0.000 C 
BRANCH  19  20
ATOM     20  N   UNL     1      49.463   8.103  17.775  0.00  0.00    +0.000 N 
ATOM     21  H   UNL     1      49.550   9.043  18.148  0.00  0.00    +0.000 HD
BRANCH  20  25
ATOM     22  C   UNL     1      48.884   8.419  13.660  0.00  0.00    +0.000 A 
ATOM     23  C   UNL     1      49.803   7.485  14.110  0.00  0.00    +0.000 A 
ATOM     24  C   UNL     1      50.003   7.358  15.486  0.00  0.00    +0.000 A 
ATOM     25  C   UNL     1      49.271   8.133  16.386  0.00  0.00    +0.000 A 
ATOM     26  C   UNL     1      48.403   9.075  15.813  0.00  0.00    +0.000 A 
ATOM     27  N   UNL     1      48.174   9.233  14.484  0.00  0.00    +0.000 NA
BRANCH  22  29
ATOM     28  N   UNL     1      48.046   9.736  11.805  0.00  0.00    +0.000 N 
ATOM     29  C   UNL     1      48.648   8.569  12.190  0.00  0.00    +0.000 C 
ATOM     30  O   UNL     1      48.978   7.719  11.375  0.00  0.00    +0.000 OA
ATOM     31  H   UNL     1      47.900   9.918  10.822  0.00  0.00    +0.000 HD
ATOM     32  H   UNL     1      47.839  10.445  12.499  0.00  0.00    +0.000 HD
ENDBRANCH  22  29
ENDBRANCH  20  25
ENDBRANCH  19  20
ENDBRANCH   1  19
BRANCH   1  33
ATOM     33  C   UNL     1      49.101   5.526  20.472  0.00  0.00    +0.000 C 
BRANCH  33  34
ATOM     34  O   UNL     1      47.905   4.777  20.664  0.00  0.00    +0.000 OA
ATOM     35  H   UNL     1      47.192   5.387  20.920  0.00  0.00    +0.000 HD
ENDBRANCH  33  34
ENDBRANCH   1  33
TORSDOF 10
ENDMDL
