MODEL 1
REMARK VINA RESULT:    -8.537      0.000      0.000
REMARK INTER + INTRA:         -11.276
REMARK INTER:                 -10.534
REMARK INTRA:                  -0.743
REMARK UNBOUND:                -0.743
REMARK  Name = 
REMARK  4 active torsions:
REMARK  status: ('A' for Active; 'I' for Inactive)
REMARK    1  A    between atoms: C_2  and  C_4
REMARK    2  A    between atoms: C_7  and  N_8
REMARK    3  A    between atoms: N_8  and  C_9
REMARK    4  A    between atoms: C_9  and  C_10
REMARK                            x       y       z     vdW  Elec       q    Type
REMARK                         _______ _______ _______ _____ _____    ______ ____
ROOT
ATOM      1  N   UNL     1      43.974   4.924  10.084  0.00  0.00    +0.000 N 
ATOM      2  H   UNL     1      43.169   5.325   9.608  0.00  0.00    +0.000 HD
ENDROOT
BRANCH   1   6
ATOM      3  C   UNL     1      46.388   2.334   7.772  0.00  0.00    +0.000 A 
ATOM      4  C   UNL     1      45.470   1.800   8.672  0.00  0.00    +0.000 A 
ATOM      5  C   UNL     1      44.651   2.648   9.428  0.00  0.00    +0.000 A 
ATOM      6  C   UNL     1      44.705   4.041   9.285  0.00  0.00    +0.000 A 
ATOM      7  C   UNL     1      45.652   4.562   8.391  0.00  0.00    +0.000 A 
ATOM      8  C   UNL     1      46.489   3.723   7.642  0.00  0.00    +0.000 A 
BRANCH   3  10
ATOM      9  N   UNL     1      48.322   2.078   6.313  0.00  0.00    +0.000 N 
ATOM     10  C   UNL     1      47.295   1.465   6.980  0.00  0.00    +0.000 C 
ATOM     11  O   UNL     1      47.158   0.249   6.942  0.00  0.00    +0.000 OA
ATOM     12  H   UNL     1      48.990   1.468   5.859  0.00  0.00    +0.000 HD
ATOM     13  H   UNL     1      48.614   3.023   6.516  0.00  0.00    +0.000 HD
ENDBRANCH   3  10
ENDBRANCH   1   6
BRANCH   1  14
ATOM     14  C   UNL     1      43.750   4.618  11.489  0.00  0.00    +0.000 C 
BRANCH  14  15
ATOM     15  C   UNL     1      45.025   4.726  12.280  0.00  0.00    +0.000 A 
ATOM     16  C   UNL     1      45.621   3.613  12.862  0.00  0.00    +0.000 A 
ATOM     17  C   UNL     1      46.816   3.792  13.535  0.00  0.00    +0.000 A 
ATOM     18  N   UNL     1      47.444   4.983  13.664  0.00  0.00    +0.000 NA
ATOM     19  C   UNL     1      46.889   6.065  13.080  0.00  0.00    +0.000 A 
ATOM     20  N   UNL     1      47.488   7.293  13.222  0.00  0.00    +0.000 N 
ATOM     21  C   UNL     1      48.453   7.538  14.293  0.00  0.00    +0.000 C 
ATOM     22  C   UNL     1      48.214   8.978  14.793  0.00  0.00    +0.000 C 
ATOM     23  O   UNL     1      48.310   9.946  13.726  0.00  0.00    +0.000 OA
ATOM     24  C   UNL     1      47.368   9.647  12.678  0.00  0.00    +0.000 C 
ATOM     25  C   UNL     1      47.595   8.240  12.111  0.00  0.00    +0.000 C 
ATOM     26  C   UNL     1      45.679   5.957  12.397  0.00  0.00    +0.000 A 
ENDBRANCH  14  15
ENDBRANCH   1  14
TORSDOF 4
ENDMDL
MODEL 2
REMARK VINA RESULT:    -7.260      1.492      2.447
REMARK INTER + INTRA:          -9.700
REMARK INTER:                  -9.226
REMARK INTRA:                  -0.474
REMARK UNBOUND:                -0.743
REMARK  Name = 
REMARK  4 active torsions:
REMARK  status: ('A' for Active; 'I' for Inactive)
REMARK    1  A    between atoms: C_2  and  C_4
REMARK    2  A    between atoms: C_7  and  N_8
REMARK    3  A    between atoms: N_8  and  C_9
REMARK    4  A    between atoms: C_9  and  C_10
REMARK                            x       y       z     vdW  Elec       q    Type
REMARK                         _______ _______ _______ _____ _____    ______ ____
ROOT
ATOM      1  N   UNL     1      44.049   5.169  10.163  0.00  0.00    +0.000 N 
ATOM      2  H   UNL     1      43.053   5.231   9.964  0.00  0.00    +0.000 HD
ENDROOT
BRANCH   1   6
ATOM      3  C   UNL     1      46.213   2.198   8.072  0.00  0.00    +0.000 A 
ATOM      4  C   UNL     1      45.292   1.823   9.047  0.00  0.00    +0.000 A 
ATOM      5  C   UNL     1      44.554   2.797   9.731  0.00  0.00    +0.000 A 
ATOM      6  C   UNL     1      44.694   4.161   9.442  0.00  0.00    +0.000 A 
ATOM      7  C   UNL     1      45.643   4.522   8.474  0.00  0.00    +0.000 A 
ATOM      8  C   UNL     1      46.399   3.555   7.795  0.00  0.00    +0.000 A 
BRANCH   3  10
ATOM      9  N   UNL     1      47.991   1.667   6.494  0.00  0.00    +0.000 N 
ATOM     10  C   UNL     1      47.034   1.193   7.352  0.00  0.00    +0.000 C 
ATOM     11  O   UNL     1      46.894  -0.010   7.533  0.00  0.00    +0.000 OA
ATOM     12  H   UNL     1      48.609   0.978   6.085  0.00  0.00    +0.000 HD
ATOM     13  H   UNL     1      48.302   2.628   6.505  0.00  0.00    +0.000 HD
ENDBRANCH   3  10
ENDBRANCH   1   6
BRANCH   1  14
ATOM     14  C   UNL     1      44.400   5.406  11.555  0.00  0.00    +0.000 C 
BRANCH  14  15
ATOM     15  C   UNL     1      44.958   6.789  11.748  0.00  0.00    +0.000 A 
ATOM     16  C   UNL     1      44.282   7.920  11.302  0.00  0.00    +0.000 A 
ATOM     17  C   UNL     1      44.844   9.157  11.559  0.00  0.00    +0.000 A 
ATOM     18  N   UNL     1      46.012   9.340  12.217  0.00  0.00    +0.000 NA
ATOM     19  C   UNL     1      46.663   8.252  12.677  0.00  0.00    +0.000 A 
ATOM     20  N   UNL     1      47.867   8.405  13.320  0.00  0.00    +0.000 N 
ATOM     21  C   UNL     1      48.648   9.632  13.167  0.00  0.00    +0.000 C 
ATOM     22  C   UNL     1      50.134   9.218  13.122  0.00  0.00    +0.000 C 
ATOM     23  O   UNL     1      50.519   8.454  14.286  0.00  0.00    +0.000 OA
ATOM     24  C   UNL     1      49.702   7.274  14.417  0.00  0.00    +0.000 C 
ATOM     25  C   UNL     1      48.215   7.636  14.516  0.00  0.00    +0.000 C 
ATOM     26  C   UNL     1      46.159   6.974  12.442  0.00  0.00    +0.000 A 
ENDBRANCH  14  15
ENDBRANCH   1  14
TORSDOF 4
ENDMDL
MODEL 3
REMARK VINA RESULT:    -7.103      2.103      6.993
REMARK INTER + INTRA:          -9.507
REMARK INTER:                  -8.929
REMARK INTRA:                  -0.578
REMARK UNBOUND:                -0.743
REMARK  Name = 
REMARK  4 active torsions:
REMARK  status: ('A' for Active; 'I' for Inactive)
REMARK    1  A    between atoms: C_2  and  C_4
REMARK    2  A    between atoms: C_7  and  N_8
REMARK    3  A    between atoms: N_8  and  C_9
REMARK    4  A    between atoms: C_9  and  C_10
REMARK                            x       y       z     vdW  Elec       q    Type
REMARK                         _______ _______ _______ _____ _____    ______ ____
ROOT
ATOM      1  N   UNL     1      46.331   6.319  13.552  0.00  0.00    +0.000 N 
ATOM      2  H   UNL     1      46.176   6.379  14.556  0.00  0.00    +0.000 HD
ENDROOT
BRANCH   1   6
ATOM      3  C   UNL     1      50.063   7.913  12.363  0.00  0.00    +0.000 A 
ATOM      4  C   UNL     1      49.047   7.761  11.423  0.00  0.00    +0.000 A 
ATOM      5  C   UNL     1      47.800   7.253  11.810  0.00  0.00    +0.000 A 
ATOM      6  C   UNL     1      47.526   6.914  13.142  0.00  0.00    +0.000 A 
ATOM      7  C   UNL     1      48.568   7.052  14.070  0.00  0.00    +0.000 A 
ATOM      8  C   UNL     1      49.826   7.543  13.691  0.00  0.00    +0.000 A 
BRANCH   3  10
ATOM      9  N   UNL     1      52.454   8.082  12.797  0.00  0.00    +0.000 N 
ATOM     10  C   UNL     1      51.406   8.416  11.981  0.00  0.00    +0.000 C 
ATOM     11  O   UNL     1      51.587   9.076  10.966  0.00  0.00    +0.000 OA
ATOM     12  H   UNL     1      53.376   8.346  12.475  0.00  0.00    +0.000 HD
ATOM     13  H   UNL     1      52.391   7.348  13.488  0.00  0.00    +0.000 HD
ENDBRANCH   3  10
ENDBRANCH   1   6
BRANCH   1  14
ATOM     14  C   UNL     1      45.128   6.474  12.748  0.00  0.00    +0.000 C 
BRANCH  14  15
ATOM     15  C   UNL     1      44.677   5.154  12.185  0.00  0.00    +0.000 A 
ATOM     16  C   UNL     1      43.759   4.350  12.851  0.00  0.00    +0.000 A 
ATOM     17  C   UNL     1      43.364   3.172  12.242  0.00  0.00    +0.000 A 
ATOM     18  N   UNL     1      43.814   2.751  11.038  0.00  0.00    +0.000 NA
ATOM     19  C   UNL     1      44.684   3.536  10.370  0.00  0.00    +0.000 A 
ATOM     20  N   UNL     1      45.183   3.118   9.162  0.00  0.00    +0.000 N 
ATOM     21  C   UNL     1      45.125   1.709   8.772  0.00  0.00    +0.000 C 
ATOM     22  C   UNL     1      46.434   1.396   8.018  0.00  0.00    +0.000 C 
ATOM     23  O   UNL     1      46.634   2.277   6.891  0.00  0.00    +0.000 OA
ATOM     24  C   UNL     1      46.649   3.654   7.314  0.00  0.00    +0.000 C 
ATOM     25  C   UNL     1      45.345   4.030   8.028  0.00  0.00    +0.000 C 
ATOM     26  C   UNL     1      45.134   4.729  10.932  0.00  0.00    +0.000 A 
ENDBRANCH  14  15
ENDBRANCH   1  14
TORSDOF 4
ENDMDL
MODEL 4
REMARK VINA RESULT:    -6.656      2.277      7.514
REMARK INTER + INTRA:          -8.955
REMARK INTER:                  -8.522
REMARK INTRA:                  -0.433
REMARK UNBOUND:                -0.743
REMARK  Name = 
REMARK  4 active torsions:
REMARK  status: ('A' for Active; 'I' for Inactive)
REMARK    1  A    between atoms: C_2  and  C_4
REMARK    2  A    between atoms: C_7  and  N_8
REMARK    3  A    between atoms: N_8  and  C_9
REMARK    4  A    between atoms: C_9  and  C_10
REMARK                            x       y       z     vdW  Elec       q    Type
REMARK                         _______ _______ _______ _____ _____    ______ ____
ROOT
ATOM      1  N   UNL     1      46.859   6.663  12.068  0.00  0.00    +0.000 N 
ATOM      2  H   UNL     1      47.373   6.283  11.276  0.00  0.00    +0.000 HD
ENDROOT
BRANCH   1   6
ATOM      3  C   UNL     1      48.219   5.533  15.909  0.00  0.00    +0.000 A 
ATOM      4  C   UNL     1      47.363   4.690  15.205  0.00  0.00    +0.000 A 
ATOM      5  C   UNL     1      46.923   5.044  13.924  0.00  0.00    +0.000 A 
ATOM      6  C   UNL     1      47.345   6.228  13.303  0.00  0.00    +0.000 A 
ATOM      7  C   UNL     1      48.189   7.075  14.036  0.00  0.00    +0.000 A 
ATOM      8  C   UNL     1      48.622   6.738  15.327  0.00  0.00    +0.000 A 
BRANCH   3  10
ATOM      9  N   UNL     1      50.023   5.021  17.464  0.00  0.00    +0.000 N 
ATOM     10  C   UNL     1      48.678   5.204  17.282  0.00  0.00    +0.000 C 
ATOM     11  O   UNL     1      47.901   5.127  18.225  0.00  0.00    +0.000 OA
ATOM     12  H   UNL     1      50.334   4.896  18.419  0.00  0.00    +0.000 HD
ATOM     13  H   UNL     1      50.708   5.316  16.783  0.00  0.00    +0.000 HD
ENDBRANCH   3  10
ENDBRANCH   1   6
BRANCH   1  14
ATOM     14  C   UNL     1      45.425   6.782  11.853  0.00  0.00    +0.000 C 
BRANCH  14  15
ATOM     15  C   UNL     1      44.832   5.474  11.403  0.00  0.00    +0.000 A 
ATOM     16  C   UNL     1      43.722   4.919  12.030  0.00  0.00    +0.000 A 
ATOM     17  C   UNL     1      43.214   3.736  11.525  0.00  0.00    +0.000 A 
ATOM     18  N   UNL     1      43.727   3.082  10.459  0.00  0.00    +0.000 NA
ATOM     19  C   UNL     1      44.788   3.625   9.825  0.00  0.00    +0.000 A 
ATOM     20  N   UNL     1      45.350   2.966   8.760  0.00  0.00    +0.000 N 
ATOM     21  C   UNL     1      45.108   1.539   8.547  0.00  0.00    +0.000 C 
ATOM     22  C   UNL     1      46.428   0.932   8.028  0.00  0.00    +0.000 C 
ATOM     23  O   UNL     1      46.901   1.599   6.838  0.00  0.00    +0.000 OA
ATOM     24  C   UNL     1      47.092   3.006   7.082  0.00  0.00    +0.000 C 
ATOM     25  C   UNL     1      45.793   3.670   7.555  0.00  0.00    +0.000 C 
ATOM     26  C   UNL     1      45.358   4.809  10.290  0.00  0.00    +0.000 A 
ENDBRANCH  14  15
ENDBRANCH   1  14
TORSDOF 4
ENDMDL
MODEL 5
REMARK VINA RESULT:    -6.506      4.980      8.382
REMARK INTER + INTRA:          -8.770
REMARK INTER:                  -8.299
REMARK INTRA:                  -0.471
REMARK UNBOUND:                -0.743
REMARK  Name = 
REMARK  4 active torsions:
REMARK  status: ('A' for Active; 'I' for Inactive)
REMARK    1  A    between atoms: C_2  and  C_4
REMARK    2  A    between atoms: C_7  and  N_8
REMARK    3  A    between atoms: N_8  and  C_9
REMARK    4  A    between atoms: C_9  and  C_10
REMARK                            x       y       z     vdW  Elec       q    Type
REMARK                         _______ _______ _______ _____ _____    ______ ____
ROOT
ATOM      1  N   UNL     1      49.120   5.049  17.002  0.00  0.00    +0.000 N 
ATOM      2  H   UNL     1      49.476   5.891  16.553  0.00  0.00    +0.000 HD
ENDROOT
BRANCH   1   6
ATOM      3  C   UNL     1      52.136   2.179  17.741  0.00  0.00    +0.000 A 
ATOM      4  C   UNL     1      52.440   3.535  17.823  0.00  0.00    +0.000 A 
ATOM      5  C   UNL     1      51.444   4.494  17.601  0.00  0.00    +0.000 A 
ATOM      6  C   UNL     1      50.121   4.128  17.321  0.00  0.00    +0.000 A 
ATOM      7  C   UNL     1      49.838   2.758  17.220  0.00  0.00    +0.000 A 
ATOM      8  C   UNL     1      50.831   1.789  17.423  0.00  0.00    +0.000 A 
BRANCH   3  10
ATOM      9  N   UNL     1      52.742  -0.129  18.233  0.00  0.00    +0.000 N 
ATOM     10  C   UNL     1      53.174   1.136  17.938  0.00  0.00    +0.000 C 
ATOM     11  O   UNL     1      54.368   1.379  17.814  0.00  0.00    +0.000 OA
ATOM     12  H   UNL     1      53.451  -0.850  18.267  0.00  0.00    +0.000 HD
ATOM     13  H   UNL     1      51.784  -0.420  18.099  0.00  0.00    +0.000 HD
ENDBRANCH   3  10
ENDBRANCH   1   6
BRANCH   1  14
ATOM     14  C   UNL     1      47.844   4.584  16.479  0.00  0.00    +0.000 C 
BRANCH  14  15
ATOM     15  C   UNL     1      47.547   5.203  15.140  0.00  0.00    +0.000 A 
ATOM     16  C   UNL     1      48.275   6.284  14.656  0.00  0.00    +0.000 A 
ATOM     17  C   UNL     1      47.966   6.765  13.396  0.00  0.00    +0.000 A 
ATOM     18  N   UNL     1      46.999   6.251  12.603  0.00  0.00    +0.000 NA
ATOM     19  C   UNL     1      46.304   5.185  13.051  0.00  0.00    +0.000 A 
ATOM     20  N   UNL     1      45.294   4.663  12.281  0.00  0.00    +0.000 N 
ATOM     21  C   UNL     1      44.686   5.448  11.207  0.00  0.00    +0.000 C 
ATOM     22  C   UNL     1      43.179   5.118  11.205  0.00  0.00    +0.000 C 
ATOM     23  O   UNL     1      42.935   3.702  11.066  0.00  0.00    +0.000 OA
ATOM     24  C   UNL     1      43.578   2.965  12.123  0.00  0.00    +0.000 C 
ATOM     25  C   UNL     1      45.091   3.220  12.137  0.00  0.00    +0.000 C 
ATOM     26  C   UNL     1      46.555   4.658  14.317  0.00  0.00    +0.000 A 
ENDBRANCH  14  15
ENDBRANCH   1  14
TORSDOF 4
ENDMDL
MODEL 6
REMARK VINA RESULT:    -6.240      3.408      5.491
REMARK INTER + INTRA:          -8.442
REMARK INTER:                  -7.971
REMARK INTRA:                  -0.472
REMARK UNBOUND:                -0.743
REMARK  Name = 
REMARK  4 active torsions:
REMARK  status: ('A' for Active; 'I' for Inactive)
REMARK    1  A    between atoms: C_2  and  C_4
REMARK    2  A    between atoms: C_7  and  N_8
REMARK    3  A    between atoms: N_8  and  C_9
REMARK    4  A    between atoms: C_9  and  C_10
REMARK                            x       y       z     vdW  Elec       q    Type
REMARK                         _______ _______ _______ _____ _____    ______ ____
ROOT
ATOM      1  N   UNL     1      46.524   7.414  13.337  0.00  0.00    +0.000 N 
ATOM      2  H   UNL     1      46.326   7.443  14.335  0.00  0.00    +0.000 HD
ENDROOT
BRANCH   1   6
ATOM      3  C   UNL     1      44.681   4.059  11.540  0.00  0.00    +0.000 A 
ATOM      4  C   UNL     1      44.986   5.175  10.766  0.00  0.00    +0.000 A 
ATOM      5  C   UNL     1      45.616   6.283  11.345  0.00  0.00    +0.000 A 
ATOM      6  C   UNL     1      45.981   6.296  12.698  0.00  0.00    +0.000 A 
ATOM      7  C   UNL     1      45.645   5.173  13.468  0.00  0.00    +0.000 A 
ATOM      8  C   UNL     1      44.999   4.064  12.902  0.00  0.00    +0.000 A 
BRANCH   3  10
ATOM      9  N   UNL     1      44.568   2.276   9.884  0.00  0.00    +0.000 N 
ATOM     10  C   UNL     1      43.984   2.881  10.965  0.00  0.00    +0.000 C 
ATOM     11  O   UNL     1      42.949   2.440  11.448  0.00  0.00    +0.000 OA
ATOM     12  H   UNL     1      44.138   1.418   9.563  0.00  0.00    +0.000 HD
ATOM     13  H   UNL     1      45.527   2.448   9.617  0.00  0.00    +0.000 HD
ENDBRANCH   3  10
ENDBRANCH   1   6
BRANCH   1  14
ATOM     14  C   UNL     1      47.852   7.884  12.973  0.00  0.00    +0.000 C 
BRANCH  14  15
ATOM     15  C   UNL     1      48.866   7.513  14.021  0.00  0.00    +0.000 A 
ATOM     16  C   UNL     1      50.102   8.146  14.099  0.00  0.00    +0.000 A 
ATOM     17  C   UNL     1      50.959   7.775  15.120  0.00  0.00    +0.000 A 
ATOM     18  N   UNL     1      50.672   6.835  16.049  0.00  0.00    +0.000 NA
ATOM     19  C   UNL     1      49.465   6.234  15.999  0.00  0.00    +0.000 A 
ATOM     20  N   UNL     1      49.160   5.253  16.909  0.00  0.00    +0.000 N 
ATOM     21  C   UNL     1      50.214   4.565  17.655  0.00  0.00    +0.000 C 
ATOM     22  C   UNL     1      49.786   3.088  17.782  0.00  0.00    +0.000 C 
ATOM     23  O   UNL     1      48.488   2.952  18.400  0.00  0.00    +0.000 OA
ATOM     24  C   UNL     1      47.488   3.671  17.655  0.00  0.00    +0.000 C 
ATOM     25  C   UNL     1      47.842   5.160  17.542  0.00  0.00    +0.000 C 
ATOM     26  C   UNL     1      48.559   6.551  14.989  0.00  0.00    +0.000 A 
ENDBRANCH  14  15
ENDBRANCH   1  14
TORSDOF 4
ENDMDL
MODEL 7
REMARK VINA RESULT:    -5.894      3.177      4.741
REMARK INTER + INTRA:          -8.015
REMARK INTER:                  -7.296
REMARK INTRA:                  -0.719
REMARK UNBOUND:                -0.743
REMARK  Name = 
REMARK  4 active torsions:
REMARK  status: ('A' for Active; 'I' for Inactive)
REMARK    1  A    between atoms: C_2  and  C_4
REMARK    2  A    between atoms: C_7  and  N_8
REMARK    3  A    between atoms: N_8  and  C_9
REMARK    4  A    between atoms: C_9  and  C_10
REMARK                            x       y       z     vdW  Elec       q    Type
REMARK                         _______ _______ _______ _____ _____    ______ ____
ROOT
ATOM      1  N   UNL     1      45.204   8.008  12.874  0.00  0.00    +0.000 N 
ATOM      2  H   UNL     1      45.128   8.058  13.888  0.00  0.00    +0.000 HD
ENDROOT
BRANCH   1   6
ATOM      3  C   UNL     1      44.279   4.146  11.420  0.00  0.00    +0.000 A 
ATOM      4  C   UNL     1      44.608   5.159  10.524  0.00  0.00    +0.000 A 
ATOM      5  C   UNL     1      44.937   6.437  10.995  0.00  0.00    +0.000 A 
ATOM      6  C   UNL     1      44.973   6.727  12.366  0.00  0.00    +0.000 A 
ATOM      7  C   UNL     1      44.617   5.701  13.253  0.00  0.00    +0.000 A 
ATOM      8  C   UNL     1      44.270   4.422  12.791  0.00  0.00    +0.000 A 
BRANCH   3  10
ATOM      9  N   UNL     1      44.647   2.237   9.953  0.00  0.00    +0.000 N 
ATOM     10  C   UNL     1      43.894   2.791  10.953  0.00  0.00    +0.000 C 
ATOM     11  O   UNL     1      42.964   2.171  11.455  0.00  0.00    +0.000 OA
ATOM     12  H   UNL     1      44.438   1.276   9.712  0.00  0.00    +0.000 HD
ATOM     13  H   UNL     1      45.554   2.599   9.692  0.00  0.00    +0.000 HD
ENDBRANCH   3  10
ENDBRANCH   1   6
BRANCH   1  14
ATOM     14  C   UNL     1      46.259   8.835  12.309  0.00  0.00    +0.000 C 
BRANCH  14  15
ATOM     15  C   UNL     1      47.619   8.339  12.722  0.00  0.00    +0.000 A 
ATOM     16  C   UNL     1      48.638   8.144  11.796  0.00  0.00    +0.000 A 
ATOM     17  C   UNL     1      49.872   7.729  12.265  0.00  0.00    +0.000 A 
ATOM     18  N   UNL     1      50.151   7.499  13.568  0.00  0.00    +0.000 NA
ATOM     19  C   UNL     1      49.177   7.711  14.478  0.00  0.00    +0.000 A 
ATOM     20  N   UNL     1      49.423   7.455  15.804  0.00  0.00    +0.000 N 
ATOM     21  C   UNL     1      50.535   6.596  16.210  0.00  0.00    +0.000 C 
ATOM     22  C   UNL     1      50.049   5.770  17.419  0.00  0.00    +0.000 C 
ATOM     23  O   UNL     1      49.574   6.610  18.494  0.00  0.00    +0.000 OA
ATOM     24  C   UNL     1      48.504   7.463  18.042  0.00  0.00    +0.000 C 
ATOM     25  C   UNL     1      48.953   8.343  16.869  0.00  0.00    +0.000 C 
ATOM     26  C   UNL     1      47.907   8.118  14.072  0.00  0.00    +0.000 A 
ENDBRANCH  14  15
ENDBRANCH   1  14
TORSDOF 4
ENDMDL
MODEL 8
REMARK VINA RESULT:    -5.866      3.826      6.004
REMARK INTER + INTRA:          -7.980
REMARK INTER:                  -7.447
REMARK INTRA:                  -0.533
REMARK UNBOUND:                -0.743
REMARK  Name = 
REMARK  4 active torsions:
REMARK  status: ('A' for Active; 'I' for Inactive)
REMARK    1  A    between atoms: C_2  and  C_4
REMARK    2  A    between atoms: C_7  and  N_8
REMARK    3  A    between atoms: N_8  and  C_9
REMARK    4  A    between atoms: C_9  and  C_10
REMARK                            x       y       z     vdW  Elec       q    Type
REMARK                         _______ _______ _______ _____ _____    ______ ____
ROOT
ATOM      1  N   UNL     1      48.109   6.801  13.309  0.00  0.00    +0.000 N 
ATOM      2  H   UNL     1      48.853   7.029  12.654  0.00  0.00    +0.000 HD
ENDROOT
BRANCH   1   6
ATOM      3  C   UNL     1      44.940   4.840  11.311  0.00  0.00    +0.000 A 
ATOM      4  C   UNL     1      45.297   4.440  12.596  0.00  0.00    +0.000 A 
ATOM      5  C   UNL     1      46.331   5.096  13.276  0.00  0.00    +0.000 A 
ATOM      6  C   UNL     1      47.013   6.180  12.706  0.00  0.00    +0.000 A 
ATOM      7  C   UNL     1      46.656   6.553  11.402  0.00  0.00    +0.000 A 
ATOM      8  C   UNL     1      45.633   5.892  10.706  0.00  0.00    +0.000 A 
BRANCH   3  10
ATOM      9  N   UNL     1      43.802   4.390   9.204  0.00  0.00    +0.000 N 
ATOM     10  C   UNL     1      43.872   4.145  10.550  0.00  0.00    +0.000 C 
ATOM     11  O   UNL     1      43.100   3.360  11.085  0.00  0.00    +0.000 OA
ATOM     12  H   UNL     1      43.136   3.837   8.681  0.00  0.00    +0.000 HD
ATOM     13  H   UNL     1      44.557   4.823   8.692  0.00  0.00    +0.000 HD
ENDBRANCH   3  10
ENDBRANCH   1   6
BRANCH   1  14
ATOM     14  C   UNL     1      47.899   7.795  14.351  0.00  0.00    +0.000 C 
BRANCH  14  15
ATOM     15  C   UNL     1      48.673   7.452  15.595  0.00  0.00    +0.000 A 
ATOM     16  C   UNL     1      49.126   8.434  16.468  0.00  0.00    +0.000 A 
ATOM     17  C   UNL     1      49.791   8.030  17.612  0.00  0.00    +0.000 A 
ATOM     18  N   UNL     1      50.030   6.739  17.936  0.00  0.00    +0.000 NA
ATOM     19  C   UNL     1      49.571   5.776  17.110  0.00  0.00    +0.000 A 
ATOM     20  N   UNL     1      49.827   4.459  17.397  0.00  0.00    +0.000 N 
ATOM     21  C   UNL     1      50.899   4.086  18.320  0.00  0.00    +0.000 C 
ATOM     22  C   UNL     1      51.549   2.804  17.760  0.00  0.00    +0.000 C 
ATOM     23  O   UNL     1      50.585   1.745  17.571  0.00  0.00    +0.000 OA
ATOM     24  C   UNL     1      49.531   2.166  16.685  0.00  0.00    +0.000 C 
ATOM     25  C   UNL     1      48.817   3.413  17.223  0.00  0.00    +0.000 C 
ATOM     26  C   UNL     1      48.904   6.114  15.934  0.00  0.00    +0.000 A 
ENDBRANCH  14  15
ENDBRANCH   1  14
TORSDOF 4
ENDMDL
MODEL 9
REMARK VINA RESULT:    -5.801      3.687      5.596
REMARK INTER + INTRA:          -7.900
REMARK INTER:                  -7.378
REMARK INTRA:                  -0.521
REMARK UNBOUND:                -0.743
REMARK  Name = 
REMARK  4 active torsions:
REMARK  status: ('A' for Active; 'I' for Inactive)
REMARK    1  A    between atoms: C_2  and  C_4
REMARK    2  A    between atoms: C_7  and  N_8
REMARK    3  A    between atoms: N_8  and  C_9
REMARK    4  A    between atoms: C_9  and  C_10
REMARK                            x       y       z     vdW  Elec       q    Type
REMARK                         _______ _______ _______ _____ _____    ______ ____
ROOT
ATOM      1  N   UNL     1      47.352   7.263  12.647  0.00  0.00    +0.000 N 
ATOM      2  H   UNL     1      46.877   8.062  13.062  0.00  0.00    +0.000 HD
ENDROOT
BRANCH   1   6
ATOM      3  C   UNL     1      44.884   4.063  11.402  0.00  0.00    +0.000 A 
ATOM      4  C   UNL     1      45.394   4.077  12.698  0.00  0.00    +0.000 A 
ATOM      5  C   UNL     1      46.194   5.142  13.128  0.00  0.00    +0.000 A 
ATOM      6  C   UNL     1      46.483   6.228  12.291  0.00  0.00    +0.000 A 
ATOM      7  C   UNL     1      45.981   6.186  10.982  0.00  0.00    +0.000 A 
ATOM      8  C   UNL     1      45.192   5.116  10.536  0.00  0.00    +0.000 A 
BRANCH   3  10
ATOM      9  N   UNL     1      44.568   2.199   9.865  0.00  0.00    +0.000 N 
ATOM     10  C   UNL     1      44.060   2.933  10.904  0.00  0.00    +0.000 C 
ATOM     11  O   UNL     1      42.985   2.641  11.412  0.00  0.00    +0.000 OA
ATOM     12  H   UNL     1      44.045   1.374   9.601  0.00  0.00    +0.000 HD
ATOM     13  H   UNL     1      45.538   2.247   9.590  0.00  0.00    +0.000 HD
ENDBRANCH   3  10
ENDBRANCH   1   6
BRANCH   1  14
ATOM     14  C   UNL     1      48.642   6.955  13.244  0.00  0.00    +0.000 C 
BRANCH  14  15
ATOM     15  C   UNL     1      48.720   7.456  14.661  0.00  0.00    +0.000 A 
ATOM     16  C   UNL     1      48.814   8.812  14.953  0.00  0.00    +0.000 A 
ATOM     17  C   UNL     1      48.836   9.191  16.284  0.00  0.00    +0.000 A 
ATOM     18  N   UNL     1      48.772   8.325  17.321  0.00  0.00    +0.000 NA
ATOM     19  C   UNL     1      48.652   7.009  17.049  0.00  0.00    +0.000 A 
ATOM     20  N   UNL     1      48.617   6.105  18.082  0.00  0.00    +0.000 N 
ATOM     21  C   UNL     1      49.103   6.467  19.413  0.00  0.00    +0.000 C 
ATOM     22  C   UNL     1      49.809   5.222  19.989  0.00  0.00    +0.000 C 
ATOM     23  O   UNL     1      48.942   4.068  20.009  0.00  0.00    +0.000 OA
ATOM     24  C   UNL     1      48.460   3.768  18.685  0.00  0.00    +0.000 C 
ATOM     25  C   UNL     1      47.704   4.961  18.085  0.00  0.00    +0.000 C 
ATOM     26  C   UNL     1      48.637   6.558  15.730  0.00  0.00    +0.000 A 
ENDBRANCH  14  15
ENDBRANCH   1  14
TORSDOF 4
ENDMDL
