MODEL 1
REMARK VINA RESULT:    -8.135      0.000      0.000
REMARK INTER + INTRA:         -10.796
REMARK INTER:                 -10.275
REMARK INTRA:                  -0.521
REMARK UNBOUND:                -0.521
REMARK  Name = 
REMARK  6 active torsions:
REMARK  status: ('A' for Active; 'I' for Inactive)
REMARK    1  A    between atoms: C_1  and  O_2
REMARK    2  A    between atoms: O_2  and  C_3
REMARK    3  A    between atoms: C_5  and  C_6
REMARK    4  A    between atoms: C_6  and  N_7
REMARK    5  A    between atoms: C_12  and  C_13
REMARK    6  A    between atoms: C_21  and  O_22
REMARK                            x       y       z     vdW  Elec       q    Type
REMARK                         _______ _______ _______ _____ _____    ______ ____
ROOT
ATOM      1  N   UNL     1      44.425   3.948  10.722  0.00  0.00    +0.000 N 
ATOM      2  C   UNL     1      44.014   3.020  11.643  0.00  0.00    +0.000 A 
ATOM      3  N   UNL     1      44.546   3.233  12.829  0.00  0.00    +0.000 NA
ATOM      4  C   UNL     1      45.348   4.334  12.665  0.00  0.00    +0.000 A 
ATOM      5  C   UNL     1      46.193   4.987  13.567  0.00  0.00    +0.000 A 
ATOM      6  C   UNL     1      46.923   6.079  13.082  0.00  0.00    +0.000 A 
ATOM      7  C   UNL     1      46.750   6.462  11.744  0.00  0.00    +0.000 A 
ATOM      8  N   UNL     1      45.939   5.860  10.833  0.00  0.00    +0.000 NA
ATOM      9  C   UNL     1      45.279   4.808  11.360  0.00  0.00    +0.000 A 
ENDROOT
BRANCH   6  10
ATOM     10  C   UNL     1      47.890   6.851  13.905  0.00  0.00    +0.000 C 
ATOM     11  N   UNL     1      47.516   8.074  14.382  0.00  0.00    +0.000 N 
ATOM     12  O   UNL     1      49.005   6.405  14.152  0.00  0.00    +0.000 OA
ATOM     13  H   UNL     1      46.628   8.522  14.218  0.00  0.00    +0.000 HD
ATOM     14  H   UNL     1      48.200   8.578  14.931  0.00  0.00    +0.000 HD
ENDBRANCH   6  10
BRANCH   1  15
ATOM     15  C   UNL     1      44.157   3.909   9.294  0.00  0.00    +0.000 C 
BRANCH  15  18
ATOM     16  C   UNL     1      46.705   1.428   7.875  0.00  0.00    +0.000 A 
ATOM     17  C   UNL     1      45.623   1.965   8.583  0.00  0.00    +0.000 A 
ATOM     18  C   UNL     1      45.302   3.332   8.497  0.00  0.00    +0.000 A 
ATOM     19  C   UNL     1      46.045   4.146   7.630  0.00  0.00    +0.000 A 
ATOM     20  C   UNL     1      47.111   3.618   6.900  0.00  0.00    +0.000 A 
ATOM     21  C   UNL     1      47.445   2.270   7.034  0.00  0.00    +0.000 A 
BRANCH  16  23
ATOM     22  C   UNL     1      46.364  -0.828   7.197  0.00  0.00    +0.000 C 
ATOM     23  O   UNL     1      47.111   0.120   7.946  0.00  0.00    +0.000 OA
ENDBRANCH  16  23
BRANCH  21  24
ATOM     24  O   UNL     1      48.507   1.763   6.338  0.00  0.00    +0.000 OA
ATOM     25  H   UNL     1      48.209   1.013   5.798  0.00  0.00    +0.000 HD
ENDBRANCH  21  24
ENDBRANCH  15  18
ENDBRANCH   1  15
TORSDOF 5
ENDMDL
MODEL 2
REMARK VINA RESULT:    -7.757      2.139      6.530
REMARK INTER + INTRA:         -10.319
REMARK INTER:                  -9.923
REMARK INTRA:                  -0.396
REMARK UNBOUND:                -0.521
REMARK  Name = 
REMARK  6 active torsions:
REMARK  status: ('A' for Active; 'I' for Inactive)
REMARK    1  A    between atoms: C_1  and  O_2
REMARK    2  A    between atoms: O_2  and  C_3
REMARK    3  A    between atoms: C_5  and  C_6
REMARK    4  A    between atoms: C_6  and  N_7
REMARK    5  A    between atoms: C_12  and  C_13
REMARK    6  A    between atoms: C_21  and  O_22
REMARK                            x       y       z     vdW  Elec       q    Type
REMARK                         _______ _______ _______ _____ _____    ______ ____
ROOT
ATOM      1  N   UNL     1      43.984   4.394  10.398  0.00  0.00    +0.000 N 
ATOM      2  C   UNL     1      43.423   3.299  11.003  0.00  0.00    +0.000 A 
ATOM      3  N   UNL     1      43.911   2.171  10.533  0.00  0.00    +0.000 NA
ATOM      4  C   UNL     1      44.814   2.550   9.571  0.00  0.00    +0.000 A 
ATOM      5  C   UNL     1      45.601   1.781   8.708  0.00  0.00    +0.000 A 
ATOM      6  C   UNL     1      46.409   2.470   7.796  0.00  0.00    +0.000 A 
ATOM      7  C   UNL     1      46.399   3.873   7.817  0.00  0.00    +0.000 A 
ATOM      8  N   UNL     1      45.654   4.660   8.638  0.00  0.00    +0.000 NA
ATOM      9  C   UNL     1      44.888   3.935   9.478  0.00  0.00    +0.000 A 
ENDROOT
BRANCH   6  10
ATOM     10  C   UNL     1      47.272   1.797   6.790  0.00  0.00    +0.000 C 
ATOM     11  N   UNL     1      48.273   2.514   6.201  0.00  0.00    +0.000 N 
ATOM     12  O   UNL     1      47.090   0.623   6.489  0.00  0.00    +0.000 OA
ATOM     13  H   UNL     1      48.485   3.483   6.377  0.00  0.00    +0.000 HD
ATOM     14  H   UNL     1      48.836   2.030   5.514  0.00  0.00    +0.000 HD
ENDBRANCH   6  10
BRANCH   1  15
ATOM     15  C   UNL     1      43.557   5.773  10.566  0.00  0.00    +0.000 C 
BRANCH  15  18
ATOM     16  C   UNL     1      46.239   6.649  13.155  0.00  0.00    +0.000 A 
ATOM     17  C   UNL     1      45.407   5.922  12.295  0.00  0.00    +0.000 A 
ATOM     18  C   UNL     1      44.476   6.568  11.461  0.00  0.00    +0.000 A 
ATOM     19  C   UNL     1      44.439   7.970  11.452  0.00  0.00    +0.000 A 
ATOM     20  C   UNL     1      45.280   8.708  12.287  0.00  0.00    +0.000 A 
ATOM     21  C   UNL     1      46.163   8.048  13.142  0.00  0.00    +0.000 A 
BRANCH  16  23
ATOM     22  C   UNL     1      46.947   4.719  14.355  0.00  0.00    +0.000 C 
ATOM     23  O   UNL     1      47.133   6.091  14.032  0.00  0.00    +0.000 OA
ENDBRANCH  16  23
BRANCH  21  24
ATOM     24  O   UNL     1      46.966   8.775  13.978  0.00  0.00    +0.000 OA
ATOM     25  H   UNL     1      47.822   8.326  14.071  0.00  0.00    +0.000 HD
ENDBRANCH  21  24
ENDBRANCH  15  18
ENDBRANCH   1  15
TORSDOF 5
ENDMDL
MODEL 3
REMARK VINA RESULT:    -7.452      2.520      6.955
REMARK INTER + INTRA:          -9.933
REMARK INTER:                  -9.527
REMARK INTRA:                  -0.406
REMARK UNBOUND:                -0.521
REMARK  Name = 
REMARK  6 active torsions:
REMARK  status: ('A' for Active; 'I' for Inactive)
REMARK    1  A    between atoms: C_1  and  O_2
REMARK    2  A    between atoms: O_2  and  C_3
REMARK    3  A    between atoms: C_5  and  C_6
REMARK    4  A    between atoms: C_6  and  N_7
REMARK    5  A    between atoms: C_12  and  C_13
REMARK    6  A    between atoms: C_21  and  O_22
REMARK                            x       y       z     vdW  Elec       q    Type
REMARK                         _______ _______ _______ _____ _____    ______ ____
ROOT
ATOM      1  N   UNL     1      44.032   4.426  10.464  0.00  0.00    +0.000 N 
ATOM      2  C   UNL     1      43.518   3.260  10.971  0.00  0.00    +0.000 A 
ATOM      3  N   UNL     1      44.018   2.199  10.373  0.00  0.00    +0.000 NA
ATOM      4  C   UNL     1      44.880   2.698   9.429  0.00  0.00    +0.000 A 
ATOM      5  C   UNL     1      45.657   2.043   8.468  0.00  0.00    +0.000 A 
ATOM      6  C   UNL     1      46.418   2.843   7.608  0.00  0.00    +0.000 A 
ATOM      7  C   UNL     1      46.375   4.235   7.772  0.00  0.00    +0.000 A 
ATOM      8  N   UNL     1      45.638   4.915   8.692  0.00  0.00    +0.000 NA
ATOM      9  C   UNL     1      44.917   4.087   9.475  0.00  0.00    +0.000 A 
ENDROOT
BRANCH   6  10
ATOM     10  C   UNL     1      47.263   2.299   6.514  0.00  0.00    +0.000 C 
ATOM     11  N   UNL     1      47.274   2.945   5.311  0.00  0.00    +0.000 N 
ATOM     12  O   UNL     1      47.938   1.289   6.680  0.00  0.00    +0.000 OA
ATOM     13  H   UNL     1      46.743   3.771   5.082  0.00  0.00    +0.000 HD
ATOM     14  H   UNL     1      47.852   2.545   4.583  0.00  0.00    +0.000 HD
ENDBRANCH   6  10
BRANCH   1  15
ATOM     15  C   UNL     1      43.578   5.768  10.785  0.00  0.00    +0.000 C 
BRANCH  15  18
ATOM     16  C   UNL     1      45.587   8.689  12.231  0.00  0.00    +0.000 A 
ATOM     17  C   UNL     1      44.634   7.956  11.514  0.00  0.00    +0.000 A 
ATOM     18  C   UNL     1      44.585   6.553  11.591  0.00  0.00    +0.000 A 
ATOM     19  C   UNL     1      45.468   5.894  12.459  0.00  0.00    +0.000 A 
ATOM     20  C   UNL     1      46.407   6.615  13.199  0.00  0.00    +0.000 A 
ATOM     21  C   UNL     1      46.473   8.003  13.072  0.00  0.00    +0.000 A 
BRANCH  16  23
ATOM     22  C   UNL     1      44.787  10.764  11.381  0.00  0.00    +0.000 C 
ATOM     23  O   UNL     1      45.732  10.052  12.168  0.00  0.00    +0.000 OA
ENDBRANCH  16  23
BRANCH  21  24
ATOM     24  O   UNL     1      47.413   8.703  13.777  0.00  0.00    +0.000 OA
ATOM     25  H   UNL     1      48.008   9.155  13.158  0.00  0.00    +0.000 HD
ENDBRANCH  21  24
ENDBRANCH  15  18
ENDBRANCH   1  15
TORSDOF 5
ENDMDL
MODEL 4
REMARK VINA RESULT:    -7.406      1.552      2.006
REMARK INTER + INTRA:          -9.876
REMARK INTER:                  -9.395
REMARK INTRA:                  -0.480
REMARK UNBOUND:                -0.521
REMARK  Name = 
REMARK  6 active torsions:
REMARK  status: ('A' for Active; 'I' for Inactive)
REMARK    1  A    between atoms: C_1  and  O_2
REMARK    2  A    between atoms: O_2  and  C_3
REMARK    3  A    between atoms: C_5  and  C_6
REMARK    4  A    between atoms: C_6  and  N_7
REMARK    5  A    between atoms: C_12  and  C_13
REMARK    6  A    between atoms: C_21  and  O_22
REMARK                            x       y       z     vdW  Elec       q    Type
REMARK                         _______ _______ _______ _____ _____    ______ ____
ROOT
ATOM      1  N   UNL     1      44.496   4.331  10.914  0.00  0.00    +0.000 N 
ATOM      2  C   UNL     1      43.881   5.553  11.000  0.00  0.00    +0.000 A 
ATOM      3  N   UNL     1      44.260   6.222  12.070  0.00  0.00    +0.000 NA
ATOM      4  C   UNL     1      45.144   5.392  12.711  0.00  0.00    +0.000 A 
ATOM      5  C   UNL     1      45.831   5.551  13.919  0.00  0.00    +0.000 A 
ATOM      6  C   UNL     1      46.647   4.493  14.334  0.00  0.00    +0.000 A 
ATOM      7  C   UNL     1      46.745   3.359  13.515  0.00  0.00    +0.000 A 
ATOM      8  N   UNL     1      46.100   3.161  12.334  0.00  0.00    +0.000 NA
ATOM      9  C   UNL     1      45.320   4.209  12.001  0.00  0.00    +0.000 A 
ENDROOT
BRANCH   6  10
ATOM     10  C   UNL     1      47.409   4.495  15.610  0.00  0.00    +0.000 C 
ATOM     11  N   UNL     1      47.120   3.545  16.548  0.00  0.00    +0.000 N 
ATOM     12  O   UNL     1      48.279   5.332  15.824  0.00  0.00    +0.000 OA
ATOM     13  H   UNL     1      46.416   2.830  16.462  0.00  0.00    +0.000 HD
ATOM     14  H   UNL     1      47.650   3.579  17.409  0.00  0.00    +0.000 HD
ENDBRANCH   6  10
BRANCH   1  15
ATOM     15  C   UNL     1      44.184   3.286   9.954  0.00  0.00    +0.000 C 
BRANCH  15  18
ATOM     16  C   UNL     1      46.751   1.697   7.599  0.00  0.00    +0.000 A 
ATOM     17  C   UNL     1      45.741   1.852   8.556  0.00  0.00    +0.000 A 
ATOM     18  C   UNL     1      45.247   3.125   8.894  0.00  0.00    +0.000 A 
ATOM     19  C   UNL     1      45.735   4.243   8.202  0.00  0.00    +0.000 A 
ATOM     20  C   UNL     1      46.725   4.100   7.229  0.00  0.00    +0.000 A 
ATOM     21  C   UNL     1      47.238   2.834   6.942  0.00  0.00    +0.000 A 
BRANCH  16  23
ATOM     22  C   UNL     1      46.549  -0.673   7.490  0.00  0.00    +0.000 C 
ATOM     23  O   UNL     1      47.320   0.498   7.254  0.00  0.00    +0.000 OA
ENDBRANCH  16  23
BRANCH  21  24
ATOM     24  O   UNL     1      48.227   2.701   6.007  0.00  0.00    +0.000 OA
ATOM     25  H   UNL     1      48.529   1.778   5.987  0.00  0.00    +0.000 HD
ENDBRANCH  21  24
ENDBRANCH  15  18
ENDBRANCH   1  15
TORSDOF 5
ENDMDL
MODEL 5
REMARK VINA RESULT:    -6.028      1.815      2.317
REMARK INTER + INTRA:          -8.135
REMARK INTER:                  -8.351
REMARK INTRA:                   0.216
REMARK UNBOUND:                -0.521
REMARK  Name = 
REMARK  6 active torsions:
REMARK  status: ('A' for Active; 'I' for Inactive)
REMARK    1  A    between atoms: C_1  and  O_2
REMARK    2  A    between atoms: O_2  and  C_3
REMARK    3  A    between atoms: C_5  and  C_6
REMARK    4  A    between atoms: C_6  and  N_7
REMARK    5  A    between atoms: C_12  and  C_13
REMARK    6  A    between atoms: C_21  and  O_22
REMARK                            x       y       z     vdW  Elec       q    Type
REMARK                         _______ _______ _______ _____ _____    ______ ____
ROOT
ATOM      1  N   UNL     1      45.524   4.550  12.615  0.00  0.00    +0.000 N 
ATOM      2  C   UNL     1      46.422   3.729  13.247  0.00  0.00    +0.000 A 
ATOM      3  N   UNL     1      47.379   4.409  13.843  0.00  0.00    +0.000 NA
ATOM      4  C   UNL     1      47.098   5.725  13.573  0.00  0.00    +0.000 A 
ATOM      5  C   UNL     1      47.793   6.891  13.908  0.00  0.00    +0.000 A 
ATOM      6  C   UNL     1      47.266   8.103  13.448  0.00  0.00    +0.000 A 
ATOM      7  C   UNL     1      46.076   8.080  12.705  0.00  0.00    +0.000 A 
ATOM      8  N   UNL     1      45.366   6.972  12.358  0.00  0.00    +0.000 NA
ATOM      9  C   UNL     1      45.937   5.840  12.818  0.00  0.00    +0.000 A 
ENDROOT
BRANCH   6  10
ATOM     10  C   UNL     1      47.907   9.423  13.688  0.00  0.00    +0.000 C 
ATOM     11  N   UNL     1      48.350   9.717  14.946  0.00  0.00    +0.000 N 
ATOM     12  O   UNL     1      48.035  10.236  12.780  0.00  0.00    +0.000 OA
ATOM     13  H   UNL     1      48.274   9.116  15.751  0.00  0.00    +0.000 HD
ATOM     14  H   UNL     1      48.773  10.626  15.078  0.00  0.00    +0.000 HD
ENDBRANCH   6  10
BRANCH   1  15
ATOM     15  C   UNL     1      44.451   4.122  11.734  0.00  0.00    +0.000 C 
BRANCH  15  18
ATOM     16  C   UNL     1      45.532   2.092   8.673  0.00  0.00    +0.000 A 
ATOM     17  C   UNL     1      45.052   2.429   9.944  0.00  0.00    +0.000 A 
ATOM     18  C   UNL     1      44.933   3.771  10.347  0.00  0.00    +0.000 A 
ATOM     19  C   UNL     1      45.239   4.781   9.424  0.00  0.00    +0.000 A 
ATOM     20  C   UNL     1      45.696   4.460   8.145  0.00  0.00    +0.000 A 
ATOM     21  C   UNL     1      45.853   3.123   7.780  0.00  0.00    +0.000 A 
BRANCH  16  23
ATOM     22  C   UNL     1      47.001   0.503   7.681  0.00  0.00    +0.000 C 
ATOM     23  O   UNL     1      45.725   0.810   8.226  0.00  0.00    +0.000 OA
ENDBRANCH  16  23
BRANCH  21  24
ATOM     24  O   UNL     1      46.327   2.813   6.534  0.00  0.00    +0.000 OA
ATOM     25  H   UNL     1      45.642   2.333   6.040  0.00  0.00    +0.000 HD
ENDBRANCH  21  24
ENDBRANCH  15  18
ENDBRANCH   1  15
TORSDOF 5
ENDMDL
MODEL 6
REMARK VINA RESULT:    -5.939      4.084      8.197
REMARK INTER + INTRA:          -8.022
REMARK INTER:                  -7.831
REMARK INTRA:                  -0.191
REMARK UNBOUND:                -0.521
REMARK  Name = 
REMARK  6 active torsions:
REMARK  status: ('A' for Active; 'I' for Inactive)
REMARK    1  A    between atoms: C_1  and  O_2
REMARK    2  A    between atoms: O_2  and  C_3
REMARK    3  A    between atoms: C_5  and  C_6
REMARK    4  A    between atoms: C_6  and  N_7
REMARK    5  A    between atoms: C_12  and  C_13
REMARK    6  A    between atoms: C_21  and  O_22
REMARK                            x       y       z     vdW  Elec       q    Type
REMARK                         _______ _______ _______ _____ _____    ______ ____
ROOT
ATOM      1  N   UNL     1      47.277   4.884  15.209  0.00  0.00    +0.000 N 
ATOM      2  C   UNL     1      48.207   5.886  15.103  0.00  0.00    +0.000 A 
ATOM      3  N   UNL     1      48.162   6.479  13.928  0.00  0.00    +0.000 NA
ATOM      4  C   UNL     1      47.174   5.823  13.238  0.00  0.00    +0.000 A 
ATOM      5  C   UNL     1      46.715   5.987  11.927  0.00  0.00    +0.000 A 
ATOM      6  C   UNL     1      45.701   5.125  11.493  0.00  0.00    +0.000 A 
ATOM      7  C   UNL     1      45.196   4.175  12.392  0.00  0.00    +0.000 A 
ATOM      8  N   UNL     1      45.608   3.981  13.673  0.00  0.00    +0.000 NA
ATOM      9  C   UNL     1      46.596   4.831  14.022  0.00  0.00    +0.000 A 
ENDROOT
BRANCH   6  10
ATOM     10  C   UNL     1      45.136   5.149  10.118  0.00  0.00    +0.000 C 
ATOM     11  N   UNL     1      43.800   4.923   9.955  0.00  0.00    +0.000 N 
ATOM     12  O   UNL     1      45.852   5.363   9.146  0.00  0.00    +0.000 OA
ATOM     13  H   UNL     1      43.142   4.727  10.692  0.00  0.00    +0.000 HD
ATOM     14  H   UNL     1      43.448   4.937   9.006  0.00  0.00    +0.000 HD
ENDBRANCH   6  10
BRANCH   1  15
ATOM     15  C   UNL     1      47.169   3.933  16.302  0.00  0.00    +0.000 C 
BRANCH  15  18
ATOM     16  C   UNL     1      50.496   3.893  18.197  0.00  0.00    +0.000 A 
ATOM     17  C   UNL     1      49.234   4.283  17.733  0.00  0.00    +0.000 A 
ATOM     18  C   UNL     1      48.512   3.486  16.827  0.00  0.00    +0.000 A 
ATOM     19  C   UNL     1      49.048   2.247  16.443  0.00  0.00    +0.000 A 
ATOM     20  C   UNL     1      50.294   1.835  16.918  0.00  0.00    +0.000 A 
ATOM     21  C   UNL     1      51.017   2.662  17.778  0.00  0.00    +0.000 A 
BRANCH  16  23
ATOM     22  C   UNL     1      50.652   5.194  20.185  0.00  0.00    +0.000 C 
ATOM     23  O   UNL     1      51.282   4.638  19.039  0.00  0.00    +0.000 OA
ENDBRANCH  16  23
BRANCH  21  24
ATOM     24  O   UNL     1      52.250   2.267  18.219  0.00  0.00    +0.000 OA
ATOM     25  H   UNL     1      52.642   2.975  18.755  0.00  0.00    +0.000 HD
ENDBRANCH  21  24
ENDBRANCH  15  18
ENDBRANCH   1  15
TORSDOF 5
ENDMDL
MODEL 7
REMARK VINA RESULT:    -5.890      4.054      6.124
REMARK INTER + INTRA:          -7.961
REMARK INTER:                  -7.614
REMARK INTRA:                  -0.347
REMARK UNBOUND:                -0.521
REMARK  Name = 
REMARK  6 active torsions:
REMARK  status: ('A' for Active; 'I' for Inactive)
REMARK    1  A    between atoms: C_1  and  O_2
REMARK    2  A    between atoms: O_2  and  C_3
REMARK    3  A    between atoms: C_5  and  C_6
REMARK    4  A    between atoms: C_6  and  N_7
REMARK    5  A    between atoms: C_12  and  C_13
REMARK    6  A    between atoms: C_21  and  O_22
REMARK                            x       y       z     vdW  Elec       q    Type
REMARK                         _______ _______ _______ _____ _____    ______ ____
ROOT
ATOM      1  N   UNL     1      48.874   7.257  13.729  0.00  0.00    +0.000 N 
ATOM      2  C   UNL     1      49.431   8.230  14.517  0.00  0.00    +0.000 A 
ATOM      3  N   UNL     1      49.412   7.903  15.792  0.00  0.00    +0.000 NA
ATOM      4  C   UNL     1      48.803   6.675  15.833  0.00  0.00    +0.000 A 
ATOM      5  C   UNL     1      48.469   5.860  16.920  0.00  0.00    +0.000 A 
ATOM      6  C   UNL     1      47.807   4.659  16.639  0.00  0.00    +0.000 A 
ATOM      7  C   UNL     1      47.542   4.336  15.300  0.00  0.00    +0.000 A 
ATOM      8  N   UNL     1      47.850   5.094  14.213  0.00  0.00    +0.000 NA
ATOM      9  C   UNL     1      48.469   6.242  14.555  0.00  0.00    +0.000 A 
ENDROOT
BRANCH   6  10
ATOM     10  C   UNL     1      47.353   3.707  17.685  0.00  0.00    +0.000 C 
ATOM     11  N   UNL     1      47.996   3.699  18.889  0.00  0.00    +0.000 N 
ATOM     12  O   UNL     1      46.421   2.938  17.475  0.00  0.00    +0.000 OA
ATOM     13  H   UNL     1      48.776   4.285  19.143  0.00  0.00    +0.000 HD
ATOM     14  H   UNL     1      47.668   3.033  19.577  0.00  0.00    +0.000 HD
ENDBRANCH   6  10
BRANCH   1  15
ATOM     15  C   UNL     1      48.591   7.369  12.308  0.00  0.00    +0.000 C 
BRANCH  15  18
ATOM     16  C   UNL     1      45.123   6.262  11.120  0.00  0.00    +0.000 A 
ATOM     17  C   UNL     1      46.486   6.251  11.440  0.00  0.00    +0.000 A 
ATOM     18  C   UNL     1      47.112   7.378  12.002  0.00  0.00    +0.000 A 
ATOM     19  C   UNL     1      46.330   8.502  12.306  0.00  0.00    +0.000 A 
ATOM     20  C   UNL     1      44.966   8.518  12.014  0.00  0.00    +0.000 A 
ATOM     21  C   UNL     1      44.371   7.408  11.412  0.00  0.00    +0.000 A 
BRANCH  16  23
ATOM     22  C   UNL     1      44.295   4.036  11.287  0.00  0.00    +0.000 C 
ATOM     23  O   UNL     1      44.453   5.225  10.524  0.00  0.00    +0.000 OA
ENDBRANCH  16  23
BRANCH  21  24
ATOM     24  O   UNL     1      43.039   7.438  11.104  0.00  0.00    +0.000 OA
ATOM     25  H   UNL     1      42.534   7.710  11.887  0.00  0.00    +0.000 HD
ENDBRANCH  21  24
ENDBRANCH  15  18
ENDBRANCH   1  15
TORSDOF 5
ENDMDL
MODEL 8
REMARK VINA RESULT:    -5.855      4.759      6.516
REMARK INTER + INTRA:          -7.917
REMARK INTER:                  -7.430
REMARK INTRA:                  -0.486
REMARK UNBOUND:                -0.521
REMARK  Name = 
REMARK  6 active torsions:
REMARK  status: ('A' for Active; 'I' for Inactive)
REMARK    1  A    between atoms: C_1  and  O_2
REMARK    2  A    between atoms: O_2  and  C_3
REMARK    3  A    between atoms: C_5  and  C_6
REMARK    4  A    between atoms: C_6  and  N_7
REMARK    5  A    between atoms: C_12  and  C_13
REMARK    6  A    between atoms: C_21  and  O_22
REMARK                            x       y       z     vdW  Elec       q    Type
REMARK                         _______ _______ _______ _____ _____    ______ ____
ROOT
ATOM      1  N   UNL     1      48.497   6.766  14.468  0.00  0.00    +0.000 N 
ATOM      2  C   UNL     1      48.685   8.100  14.717  0.00  0.00    +0.000 A 
ATOM      3  N   UNL     1      48.802   8.351  16.004  0.00  0.00    +0.000 NA
ATOM      4  C   UNL     1      48.667   7.130  16.615  0.00  0.00    +0.000 A 
ATOM      5  C   UNL     1      48.657   6.786  17.971  0.00  0.00    +0.000 A 
ATOM      6  C   UNL     1      48.459   5.437  18.287  0.00  0.00    +0.000 A 
ATOM      7  C   UNL     1      48.305   4.517  17.239  0.00  0.00    +0.000 A 
ATOM      8  N   UNL     1      48.310   4.804  15.909  0.00  0.00    +0.000 NA
ATOM      9  C   UNL     1      48.489   6.121  15.676  0.00  0.00    +0.000 A 
ENDROOT
BRANCH   6  10
ATOM     10  C   UNL     1      48.385   4.921  19.678  0.00  0.00    +0.000 C 
ATOM     11  N   UNL     1      48.526   3.579  19.889  0.00  0.00    +0.000 N 
ATOM     12  O   UNL     1      48.197   5.680  20.623  0.00  0.00    +0.000 OA
ATOM     13  H   UNL     1      48.670   2.884  19.174  0.00  0.00    +0.000 HD
ATOM     14  H   UNL     1      48.462   3.259  20.847  0.00  0.00    +0.000 HD
ENDBRANCH   6  10
BRANCH   1  15
ATOM     15  C   UNL     1      48.172   6.176  13.180  0.00  0.00    +0.000 C 
BRANCH  15  18
ATOM     16  C   UNL     1      44.547   4.956  13.006  0.00  0.00    +0.000 A 
ATOM     17  C   UNL     1      45.918   5.019  13.284  0.00  0.00    +0.000 A 
ATOM     18  C   UNL     1      46.688   6.135  12.910  0.00  0.00    +0.000 A 
ATOM     19  C   UNL     1      46.044   7.227  12.309  0.00  0.00    +0.000 A 
ATOM     20  C   UNL     1      44.673   7.187  12.048  0.00  0.00    +0.000 A 
ATOM     21  C   UNL     1      43.935   6.052  12.383  0.00  0.00    +0.000 A 
BRANCH  16  23
ATOM     22  C   UNL     1      43.667   2.855  12.315  0.00  0.00    +0.000 C 
ATOM     23  O   UNL     1      43.742   3.884  13.293  0.00  0.00    +0.000 OA
ENDBRANCH  16  23
BRANCH  21  24
ATOM     24  O   UNL     1      42.598   6.006  12.101  0.00  0.00    +0.000 OA
ATOM     25  H   UNL     1      42.307   5.080  12.069  0.00  0.00    +0.000 HD
ENDBRANCH  21  24
ENDBRANCH  15  18
ENDBRANCH   1  15
TORSDOF 5
ENDMDL
MODEL 9
REMARK VINA RESULT:    -5.820      3.128      5.034
REMARK INTER + INTRA:          -7.872
REMARK INTER:                  -7.565
REMARK INTRA:                  -0.307
REMARK UNBOUND:                -0.521
REMARK  Name = 
REMARK  6 active torsions:
REMARK  status: ('A' for Active; 'I' for Inactive)
REMARK    1  A    between atoms: C_1  and  O_2
REMARK    2  A    between atoms: O_2  and  C_3
REMARK    3  A    between atoms: C_5  and  C_6
REMARK    4  A    between atoms: C_6  and  N_7
REMARK    5  A    between atoms: C_12  and  C_13
REMARK    6  A    between atoms: C_21  and  O_22
REMARK                            x       y       z     vdW  Elec       q    Type
REMARK                         _______ _______ _______ _____ _____    ______ ____
ROOT
ATOM      1  N   UNL     1      46.684   6.896  12.690  0.00  0.00    +0.000 N 
ATOM      2  C   UNL     1      47.356   5.815  13.198  0.00  0.00    +0.000 A 
ATOM      3  N   UNL     1      48.657   6.017  13.237  0.00  0.00    +0.000 NA
ATOM      4  C   UNL     1      48.836   7.274  12.717  0.00  0.00    +0.000 A 
ATOM      5  C   UNL     1      50.006   7.999  12.470  0.00  0.00    +0.000 A 
ATOM      6  C   UNL     1      49.862   9.264  11.888  0.00  0.00    +0.000 A 
ATOM      7  C   UNL     1      48.570   9.733  11.609  0.00  0.00    +0.000 A 
ATOM      8  N   UNL     1      47.406   9.065  11.834  0.00  0.00    +0.000 NA
ATOM      9  C   UNL     1      47.616   7.850  12.380  0.00  0.00    +0.000 A 
ENDROOT
BRANCH   6  10
ATOM     10  C   UNL     1      51.009  10.139  11.529  0.00  0.00    +0.000 C 
ATOM     11  N   UNL     1      52.158  10.045  12.261  0.00  0.00    +0.000 N 
ATOM     12  O   UNL     1      50.929  10.933  10.599  0.00  0.00    +0.000 OA
ATOM     13  H   UNL     1      52.307   9.433  13.046  0.00  0.00    +0.000 HD
ATOM     14  H   UNL     1      52.917  10.661  11.997  0.00  0.00    +0.000 HD
ENDBRANCH   6  10
BRANCH   1  15
ATOM     15  C   UNL     1      45.269   6.943  12.361  0.00  0.00    +0.000 C 
BRANCH  15  18
ATOM     16  C   UNL     1      44.295   3.672  10.624  0.00  0.00    +0.000 A 
ATOM     17  C   UNL     1      44.868   4.924  10.879  0.00  0.00    +0.000 A 
ATOM     18  C   UNL     1      44.679   5.576  12.111  0.00  0.00    +0.000 A 
ATOM     19  C   UNL     1      43.957   4.918  13.117  0.00  0.00    +0.000 A 
ATOM     20  C   UNL     1      43.400   3.659  12.885  0.00  0.00    +0.000 A 
ATOM     21  C   UNL     1      43.559   3.049  11.640  0.00  0.00    +0.000 A 
BRANCH  16  23
ATOM     22  C   UNL     1      44.815   3.746   8.302  0.00  0.00    +0.000 C 
ATOM     23  O   UNL     1      44.391   2.998   9.434  0.00  0.00    +0.000 OA
ENDBRANCH  16  23
BRANCH  21  24
ATOM     24  O   UNL     1      42.989   1.828  11.408  0.00  0.00    +0.000 OA
ATOM     25  H   UNL     1      43.656   1.133  11.532  0.00  0.00    +0.000 HD
ENDBRANCH  21  24
ENDBRANCH  15  18
ENDBRANCH   1  15
TORSDOF 5
ENDMDL
