MODEL 1
REMARK VINA RESULT:    -7.367      0.000      0.000
REMARK INTER + INTRA:         -11.175
REMARK INTER:                  -9.951
REMARK INTRA:                  -1.224
REMARK UNBOUND:                -1.224
REMARK  Name = 
REMARK  6 active torsions:
REMARK  status: ('A' for Active; 'I' for Inactive)
REMARK    1  A    between atoms: C_2  and  C_5
REMARK    2  A    between atoms: C_8  and  C_9
REMARK    3  A    between atoms: C_13  and  C_14
REMARK    4  A    between atoms: C_14  and  N_15
REMARK    5  A    between atoms: N_15  and  C_16
REMARK    6  A    between atoms: C_21  and  C_22
REMARK                            x       y       z     vdW  Elec       q    Type
REMARK                         _______ _______ _______ _____ _____    ______ ____
ROOT
ATOM      1  C   UNL     1      48.203   6.620  13.696  0.00  0.00    +0.000 A 
ATOM      2  C   UNL     1      49.310   7.194  13.049  0.00  0.00    +0.000 A 
ATOM      3  C   UNL     1      50.372   7.734  13.775  0.00  0.00    +0.000 A 
ATOM      4  C   UNL     1      50.346   7.717  15.168  0.00  0.00    +0.000 A 
ATOM      5  C   UNL     1      49.265   7.166  15.866  0.00  0.00    +0.000 A 
ATOM      6  C   UNL     1      48.213   6.617  15.104  0.00  0.00    +0.000 A 
ENDROOT
BRANCH   1  10
ATOM      7  C   UNL     1      44.725   5.138  11.766  0.00  0.00    +0.000 A 
ATOM      8  C   UNL     1      45.582   5.965  11.041  0.00  0.00    +0.000 A 
ATOM      9  C   UNL     1      46.754   6.438  11.634  0.00  0.00    +0.000 A 
ATOM     10  C   UNL     1      47.046   6.083  12.950  0.00  0.00    +0.000 A 
ATOM     11  N   UNL     1      46.241   5.237  13.645  0.00  0.00    +0.000 NA
ATOM     12  C   UNL     1      45.111   4.791  13.050  0.00  0.00    +0.000 A 
BRANCH   7  14
ATOM     13  F   UNL     1      42.350   5.376  11.648  0.00  0.00    +0.000 F 
ATOM     14  C   UNL     1      43.419   4.644  11.228  0.00  0.00    +0.000 C 
ATOM     15  F   UNL     1      43.156   3.360  11.595  0.00  0.00    +0.000 F 
ATOM     16  F   UNL     1      43.371   4.661   9.868  0.00  0.00    +0.000 F 
ENDBRANCH   7  14
ENDBRANCH   1  10
BRANCH   5  17
ATOM     17  C   UNL     1      49.233   7.118  17.390  0.00  0.00    +0.000 C 
ATOM     18  C   UNL     1      48.729   8.371  18.096  0.00  0.00    +0.000 C 
ATOM     19  C   UNL     1      50.170   7.993  18.200  0.00  0.00    +0.000 C 
BRANCH  17  20
ATOM     20  N   UNL     1      48.807   5.795  17.923  0.00  0.00    +0.000 N 
ATOM     21  H   UNL     1      47.833   5.595  17.694  0.00  0.00    +0.000 HD
BRANCH  20  22
ATOM     22  C   UNL     1      49.622   4.665  17.675  0.00  0.00    +0.000 A 
ATOM     23  N   UNL     1      50.942   4.752  17.978  0.00  0.00    +0.000 NA
ATOM     24  C   UNL     1      51.725   3.657  17.870  0.00  0.00    +0.000 A 
ATOM     25  C   UNL     1      51.253   2.424  17.483  0.00  0.00    +0.000 A 
ATOM     26  C   UNL     1      49.909   2.327  17.166  0.00  0.00    +0.000 A 
ATOM     27  C   UNL     1      49.071   3.457  17.247  0.00  0.00    +0.000 A 
BRANCH  27  28
ATOM     28  C   UNL     1      47.636   3.310  16.846  0.00  0.00    +0.000 C 
ATOM     29  F   UNL     1      46.886   4.441  16.966  0.00  0.00    +0.000 F 
ATOM     30  F   UNL     1      47.515   2.946  15.534  0.00  0.00    +0.000 F 
ATOM     31  F   UNL     1      46.985   2.345  17.549  0.00  0.00    +0.000 F 
ENDBRANCH  27  28
ENDBRANCH  20  22
ENDBRANCH  17  20
ENDBRANCH   5  17
TORSDOF 6
ENDMDL
MODEL 2
REMARK VINA RESULT:    -7.009      3.751      5.644
REMARK INTER + INTRA:         -10.691
REMARK INTER:                 -10.277
REMARK INTRA:                  -0.414
REMARK UNBOUND:                -1.224
REMARK  Name = 
REMARK  6 active torsions:
REMARK  status: ('A' for Active; 'I' for Inactive)
REMARK    1  A    between atoms: C_2  and  C_5
REMARK    2  A    between atoms: C_8  and  C_9
REMARK    3  A    between atoms: C_13  and  C_14
REMARK    4  A    between atoms: C_14  and  N_15
REMARK    5  A    between atoms: N_15  and  C_16
REMARK    6  A    between atoms: C_21  and  C_22
REMARK                            x       y       z     vdW  Elec       q    Type
REMARK                         _______ _______ _______ _____ _____    ______ ____
ROOT
ATOM      1  C   UNL     1      45.181   5.116  10.481  0.00  0.00    +0.000 A 
ATOM      2  C   UNL     1      43.907   5.101  11.071  0.00  0.00    +0.000 A 
ATOM      3  C   UNL     1      43.610   5.905  12.173  0.00  0.00    +0.000 A 
ATOM      4  C   UNL     1      44.587   6.738  12.713  0.00  0.00    +0.000 A 
ATOM      5  C   UNL     1      45.878   6.788  12.172  0.00  0.00    +0.000 A 
ATOM      6  C   UNL     1      46.143   5.973  11.052  0.00  0.00    +0.000 A 
ENDROOT
BRANCH   1  10
ATOM      7  C   UNL     1      46.435   2.716   7.212  0.00  0.00    +0.000 A 
ATOM      8  C   UNL     1      45.768   2.098   8.269  0.00  0.00    +0.000 A 
ATOM      9  C   UNL     1      45.310   2.865   9.341  0.00  0.00    +0.000 A 
ATOM     10  C   UNL     1      45.533   4.240   9.344  0.00  0.00    +0.000 A 
ATOM     11  N   UNL     1      46.137   4.856   8.294  0.00  0.00    +0.000 NA
ATOM     12  C   UNL     1      46.574   4.094   7.266  0.00  0.00    +0.000 A 
BRANCH   7  14
ATOM     13  F   UNL     1      46.490   2.320   4.855  0.00  0.00    +0.000 F 
ATOM     14  C   UNL     1      47.016   1.960   6.059  0.00  0.00    +0.000 C 
ATOM     15  F   UNL     1      46.819   0.618   6.163  0.00  0.00    +0.000 F 
ATOM     16  F   UNL     1      48.361   2.132   5.944  0.00  0.00    +0.000 F 
ENDBRANCH   7  14
ENDBRANCH   1  10
BRANCH   5  17
ATOM     17  C   UNL     1      46.952   7.712  12.736  0.00  0.00    +0.000 C 
ATOM     18  C   UNL     1      46.462   8.874  13.592  0.00  0.00    +0.000 C 
ATOM     19  C   UNL     1      47.056   9.144  12.249  0.00  0.00    +0.000 C 
BRANCH  17  20
ATOM     20  N   UNL     1      48.174   6.985  13.175  0.00  0.00    +0.000 N 
ATOM     21  H   UNL     1      49.015   7.545  13.030  0.00  0.00    +0.000 HD
BRANCH  20  22
ATOM     22  C   UNL     1      48.187   6.383  14.455  0.00  0.00    +0.000 A 
ATOM     23  N   UNL     1      47.481   5.238  14.629  0.00  0.00    +0.000 NA
ATOM     24  C   UNL     1      47.568   4.571  15.800  0.00  0.00    +0.000 A 
ATOM     25  C   UNL     1      48.363   4.978  16.846  0.00  0.00    +0.000 A 
ATOM     26  C   UNL     1      49.083   6.150  16.681  0.00  0.00    +0.000 A 
ATOM     27  C   UNL     1      48.995   6.880  15.478  0.00  0.00    +0.000 A 
BRANCH  27  28
ATOM     28  C   UNL     1      49.754   8.166  15.370  0.00  0.00    +0.000 C 
ATOM     29  F   UNL     1      50.772   8.310  16.263  0.00  0.00    +0.000 F 
ATOM     30  F   UNL     1      50.341   8.303  14.143  0.00  0.00    +0.000 F 
ATOM     31  F   UNL     1      48.963   9.262  15.516  0.00  0.00    +0.000 F 
ENDBRANCH  27  28
ENDBRANCH  20  22
ENDBRANCH  17  20
ENDBRANCH   5  17
TORSDOF 6
ENDMDL
MODEL 3
REMARK VINA RESULT:    -6.412      1.582      2.308
REMARK INTER + INTRA:          -9.885
REMARK INTER:                  -8.720
REMARK INTRA:                  -1.164
REMARK UNBOUND:                -1.224
REMARK  Name = 
REMARK  6 active torsions:
REMARK  status: ('A' for Active; 'I' for Inactive)
REMARK    1  A    between atoms: C_2  and  C_5
REMARK    2  A    between atoms: C_8  and  C_9
REMARK    3  A    between atoms: C_13  and  C_14
REMARK    4  A    between atoms: C_14  and  N_15
REMARK    5  A    between atoms: N_15  and  C_16
REMARK    6  A    between atoms: C_21  and  C_22
REMARK                            x       y       z     vdW  Elec       q    Type
REMARK                         _______ _______ _______ _____ _____    ______ ____
ROOT
ATOM      1  C   UNL     1      48.193   6.655  13.262  0.00  0.00    +0.000 A 
ATOM      2  C   UNL     1      49.170   7.283  12.473  0.00  0.00    +0.000 A 
ATOM      3  C   UNL     1      50.183   8.050  13.051  0.00  0.00    +0.000 A 
ATOM      4  C   UNL     1      50.235   8.210  14.434  0.00  0.00    +0.000 A 
ATOM      5  C   UNL     1      49.283   7.614  15.269  0.00  0.00    +0.000 A 
ATOM      6  C   UNL     1      48.280   6.836  14.656  0.00  0.00    +0.000 A 
ENDROOT
BRANCH   1  10
ATOM      7  C   UNL     1      44.903   4.398  11.811  0.00  0.00    +0.000 A 
ATOM      8  C   UNL     1      45.283   5.542  11.108  0.00  0.00    +0.000 A 
ATOM      9  C   UNL     1      46.383   6.285  11.538  0.00  0.00    +0.000 A 
ATOM     10  C   UNL     1      47.085   5.876  12.671  0.00  0.00    +0.000 A 
ATOM     11  N   UNL     1      46.752   4.735  13.330  0.00  0.00    +0.000 NA
ATOM     12  C   UNL     1      45.681   4.031  12.897  0.00  0.00    +0.000 A 
BRANCH   7  14
ATOM     13  F   UNL     1      43.844   2.875  10.304  0.00  0.00    +0.000 F 
ATOM     14  C   UNL     1      43.698   3.586  11.458  0.00  0.00    +0.000 C 
ATOM     15  F   UNL     1      42.586   4.350  11.283  0.00  0.00    +0.000 F 
ATOM     16  F   UNL     1      43.379   2.675  12.418  0.00  0.00    +0.000 F 
ENDBRANCH   7  14
ENDBRANCH   1  10
BRANCH   5  17
ATOM     17  C   UNL     1      49.340   7.760  16.786  0.00  0.00    +0.000 C 
ATOM     18  C   UNL     1      49.844   9.096  17.320  0.00  0.00    +0.000 C 
ATOM     19  C   UNL     1      50.679   7.870  17.490  0.00  0.00    +0.000 C 
BRANCH  17  20
ATOM     20  N   UNL     1      48.188   7.120  17.477  0.00  0.00    +0.000 N 
ATOM     21  H   UNL     1      47.638   6.547  16.837  0.00  0.00    +0.000 HD
BRANCH  20  22
ATOM     22  C   UNL     1      48.417   6.434  18.693  0.00  0.00    +0.000 A 
ATOM     23  N   UNL     1      48.302   7.131  19.851  0.00  0.00    +0.000 NA
ATOM     24  C   UNL     1      48.395   6.484  21.033  0.00  0.00    +0.000 A 
ATOM     25  C   UNL     1      48.581   5.124  21.139  0.00  0.00    +0.000 A 
ATOM     26  C   UNL     1      48.704   4.404  19.962  0.00  0.00    +0.000 A 
ATOM     27  C   UNL     1      48.635   5.056  18.714  0.00  0.00    +0.000 A 
BRANCH  27  28
ATOM     28  C   UNL     1      48.826   4.239  17.474  0.00  0.00    +0.000 C 
ATOM     29  F   UNL     1      48.973   2.901  17.683  0.00  0.00    +0.000 F 
ATOM     30  F   UNL     1      47.756   4.347  16.630  0.00  0.00    +0.000 F 
ATOM     31  F   UNL     1      49.904   4.630  16.742  0.00  0.00    +0.000 F 
ENDBRANCH  27  28
ENDBRANCH  20  22
ENDBRANCH  17  20
ENDBRANCH   5  17
TORSDOF 6
ENDMDL
MODEL 4
REMARK VINA RESULT:    -6.308      2.486      3.859
REMARK INTER + INTRA:          -9.744
REMARK INTER:                  -8.228
REMARK INTRA:                  -1.517
REMARK UNBOUND:                -1.224
REMARK  Name = 
REMARK  6 active torsions:
REMARK  status: ('A' for Active; 'I' for Inactive)
REMARK    1  A    between atoms: C_2  and  C_5
REMARK    2  A    between atoms: C_8  and  C_9
REMARK    3  A    between atoms: C_13  and  C_14
REMARK    4  A    between atoms: C_14  and  N_15
REMARK    5  A    between atoms: N_15  and  C_16
REMARK    6  A    between atoms: C_21  and  C_22
REMARK                            x       y       z     vdW  Elec       q    Type
REMARK                         _______ _______ _______ _____ _____    ______ ____
ROOT
ATOM      1  C   UNL     1      47.535   4.389  15.912  0.00  0.00    +0.000 A 
ATOM      2  C   UNL     1      47.664   3.037  16.271  0.00  0.00    +0.000 A 
ATOM      3  C   UNL     1      48.142   2.665  17.528  0.00  0.00    +0.000 A 
ATOM      4  C   UNL     1      48.509   3.641  18.453  0.00  0.00    +0.000 A 
ATOM      5  C   UNL     1      48.410   5.004  18.147  0.00  0.00    +0.000 A 
ATOM      6  C   UNL     1      47.911   5.347  16.873  0.00  0.00    +0.000 A 
ENDROOT
BRANCH   1  10
ATOM      7  C   UNL     1      45.961   5.572  12.151  0.00  0.00    +0.000 A 
ATOM      8  C   UNL     1      47.026   6.300  12.681  0.00  0.00    +0.000 A 
ATOM      9  C   UNL     1      47.590   5.914  13.898  0.00  0.00    +0.000 A 
ATOM     10  C   UNL     1      47.074   4.808  14.571  0.00  0.00    +0.000 A 
ATOM     11  N   UNL     1      46.071   4.064  14.036  0.00  0.00    +0.000 NA
ATOM     12  C   UNL     1      45.538   4.457  12.857  0.00  0.00    +0.000 A 
BRANCH   7  14
ATOM     13  F   UNL     1      45.975   5.687   9.764  0.00  0.00    +0.000 F 
ATOM     14  C   UNL     1      45.256   5.957  10.889  0.00  0.00    +0.000 C 
ATOM     15  F   UNL     1      44.971   7.287  10.836  0.00  0.00    +0.000 F 
ATOM     16  F   UNL     1      44.067   5.314  10.735  0.00  0.00    +0.000 F 
ENDBRANCH   7  14
ENDBRANCH   1  10
BRANCH   5  17
ATOM     17  C   UNL     1      48.784   6.084  19.156  0.00  0.00    +0.000 C 
ATOM     18  C   UNL     1      47.993   6.096  20.459  0.00  0.00    +0.000 C 
ATOM     19  C   UNL     1      47.808   7.201  19.472  0.00  0.00    +0.000 C 
BRANCH  17  20
ATOM     20  N   UNL     1      50.249   6.336  19.225  0.00  0.00    +0.000 N 
ATOM     21  H   UNL     1      50.740   5.571  19.688  0.00  0.00    +0.000 HD
BRANCH  20  22
ATOM     22  C   UNL     1      50.929   6.727  18.047  0.00  0.00    +0.000 A 
ATOM     23  N   UNL     1      50.721   7.982  17.577  0.00  0.00    +0.000 NA
ATOM     24  C   UNL     1      51.443   8.431  16.528  0.00  0.00    +0.000 A 
ATOM     25  C   UNL     1      52.417   7.685  15.904  0.00  0.00    +0.000 A 
ATOM     26  C   UNL     1      52.634   6.400  16.375  0.00  0.00    +0.000 A 
ATOM     27  C   UNL     1      51.879   5.896  17.453  0.00  0.00    +0.000 A 
BRANCH  27  28
ATOM     28  C   UNL     1      52.118   4.484  17.889  0.00  0.00    +0.000 C 
ATOM     29  F   UNL     1      51.823   4.227  19.194  0.00  0.00    +0.000 F 
ATOM     30  F   UNL     1      51.356   3.600  17.177  0.00  0.00    +0.000 F 
ATOM     31  F   UNL     1      53.404   4.082  17.704  0.00  0.00    +0.000 F 
ENDBRANCH  27  28
ENDBRANCH  20  22
ENDBRANCH  17  20
ENDBRANCH   5  17
TORSDOF 6
ENDMDL
MODEL 5
REMARK VINA RESULT:    -6.199      2.355      7.714
REMARK INTER + INTRA:          -9.597
REMARK INTER:                  -9.643
REMARK INTRA:                   0.046
REMARK UNBOUND:                -1.224
REMARK  Name = 
REMARK  6 active torsions:
REMARK  status: ('A' for Active; 'I' for Inactive)
REMARK    1  A    between atoms: C_2  and  C_5
REMARK    2  A    between atoms: C_8  and  C_9
REMARK    3  A    between atoms: C_13  and  C_14
REMARK    4  A    between atoms: C_14  and  N_15
REMARK    5  A    between atoms: N_15  and  C_16
REMARK    6  A    between atoms: C_21  and  C_22
REMARK                            x       y       z     vdW  Elec       q    Type
REMARK                         _______ _______ _______ _____ _____    ______ ____
ROOT
ATOM      1  C   UNL     1      48.831   6.999  14.414  0.00  0.00    +0.000 A 
ATOM      2  C   UNL     1      49.897   7.476  13.634  0.00  0.00    +0.000 A 
ATOM      3  C   UNL     1      49.724   7.784  12.283  0.00  0.00    +0.000 A 
ATOM      4  C   UNL     1      48.478   7.615  11.682  0.00  0.00    +0.000 A 
ATOM      5  C   UNL     1      47.382   7.134  12.409  0.00  0.00    +0.000 A 
ATOM      6  C   UNL     1      47.586   6.844  13.774  0.00  0.00    +0.000 A 
ENDROOT
BRANCH   1  10
ATOM      7  C   UNL     1      49.483   5.722  18.410  0.00  0.00    +0.000 A 
ATOM      8  C   UNL     1      49.538   7.088  18.134  0.00  0.00    +0.000 A 
ATOM      9  C   UNL     1      49.291   7.544  16.838  0.00  0.00    +0.000 A 
ATOM     10  C   UNL     1      49.001   6.623  15.833  0.00  0.00    +0.000 A 
ATOM     11  N   UNL     1      48.896   5.295  16.105  0.00  0.00    +0.000 NA
ATOM     12  C   UNL     1      49.139   4.876  17.367  0.00  0.00    +0.000 A 
BRANCH   7  14
ATOM     13  F   UNL     1      48.881   4.238  20.184  0.00  0.00    +0.000 F 
ATOM     14  C   UNL     1      49.800   5.147  19.753  0.00  0.00    +0.000 C 
ATOM     15  F   UNL     1      49.865   6.096  20.725  0.00  0.00    +0.000 F 
ATOM     16  F   UNL     1      50.999   4.503  19.779  0.00  0.00    +0.000 F 
ENDBRANCH   7  14
ENDBRANCH   1  10
BRANCH   5  17
ATOM     17  C   UNL     1      46.007   6.966  11.772  0.00  0.00    +0.000 C 
ATOM     18  C   UNL     1      45.253   8.249  11.441  0.00  0.00    +0.000 C 
ATOM     19  C   UNL     1      44.760   7.365  12.538  0.00  0.00    +0.000 C 
BRANCH  17  20
ATOM     20  N   UNL     1      45.951   5.848  10.792  0.00  0.00    +0.000 N 
ATOM     21  H   UNL     1      46.882   5.584  10.471  0.00  0.00    +0.000 HD
BRANCH  20  22
ATOM     22  C   UNL     1      45.184   4.702  11.108  0.00  0.00    +0.000 A 
ATOM     23  N   UNL     1      44.735   4.565  12.380  0.00  0.00    +0.000 NA
ATOM     24  C   UNL     1      43.902   3.548  12.689  0.00  0.00    +0.000 A 
ATOM     25  C   UNL     1      43.450   2.632  11.766  0.00  0.00    +0.000 A 
ATOM     26  C   UNL     1      43.908   2.761  10.465  0.00  0.00    +0.000 A 
ATOM     27  C   UNL     1      44.797   3.798  10.118  0.00  0.00    +0.000 A 
BRANCH  27  28
ATOM     28  C   UNL     1      45.300   3.861   8.710  0.00  0.00    +0.000 C 
ATOM     29  F   UNL     1      46.151   2.857   8.357  0.00  0.00    +0.000 F 
ATOM     30  F   UNL     1      44.278   3.790   7.805  0.00  0.00    +0.000 F 
ATOM     31  F   UNL     1      45.949   5.024   8.431  0.00  0.00    +0.000 F 
ENDBRANCH  27  28
ENDBRANCH  20  22
ENDBRANCH  17  20
ENDBRANCH   5  17
TORSDOF 6
ENDMDL
MODEL 6
REMARK VINA RESULT:    -6.164      2.054      2.474
REMARK INTER + INTRA:          -9.549
REMARK INTER:                  -9.158
REMARK INTRA:                  -0.391
REMARK UNBOUND:                -1.224
REMARK  Name = 
REMARK  6 active torsions:
REMARK  status: ('A' for Active; 'I' for Inactive)
REMARK    1  A    between atoms: C_2  and  C_5
REMARK    2  A    between atoms: C_8  and  C_9
REMARK    3  A    between atoms: C_13  and  C_14
REMARK    4  A    between atoms: C_14  and  N_15
REMARK    5  A    between atoms: N_15  and  C_16
REMARK    6  A    between atoms: C_21  and  C_22
REMARK                            x       y       z     vdW  Elec       q    Type
REMARK                         _______ _______ _______ _____ _____    ______ ____
ROOT
ATOM      1  C   UNL     1      47.995   6.871  12.895  0.00  0.00    +0.000 A 
ATOM      2  C   UNL     1      48.685   7.810  12.111  0.00  0.00    +0.000 A 
ATOM      3  C   UNL     1      49.663   8.636  12.665  0.00  0.00    +0.000 A 
ATOM      4  C   UNL     1      49.968   8.545  14.022  0.00  0.00    +0.000 A 
ATOM      5  C   UNL     1      49.306   7.634  14.854  0.00  0.00    +0.000 A 
ATOM      6  C   UNL     1      48.331   6.805  14.261  0.00  0.00    +0.000 A 
ENDROOT
BRANCH   1  10
ATOM      7  C   UNL     1      44.797   4.428  11.544  0.00  0.00    +0.000 A 
ATOM      8  C   UNL     1      45.212   5.483  10.733  0.00  0.00    +0.000 A 
ATOM      9  C   UNL     1      46.285   6.282  11.130  0.00  0.00    +0.000 A 
ATOM     10  C   UNL     1      46.923   6.018  12.341  0.00  0.00    +0.000 A 
ATOM     11  N   UNL     1      46.556   4.961  13.113  0.00  0.00    +0.000 NA
ATOM     12  C   UNL     1      45.514   4.200  12.708  0.00  0.00    +0.000 A 
BRANCH   7  14
ATOM     13  F   UNL     1      42.432   4.244  11.248  0.00  0.00    +0.000 F 
ATOM     14  C   UNL     1      43.615   3.568  11.225  0.00  0.00    +0.000 C 
ATOM     15  F   UNL     1      43.469   2.537  12.100  0.00  0.00    +0.000 F 
ATOM     16  F   UNL     1      43.696   3.002   9.990  0.00  0.00    +0.000 F 
ENDBRANCH   7  14
ENDBRANCH   1  10
BRANCH   5  17
ATOM     17  C   UNL     1      49.644   7.505  16.335  0.00  0.00    +0.000 C 
ATOM     18  C   UNL     1      48.682   8.173  17.310  0.00  0.00    +0.000 C 
ATOM     19  C   UNL     1      50.056   8.728  17.131  0.00  0.00    +0.000 C 
BRANCH  17  20
ATOM     20  N   UNL     1      50.188   6.167  16.694  0.00  0.00    +0.000 N 
ATOM     21  H   UNL     1      50.979   6.243  17.333  0.00  0.00    +0.000 HD
BRANCH  20  22
ATOM     22  C   UNL     1      49.291   5.160  17.124  0.00  0.00    +0.000 A 
ATOM     23  N   UNL     1      48.433   4.637  16.213  0.00  0.00    +0.000 NA
ATOM     24  C   UNL     1      47.649   3.593  16.557  0.00  0.00    +0.000 A 
ATOM     25  C   UNL     1      47.681   2.997  17.797  0.00  0.00    +0.000 A 
ATOM     26  C   UNL     1      48.550   3.527  18.736  0.00  0.00    +0.000 A 
ATOM     27  C   UNL     1      49.365   4.632  18.414  0.00  0.00    +0.000 A 
BRANCH  27  28
ATOM     28  C   UNL     1      50.249   5.198  19.481  0.00  0.00    +0.000 C 
ATOM     29  F   UNL     1      50.111   4.623  20.708  0.00  0.00    +0.000 F 
ATOM     30  F   UNL     1      51.572   5.051  19.170  0.00  0.00    +0.000 F 
ATOM     31  F   UNL     1      50.068   6.534  19.665  0.00  0.00    +0.000 F 
ENDBRANCH  27  28
ENDBRANCH  20  22
ENDBRANCH  17  20
ENDBRANCH   5  17
TORSDOF 6
ENDMDL
MODEL 7
REMARK VINA RESULT:    -5.798      2.556      4.030
REMARK INTER + INTRA:          -9.055
REMARK INTER:                  -7.509
REMARK INTRA:                  -1.547
REMARK UNBOUND:                -1.224
REMARK  Name = 
REMARK  6 active torsions:
REMARK  status: ('A' for Active; 'I' for Inactive)
REMARK    1  A    between atoms: C_2  and  C_5
REMARK    2  A    between atoms: C_8  and  C_9
REMARK    3  A    between atoms: C_13  and  C_14
REMARK    4  A    between atoms: C_14  and  N_15
REMARK    5  A    between atoms: N_15  and  C_16
REMARK    6  A    between atoms: C_21  and  C_22
REMARK                            x       y       z     vdW  Elec       q    Type
REMARK                         _______ _______ _______ _____ _____    ______ ____
ROOT
ATOM      1  C   UNL     1      48.229   7.223  13.505  0.00  0.00    +0.000 A 
ATOM      2  C   UNL     1      48.512   8.434  12.852  0.00  0.00    +0.000 A 
ATOM      3  C   UNL     1      49.490   9.305  13.335  0.00  0.00    +0.000 A 
ATOM      4  C   UNL     1      50.201   8.985  14.490  0.00  0.00    +0.000 A 
ATOM      5  C   UNL     1      49.955   7.797  15.187  0.00  0.00    +0.000 A 
ATOM      6  C   UNL     1      48.971   6.932  14.667  0.00  0.00    +0.000 A 
ENDROOT
BRANCH   1  10
ATOM      7  C   UNL     1      45.312   4.569  11.934  0.00  0.00    +0.000 A 
ATOM      8  C   UNL     1      45.779   4.348  13.230  0.00  0.00    +0.000 A 
ATOM      9  C   UNL     1      46.711   5.224  13.789  0.00  0.00    +0.000 A 
ATOM     10  C   UNL     1      47.168   6.306  13.039  0.00  0.00    +0.000 A 
ATOM     11  N   UNL     1      46.679   6.557  11.796  0.00  0.00    +0.000 NA
ATOM     12  C   UNL     1      45.778   5.694  11.274  0.00  0.00    +0.000 A 
BRANCH   7  14
ATOM     13  F   UNL     1      44.971   2.859  10.300  0.00  0.00    +0.000 F 
ATOM     14  C   UNL     1      44.367   3.642  11.238  0.00  0.00    +0.000 C 
ATOM     15  F   UNL     1      43.375   4.304  10.584  0.00  0.00    +0.000 F 
ATOM     16  F   UNL     1      43.745   2.786  12.093  0.00  0.00    +0.000 F 
ENDBRANCH   7  14
ENDBRANCH   1  10
BRANCH   5  17
ATOM     17  C   UNL     1      50.742   7.420  16.438  0.00  0.00    +0.000 C 
ATOM     18  C   UNL     1      52.160   6.906  16.217  0.00  0.00    +0.000 C 
ATOM     19  C   UNL     1      51.102   5.971  16.704  0.00  0.00    +0.000 C 
BRANCH  17  20
ATOM     20  N   UNL     1      50.504   8.348  17.578  0.00  0.00    +0.000 N 
ATOM     21  H   UNL     1      50.481   9.320  17.271  0.00  0.00    +0.000 HD
BRANCH  20  22
ATOM     22  C   UNL     1      49.436   8.076  18.465  0.00  0.00    +0.000 A 
ATOM     23  N   UNL     1      49.588   7.067  19.358  0.00  0.00    +0.000 NA
ATOM     24  C   UNL     1      48.641   6.858  20.298  0.00  0.00    +0.000 A 
ATOM     25  C   UNL     1      47.514   7.638  20.425  0.00  0.00    +0.000 A 
ATOM     26  C   UNL     1      47.348   8.669  19.515  0.00  0.00    +0.000 A 
ATOM     27  C   UNL     1      48.307   8.897  18.507  0.00  0.00    +0.000 A 
BRANCH  27  28
ATOM     28  C   UNL     1      48.054   9.991  17.518  0.00  0.00    +0.000 C 
ATOM     29  F   UNL     1      49.160  10.689  17.137  0.00  0.00    +0.000 F 
ATOM     30  F   UNL     1      47.526   9.507  16.354  0.00  0.00    +0.000 F 
ATOM     31  F   UNL     1      47.159  10.913  17.965  0.00  0.00    +0.000 F 
ENDBRANCH  27  28
ENDBRANCH  20  22
ENDBRANCH  17  20
ENDBRANCH   5  17
TORSDOF 6
ENDMDL
MODEL 8
REMARK VINA RESULT:    -5.770      2.514      7.244
REMARK INTER + INTRA:          -9.018
REMARK INTER:                  -8.130
REMARK INTRA:                  -0.888
REMARK UNBOUND:                -1.224
REMARK  Name = 
REMARK  6 active torsions:
REMARK  status: ('A' for Active; 'I' for Inactive)
REMARK    1  A    between atoms: C_2  and  C_5
REMARK    2  A    between atoms: C_8  and  C_9
REMARK    3  A    between atoms: C_13  and  C_14
REMARK    4  A    between atoms: C_14  and  N_15
REMARK    5  A    between atoms: N_15  and  C_16
REMARK    6  A    between atoms: C_21  and  C_22
REMARK                            x       y       z     vdW  Elec       q    Type
REMARK                         _______ _______ _______ _____ _____    ______ ____
ROOT
ATOM      1  C   UNL     1      49.802   7.645  14.174  0.00  0.00    +0.000 A 
ATOM      2  C   UNL     1      50.701   8.294  13.312  0.00  0.00    +0.000 A 
ATOM      3  C   UNL     1      50.267   8.882  12.123  0.00  0.00    +0.000 A 
ATOM      4  C   UNL     1      48.920   8.827  11.768  0.00  0.00    +0.000 A 
ATOM      5  C   UNL     1      47.981   8.187  12.585  0.00  0.00    +0.000 A 
ATOM      6  C   UNL     1      48.449   7.613  13.785  0.00  0.00    +0.000 A 
ENDROOT
BRANCH   1  10
ATOM      7  C   UNL     1      50.967   5.494  17.644  0.00  0.00    +0.000 A 
ATOM      8  C   UNL     1      51.900   6.340  17.045  0.00  0.00    +0.000 A 
ATOM      9  C   UNL     1      51.537   7.090  15.925  0.00  0.00    +0.000 A 
ATOM     10  C   UNL     1      50.245   6.976  15.415  0.00  0.00    +0.000 A 
ATOM     11  N   UNL     1      49.316   6.192  16.023  0.00  0.00    +0.000 NA
ATOM     12  C   UNL     1      49.690   5.474  17.106  0.00  0.00    +0.000 A 
BRANCH   7  14
ATOM     13  F   UNL     1      50.240   4.404  19.643  0.00  0.00    +0.000 F 
ATOM     14  C   UNL     1      51.294   4.608  18.803  0.00  0.00    +0.000 C 
ATOM     15  F   UNL     1      52.293   5.109  19.578  0.00  0.00    +0.000 F 
ATOM     16  F   UNL     1      51.706   3.369  18.417  0.00  0.00    +0.000 F 
ENDBRANCH   7  14
ENDBRANCH   1  10
BRANCH   5  17
ATOM     17  C   UNL     1      46.500   8.139  12.223  0.00  0.00    +0.000 C 
ATOM     18  C   UNL     1      45.857   9.464  11.830  0.00  0.00    +0.000 C 
ATOM     19  C   UNL     1      45.476   8.811  13.117  0.00  0.00    +0.000 C 
BRANCH  17  20
ATOM     20  N   UNL     1      46.127   6.924  11.449  0.00  0.00    +0.000 N 
ATOM     21  H   UNL     1      46.926   6.303  11.319  0.00  0.00    +0.000 HD
BRANCH  20  22
ATOM     22  C   UNL     1      44.981   6.192  11.838  0.00  0.00    +0.000 A 
ATOM     23  N   UNL     1      43.782   6.562  11.322  0.00  0.00    +0.000 NA
ATOM     24  C   UNL     1      42.686   5.814  11.575  0.00  0.00    +0.000 A 
ATOM     25  C   UNL     1      42.714   4.660  12.325  0.00  0.00    +0.000 A 
ATOM     26  C   UNL     1      43.933   4.277  12.861  0.00  0.00    +0.000 A 
ATOM     27  C   UNL     1      45.089   5.051  12.633  0.00  0.00    +0.000 A 
BRANCH  27  28
ATOM     28  C   UNL     1      46.370   4.621  13.277  0.00  0.00    +0.000 C 
ATOM     29  F   UNL     1      46.523   3.274  13.412  0.00  0.00    +0.000 F 
ATOM     30  F   UNL     1      47.458   5.027  12.556  0.00  0.00    +0.000 F 
ATOM     31  F   UNL     1      46.543   5.149  14.518  0.00  0.00    +0.000 F 
ENDBRANCH  27  28
ENDBRANCH  20  22
ENDBRANCH  17  20
ENDBRANCH   5  17
TORSDOF 6
ENDMDL
MODEL 9
REMARK VINA RESULT:    -5.650      3.720      8.043
REMARK INTER + INTRA:          -8.856
REMARK INTER:                  -7.528
REMARK INTRA:                  -1.328
REMARK UNBOUND:                -1.224
REMARK  Name = 
REMARK  6 active torsions:
REMARK  status: ('A' for Active; 'I' for Inactive)
REMARK    1  A    between atoms: C_2  and  C_5
REMARK    2  A    between atoms: C_8  and  C_9
REMARK    3  A    between atoms: C_13  and  C_14
REMARK    4  A    between atoms: C_14  and  N_15
REMARK    5  A    between atoms: N_15  and  C_16
REMARK    6  A    between atoms: C_21  and  C_22
REMARK                            x       y       z     vdW  Elec       q    Type
REMARK                         _______ _______ _______ _____ _____    ______ ____
ROOT
ATOM      1  C   UNL     1      50.031   4.424  17.887  0.00  0.00    +0.000 A 
ATOM      2  C   UNL     1      49.097   4.494  18.934  0.00  0.00    +0.000 A 
ATOM      3  C   UNL     1      48.221   5.575  19.051  0.00  0.00    +0.000 A 
ATOM      4  C   UNL     1      48.266   6.613  18.124  0.00  0.00    +0.000 A 
ATOM      5  C   UNL     1      49.182   6.602  17.065  0.00  0.00    +0.000 A 
ATOM      6  C   UNL     1      50.044   5.491  16.967  0.00  0.00    +0.000 A 
ENDROOT
BRANCH   1  10
ATOM      7  C   UNL     1      52.908   1.305  17.786  0.00  0.00    +0.000 A 
ATOM      8  C   UNL     1      51.598   1.009  17.410  0.00  0.00    +0.000 A 
ATOM      9  C   UNL     1      50.637   2.021  17.396  0.00  0.00    +0.000 A 
ATOM     10  C   UNL     1      50.999   3.314  17.768  0.00  0.00    +0.000 A 
ATOM     11  N   UNL     1      52.284   3.620  18.086  0.00  0.00    +0.000 NA
ATOM     12  C   UNL     1      53.199   2.624  18.093  0.00  0.00    +0.000 A 
BRANCH   7  14
ATOM     13  F   UNL     1      54.414  -0.189  16.684  0.00  0.00    +0.000 F 
ATOM     14  C   UNL     1      53.980   0.268  17.893  0.00  0.00    +0.000 C 
ATOM     15  F   UNL     1      53.575  -0.834  18.580  0.00  0.00    +0.000 F 
ATOM     16  F   UNL     1      55.089   0.723  18.537  0.00  0.00    +0.000 F 
ENDBRANCH   7  14
ENDBRANCH   1  10
BRANCH   5  17
ATOM     17  C   UNL     1      49.227   7.719  16.028  0.00  0.00    +0.000 C 
ATOM     18  C   UNL     1      49.712   9.078  16.518  0.00  0.00    +0.000 C 
ATOM     19  C   UNL     1      48.279   8.898  16.138  0.00  0.00    +0.000 C 
BRANCH  17  20
ATOM     20  N   UNL     1      49.682   7.254  14.689  0.00  0.00    +0.000 N 
ATOM     21  H   UNL     1      50.408   6.542  14.767  0.00  0.00    +0.000 HD
BRANCH  20  22
ATOM     22  C   UNL     1      48.711   6.879  13.731  0.00  0.00    +0.000 A 
ATOM     23  N   UNL     1      47.948   5.788  13.988  0.00  0.00    +0.000 NA
ATOM     24  C   UNL     1      46.933   5.471  13.157  0.00  0.00    +0.000 A 
ATOM     25  C   UNL     1      46.601   6.217  12.049  0.00  0.00    +0.000 A 
ATOM     26  C   UNL     1      47.377   7.331  11.775  0.00  0.00    +0.000 A 
ATOM     27  C   UNL     1      48.459   7.673  12.612  0.00  0.00    +0.000 A 
BRANCH  27  28
ATOM     28  C   UNL     1      49.297   8.856  12.242  0.00  0.00    +0.000 C 
ATOM     29  F   UNL     1      50.626   8.596  12.090  0.00  0.00    +0.000 F 
ATOM     30  F   UNL     1      48.907   9.398  11.049  0.00  0.00    +0.000 F 
ATOM     31  F   UNL     1      49.210   9.870  13.145  0.00  0.00    +0.000 F 
ENDBRANCH  27  28
ENDBRANCH  20  22
ENDBRANCH  17  20
ENDBRANCH   5  17
TORSDOF 6
ENDMDL
