MODEL 1
REMARK VINA RESULT:    -8.295      0.000      0.000
REMARK INTER + INTRA:         -12.116
REMARK INTER:                 -11.205
REMARK INTRA:                  -0.911
REMARK UNBOUND:                -0.911
REMARK  Name = 
REMARK  6 active torsions:
REMARK  status: ('A' for Active; 'I' for Inactive)
REMARK    1  A    between atoms: C_2  and  C_25
REMARK    2  A    between atoms: N_3  and  C_4
REMARK    3  A    between atoms: C_4  and  C_5
REMARK    4  A    between atoms: C_8  and  C_9
REMARK    5  A    between atoms: C_9  and  N_10
REMARK    6  A    between atoms: C_11  and  C_13
REMARK                            x       y       z     vdW  Elec       q    Type
REMARK                         _______ _______ _______ _____ _____    ______ ____
ROOT
ATOM      1  C   UNL     1      44.992   4.680  12.214  0.00  0.00    +0.000 A 
ATOM      2  C   UNL     1      44.483   5.973  12.113  0.00  0.00    +0.000 A 
ATOM      3  C   UNL     1      45.230   7.038  12.617  0.00  0.00    +0.000 A 
ATOM      4  C   UNL     1      46.457   6.794  13.235  0.00  0.00    +0.000 A 
ATOM      5  C   UNL     1      46.888   5.473  13.288  0.00  0.00    +0.000 A 
ATOM      6  N   UNL     1      46.186   4.419  12.804  0.00  0.00    +0.000 NA
ENDROOT
BRANCH   1   7
ATOM      7  C   UNL     1      44.217   3.515  11.646  0.00  0.00    +0.000 C 
BRANCH   7  10
ATOM      8  O   UNL     1      44.096   4.281   8.950  0.00  0.00    +0.000 OA
ATOM      9  C   UNL     1      44.828   3.345   9.270  0.00  0.00    +0.000 C 
ATOM     10  N   UNL     1      44.903   2.854  10.555  0.00  0.00    +0.000 N 
ATOM     11  H   UNL     1      45.647   2.192  10.758  0.00  0.00    +0.000 HD
BRANCH   9  12
ATOM     12  C   UNL     1      45.699   2.673   8.253  0.00  0.00    +0.000 A 
ATOM     13  C   UNL     1      46.051   3.369   7.099  0.00  0.00    +0.000 A 
ATOM     14  C   UNL     1      46.838   2.721   6.152  0.00  0.00    +0.000 A 
ATOM     15  C   UNL     1      47.242   1.413   6.387  0.00  0.00    +0.000 A 
ATOM     16  C   UNL     1      46.849   0.800   7.569  0.00  0.00    +0.000 A 
ATOM     17  N   UNL     1      46.088   1.396   8.516  0.00  0.00    +0.000 NA
ENDBRANCH   9  12
ENDBRANCH   7  10
ENDBRANCH   1   7
BRANCH   4  18
ATOM     18  C   UNL     1      47.306   7.911  13.773  0.00  0.00    +0.000 C 
BRANCH  18  19
ATOM     19  N   UNL     1      47.836   7.578  15.070  0.00  0.00    +0.000 N 
ATOM     20  C   UNL     1      49.122   7.137  15.239  0.00  0.00    +0.000 C 
ATOM     21  O   UNL     1      49.912   7.048  14.301  0.00  0.00    +0.000 OA
ATOM     22  H   UNL     1      47.158   7.397  15.803  0.00  0.00    +0.000 HD
BRANCH  20  23
ATOM     23  C   UNL     1      49.528   6.842  16.620  0.00  0.00    +0.000 A 
ATOM     24  C   UNL     1      50.533   7.587  17.224  0.00  0.00    +0.000 A 
ATOM     25  S   UNL     1      50.810   7.163  18.854  0.00  0.00    +0.000 S 
ATOM     26  C   UNL     1      49.638   5.932  18.793  0.00  0.00    +0.000 A 
ATOM     27  N   UNL     1      49.378   5.154  19.878  0.00  0.00    +0.000 NA
ATOM     28  C   UNL     1      48.484   4.243  19.682  0.00  0.00    +0.000 A 
ATOM     29  N   UNL     1      47.828   4.036  18.497  0.00  0.00    +0.000 N 
ATOM     30  C   UNL     1      48.046   4.806  17.380  0.00  0.00    +0.000 A 
ATOM     31  O   UNL     1      47.424   4.609  16.341  0.00  0.00    +0.000 OA
ATOM     32  C   UNL     1      49.039   5.851  17.548  0.00  0.00    +0.000 A 
ATOM     33  H   UNL     1      47.138   3.305  18.407  0.00  0.00    +0.000 HD
ENDBRANCH  20  23
ENDBRANCH  18  19
ENDBRANCH   4  18
TORSDOF 6
ENDMDL
MODEL 2
REMARK VINA RESULT:    -7.659      3.871      5.025
REMARK INTER + INTRA:         -11.256
REMARK INTER:                 -10.175
REMARK INTRA:                  -1.081
REMARK UNBOUND:                -0.911
REMARK  Name = 
REMARK  6 active torsions:
REMARK  status: ('A' for Active; 'I' for Inactive)
REMARK    1  A    between atoms: C_2  and  C_25
REMARK    2  A    between atoms: N_3  and  C_4
REMARK    3  A    between atoms: C_4  and  C_5
REMARK    4  A    between atoms: C_8  and  C_9
REMARK    5  A    between atoms: C_9  and  N_10
REMARK    6  A    between atoms: C_11  and  C_13
REMARK                            x       y       z     vdW  Elec       q    Type
REMARK                         _______ _______ _______ _____ _____    ______ ____
ROOT
ATOM      1  C   UNL     1      44.860   4.866  12.134  0.00  0.00    +0.000 A 
ATOM      2  C   UNL     1      44.096   5.920  11.635  0.00  0.00    +0.000 A 
ATOM      3  C   UNL     1      44.503   7.230  11.883  0.00  0.00    +0.000 A 
ATOM      4  C   UNL     1      45.648   7.469  12.646  0.00  0.00    +0.000 A 
ATOM      5  C   UNL     1      46.350   6.358  13.099  0.00  0.00    +0.000 A 
ATOM      6  N   UNL     1      45.981   5.073  12.870  0.00  0.00    +0.000 NA
ENDROOT
BRANCH   1   7
ATOM      7  C   UNL     1      44.457   3.439  11.848  0.00  0.00    +0.000 C 
BRANCH   7  10
ATOM      8  O   UNL     1      43.764   3.631   9.137  0.00  0.00    +0.000 OA
ATOM      9  C   UNL     1      44.806   3.053   9.444  0.00  0.00    +0.000 C 
ATOM     10  N   UNL     1      45.195   2.849  10.751  0.00  0.00    +0.000 N 
ATOM     11  H   UNL     1      46.140   2.508  10.907  0.00  0.00    +0.000 HD
BRANCH   9  12
ATOM     12  C   UNL     1      45.729   2.525   8.389  0.00  0.00    +0.000 A 
ATOM     13  C   UNL     1      46.160   3.382   7.379  0.00  0.00    +0.000 A 
ATOM     14  C   UNL     1      46.995   2.870   6.391  0.00  0.00    +0.000 A 
ATOM     15  C   UNL     1      47.368   1.532   6.444  0.00  0.00    +0.000 A 
ATOM     16  C   UNL     1      46.894   0.754   7.493  0.00  0.00    +0.000 A 
ATOM     17  N   UNL     1      46.084   1.215   8.475  0.00  0.00    +0.000 NA
ENDBRANCH   9  12
ENDBRANCH   7  10
ENDBRANCH   1   7
BRANCH   4  18
ATOM     18  C   UNL     1      46.136   8.864  12.921  0.00  0.00    +0.000 C 
BRANCH  18  19
ATOM     19  N   UNL     1      47.347   9.139  12.191  0.00  0.00    +0.000 N 
ATOM     20  C   UNL     1      48.349   9.917  12.711  0.00  0.00    +0.000 C 
ATOM     21  O   UNL     1      48.293  10.382  13.847  0.00  0.00    +0.000 OA
ATOM     22  H   UNL     1      47.314   8.993  11.187  0.00  0.00    +0.000 HD
BRANCH  20  23
ATOM     23  C   UNL     1      49.530  10.106  11.857  0.00  0.00    +0.000 A 
ATOM     24  C   UNL     1      49.876  11.379  11.422  0.00  0.00    +0.000 A 
ATOM     25  S   UNL     1      51.321  11.419  10.514  0.00  0.00    +0.000 S 
ATOM     26  C   UNL     1      51.503   9.731  10.622  0.00  0.00    +0.000 A 
ATOM     27  N   UNL     1      52.554   9.099  10.033  0.00  0.00    +0.000 NA
ATOM     28  C   UNL     1      52.551   7.815  10.172  0.00  0.00    +0.000 A 
ATOM     29  N   UNL     1      51.591   7.105  10.844  0.00  0.00    +0.000 N 
ATOM     30  C   UNL     1      50.522   7.701  11.466  0.00  0.00    +0.000 A 
ATOM     31  O   UNL     1      49.692   7.038  12.080  0.00  0.00    +0.000 OA
ATOM     32  C   UNL     1      50.479   9.147  11.346  0.00  0.00    +0.000 A 
ATOM     33  H   UNL     1      51.646   6.100  10.918  0.00  0.00    +0.000 HD
ENDBRANCH  20  23
ENDBRANCH  18  19
ENDBRANCH   4  18
TORSDOF 6
ENDMDL
MODEL 3
REMARK VINA RESULT:    -7.387      3.152      8.911
REMARK INTER + INTRA:         -10.889
REMARK INTER:                  -9.930
REMARK INTRA:                  -0.959
REMARK UNBOUND:                -0.911
REMARK  Name = 
REMARK  6 active torsions:
REMARK  status: ('A' for Active; 'I' for Inactive)
REMARK    1  A    between atoms: C_2  and  C_25
REMARK    2  A    between atoms: N_3  and  C_4
REMARK    3  A    between atoms: C_4  and  C_5
REMARK    4  A    between atoms: C_8  and  C_9
REMARK    5  A    between atoms: C_9  and  N_10
REMARK    6  A    between atoms: C_11  and  C_13
REMARK                            x       y       z     vdW  Elec       q    Type
REMARK                         _______ _______ _______ _____ _____    ______ ____
ROOT
ATOM      1  C   UNL     1      49.470   7.730  15.643  0.00  0.00    +0.000 A 
ATOM      2  C   UNL     1      48.532   8.756  15.540  0.00  0.00    +0.000 A 
ATOM      3  C   UNL     1      47.746   8.845  14.392  0.00  0.00    +0.000 A 
ATOM      4  C   UNL     1      47.925   7.927  13.356  0.00  0.00    +0.000 A 
ATOM      5  C   UNL     1      48.880   6.934  13.546  0.00  0.00    +0.000 A 
ATOM      6  N   UNL     1      49.656   6.822  14.653  0.00  0.00    +0.000 NA
ENDROOT
BRANCH   1   7
ATOM      7  C   UNL     1      50.309   7.595  16.892  0.00  0.00    +0.000 C 
BRANCH   7  10
ATOM      8  O   UNL     1      49.261   5.492  18.423  0.00  0.00    +0.000 OA
ATOM      9  C   UNL     1      50.281   5.295  17.763  0.00  0.00    +0.000 C 
ATOM     10  N   UNL     1      50.907   6.284  17.035  0.00  0.00    +0.000 N 
ATOM     11  H   UNL     1      51.644   5.996  16.397  0.00  0.00    +0.000 HD
BRANCH   9  12
ATOM     12  C   UNL     1      50.913   3.938  17.715  0.00  0.00    +0.000 A 
ATOM     13  C   UNL     1      52.199   3.774  18.225  0.00  0.00    +0.000 A 
ATOM     14  C   UNL     1      52.783   2.513  18.149  0.00  0.00    +0.000 A 
ATOM     15  C   UNL     1      52.070   1.470  17.571  0.00  0.00    +0.000 A 
ATOM     16  C   UNL     1      50.791   1.726  17.094  0.00  0.00    +0.000 A 
ATOM     17  N   UNL     1      50.187   2.935  17.153  0.00  0.00    +0.000 NA
ENDBRANCH   9  12
ENDBRANCH   7  10
ENDBRANCH   1   7
BRANCH   4  18
ATOM     18  C   UNL     1      47.086   7.970  12.110  0.00  0.00    +0.000 C 
BRANCH  18  19
ATOM     19  N   UNL     1      46.485   6.687  11.848  0.00  0.00    +0.000 N 
ATOM     20  C   UNL     1      45.134   6.538  11.675  0.00  0.00    +0.000 C 
ATOM     21  O   UNL     1      44.363   7.496  11.684  0.00  0.00    +0.000 OA
ATOM     22  H   UNL     1      47.040   5.871  12.085  0.00  0.00    +0.000 HD
BRANCH  20  23
ATOM     23  C   UNL     1      44.663   5.171  11.407  0.00  0.00    +0.000 A 
ATOM     24  C   UNL     1      43.918   4.493  12.364  0.00  0.00    +0.000 A 
ATOM     25  S   UNL     1      43.385   2.956  11.847  0.00  0.00    +0.000 S 
ATOM     26  C   UNL     1      44.178   3.120  10.351  0.00  0.00    +0.000 A 
ATOM     27  N   UNL     1      44.133   2.129   9.420  0.00  0.00    +0.000 NA
ATOM     28  C   UNL     1      44.801   2.377   8.343  0.00  0.00    +0.000 A 
ATOM     29  N   UNL     1      45.513   3.525   8.114  0.00  0.00    +0.000 N 
ATOM     30  C   UNL     1      45.574   4.558   9.017  0.00  0.00    +0.000 A 
ATOM     31  O   UNL     1      46.202   5.583   8.770  0.00  0.00    +0.000 OA
ATOM     32  C   UNL     1      44.834   4.334  10.245  0.00  0.00    +0.000 A 
ATOM     33  H   UNL     1      46.016   3.660   7.249  0.00  0.00    +0.000 HD
ENDBRANCH  20  23
ENDBRANCH  18  19
ENDBRANCH   4  18
TORSDOF 6
ENDMDL
MODEL 4
REMARK VINA RESULT:    -7.341      1.886      2.470
REMARK INTER + INTRA:         -10.826
REMARK INTER:                 -10.338
REMARK INTRA:                  -0.488
REMARK UNBOUND:                -0.911
REMARK  Name = 
REMARK  6 active torsions:
REMARK  status: ('A' for Active; 'I' for Inactive)
REMARK    1  A    between atoms: C_2  and  C_25
REMARK    2  A    between atoms: N_3  and  C_4
REMARK    3  A    between atoms: C_4  and  C_5
REMARK    4  A    between atoms: C_8  and  C_9
REMARK    5  A    between atoms: C_9  and  N_10
REMARK    6  A    between atoms: C_11  and  C_13
REMARK                            x       y       z     vdW  Elec       q    Type
REMARK                         _______ _______ _______ _____ _____    ______ ____
ROOT
ATOM      1  C   UNL     1      45.032   4.098  12.320  0.00  0.00    +0.000 A 
ATOM      2  C   UNL     1      44.763   5.457  12.164  0.00  0.00    +0.000 A 
ATOM      3  C   UNL     1      45.567   6.387  12.821  0.00  0.00    +0.000 A 
ATOM      4  C   UNL     1      46.607   5.949  13.643  0.00  0.00    +0.000 A 
ATOM      5  C   UNL     1      46.804   4.576  13.737  0.00  0.00    +0.000 A 
ATOM      6  N   UNL     1      46.042   3.648  13.107  0.00  0.00    +0.000 NA
ENDROOT
BRANCH   1   7
ATOM      7  C   UNL     1      44.196   3.073  11.591  0.00  0.00    +0.000 C 
BRANCH   7  10
ATOM      8  O   UNL     1      44.254   4.240   9.041  0.00  0.00    +0.000 OA
ATOM      9  C   UNL     1      44.884   3.201   9.234  0.00  0.00    +0.000 C 
ATOM     10  N   UNL     1      44.861   2.519  10.431  0.00  0.00    +0.000 N 
ATOM     11  H   UNL     1      45.532   1.765  10.550  0.00  0.00    +0.000 HD
BRANCH   9  12
ATOM     12  C   UNL     1      45.729   2.606   8.150  0.00  0.00    +0.000 A 
ATOM     13  C   UNL     1      45.964   3.346   6.993  0.00  0.00    +0.000 A 
ATOM     14  C   UNL     1      46.729   2.770   5.984  0.00  0.00    +0.000 A 
ATOM     15  C   UNL     1      47.227   1.485   6.161  0.00  0.00    +0.000 A 
ATOM     16  C   UNL     1      46.947   0.824   7.350  0.00  0.00    +0.000 A 
ATOM     17  N   UNL     1      46.212   1.351   8.357  0.00  0.00    +0.000 NA
ENDBRANCH   9  12
ENDBRANCH   7  10
ENDBRANCH   1   7
BRANCH   4  18
ATOM     18  C   UNL     1      47.512   6.916  14.353  0.00  0.00    +0.000 C 
BRANCH  18  19
ATOM     19  N   UNL     1      48.263   6.253  15.389  0.00  0.00    +0.000 N 
ATOM     20  C   UNL     1      49.406   6.794  15.918  0.00  0.00    +0.000 C 
ATOM     21  O   UNL     1      49.829   7.895  15.575  0.00  0.00    +0.000 OA
ATOM     22  H   UNL     1      48.093   5.259  15.505  0.00  0.00    +0.000 HD
BRANCH  20  23
ATOM     23  C   UNL     1      50.063   6.009  16.973  0.00  0.00    +0.000 A 
ATOM     24  C   UNL     1      49.298   5.367  17.940  0.00  0.00    +0.000 A 
ATOM     25  S   UNL     1      50.223   4.434  19.030  0.00  0.00    +0.000 S 
ATOM     26  C   UNL     1      51.679   4.901  18.284  0.00  0.00    +0.000 A 
ATOM     27  N   UNL     1      52.878   4.456  18.746  0.00  0.00    +0.000 NA
ATOM     28  C   UNL     1      53.902   4.911  18.102  0.00  0.00    +0.000 A 
ATOM     29  N   UNL     1      53.834   5.774  17.040  0.00  0.00    +0.000 N 
ATOM     30  C   UNL     1      52.645   6.237  16.530  0.00  0.00    +0.000 A 
ATOM     31  O   UNL     1      52.619   6.991  15.562  0.00  0.00    +0.000 OA
ATOM     32  C   UNL     1      51.462   5.751  17.214  0.00  0.00    +0.000 A 
ATOM     33  H   UNL     1      54.672   6.094  16.577  0.00  0.00    +0.000 HD
ENDBRANCH  20  23
ENDBRANCH  18  19
ENDBRANCH   4  18
TORSDOF 6
ENDMDL
MODEL 5
REMARK VINA RESULT:    -7.302      1.730      2.016
REMARK INTER + INTRA:         -10.775
REMARK INTER:                  -9.753
REMARK INTRA:                  -1.022
REMARK UNBOUND:                -0.911
REMARK  Name = 
REMARK  6 active torsions:
REMARK  status: ('A' for Active; 'I' for Inactive)
REMARK    1  A    between atoms: C_2  and  C_25
REMARK    2  A    between atoms: N_3  and  C_4
REMARK    3  A    between atoms: C_4  and  C_5
REMARK    4  A    between atoms: C_8  and  C_9
REMARK    5  A    between atoms: C_9  and  N_10
REMARK    6  A    between atoms: C_11  and  C_13
REMARK                            x       y       z     vdW  Elec       q    Type
REMARK                         _______ _______ _______ _____ _____    ______ ____
ROOT
ATOM      1  C   UNL     1      45.302   6.866  11.805  0.00  0.00    +0.000 A 
ATOM      2  C   UNL     1      45.136   8.224  12.071  0.00  0.00    +0.000 A 
ATOM      3  C   UNL     1      46.011   8.855  12.955  0.00  0.00    +0.000 A 
ATOM      4  C   UNL     1      47.021   8.118  13.577  0.00  0.00    +0.000 A 
ATOM      5  C   UNL     1      47.115   6.769  13.249  0.00  0.00    +0.000 A 
ATOM      6  N   UNL     1      46.281   6.131  12.391  0.00  0.00    +0.000 NA
ENDROOT
BRANCH   1   7
ATOM      7  C   UNL     1      44.387   6.170  10.826  0.00  0.00    +0.000 C 
BRANCH   7  10
ATOM      8  O   UNL     1      44.294   3.371  10.670  0.00  0.00    +0.000 OA
ATOM      9  C   UNL     1      44.940   3.992   9.826  0.00  0.00    +0.000 C 
ATOM     10  N   UNL     1      45.100   5.360   9.860  0.00  0.00    +0.000 N 
ATOM     11  H   UNL     1      45.510   5.801   9.041  0.00  0.00    +0.000 HD
BRANCH   9  12
ATOM     12  C   UNL     1      45.604   3.276   8.691  0.00  0.00    +0.000 A 
ATOM     13  C   UNL     1      45.749   1.892   8.757  0.00  0.00    +0.000 A 
ATOM     14  C   UNL     1      46.392   1.244   7.707  0.00  0.00    +0.000 A 
ATOM     15  C   UNL     1      46.865   1.993   6.637  0.00  0.00    +0.000 A 
ATOM     16  C   UNL     1      46.670   3.368   6.653  0.00  0.00    +0.000 A 
ATOM     17  N   UNL     1      46.046   4.034   7.652  0.00  0.00    +0.000 NA
ENDBRANCH   9  12
ENDBRANCH   7  10
ENDBRANCH   1   7
BRANCH   4  18
ATOM     18  C   UNL     1      48.000   8.759  14.519  0.00  0.00    +0.000 C 
BRANCH  18  19
ATOM     19  N   UNL     1      48.861   7.772  15.119  0.00  0.00    +0.000 N 
ATOM     20  C   UNL     1      49.014   7.671  16.477  0.00  0.00    +0.000 C 
ATOM     21  O   UNL     1      48.390   8.382  17.261  0.00  0.00    +0.000 OA
ATOM     22  H   UNL     1      49.564   7.357  14.516  0.00  0.00    +0.000 HD
BRANCH  20  23
ATOM     23  C   UNL     1      49.919   6.611  16.948  0.00  0.00    +0.000 A 
ATOM     24  C   UNL     1      51.192   6.935  17.399  0.00  0.00    +0.000 A 
ATOM     25  S   UNL     1      52.068   5.593  17.987  0.00  0.00    +0.000 S 
ATOM     26  C   UNL     1      50.798   4.526  17.606  0.00  0.00    +0.000 A 
ATOM     27  N   UNL     1      50.906   3.191  17.848  0.00  0.00    +0.000 NA
ATOM     28  C   UNL     1      49.879   2.497  17.485  0.00  0.00    +0.000 A 
ATOM     29  N   UNL     1      48.755   3.017  16.899  0.00  0.00    +0.000 N 
ATOM     30  C   UNL     1      48.595   4.358  16.651  0.00  0.00    +0.000 A 
ATOM     31  O   UNL     1      47.565   4.793  16.146  0.00  0.00    +0.000 OA
ATOM     32  C   UNL     1      49.719   5.186  17.046  0.00  0.00    +0.000 A 
ATOM     33  H   UNL     1      47.983   2.420  16.638  0.00  0.00    +0.000 HD
ENDBRANCH  20  23
ENDBRANCH  18  19
ENDBRANCH   4  18
TORSDOF 6
ENDMDL
MODEL 6
REMARK VINA RESULT:    -6.928      3.599      4.575
REMARK INTER + INTRA:         -10.269
REMARK INTER:                  -9.355
REMARK INTRA:                  -0.914
REMARK UNBOUND:                -0.911
REMARK  Name = 
REMARK  6 active torsions:
REMARK  status: ('A' for Active; 'I' for Inactive)
REMARK    1  A    between atoms: C_2  and  C_25
REMARK    2  A    between atoms: N_3  and  C_4
REMARK    3  A    between atoms: C_4  and  C_5
REMARK    4  A    between atoms: C_8  and  C_9
REMARK    5  A    between atoms: C_9  and  N_10
REMARK    6  A    between atoms: C_11  and  C_13
REMARK                            x       y       z     vdW  Elec       q    Type
REMARK                         _______ _______ _______ _____ _____    ______ ____
ROOT
ATOM      1  C   UNL     1      47.227   6.120  13.928  0.00  0.00    +0.000 A 
ATOM      2  C   UNL     1      46.736   4.880  14.331  0.00  0.00    +0.000 A 
ATOM      3  C   UNL     1      47.196   4.323  15.524  0.00  0.00    +0.000 A 
ATOM      4  C   UNL     1      48.156   4.997  16.280  0.00  0.00    +0.000 A 
ATOM      5  C   UNL     1      48.586   6.231  15.803  0.00  0.00    +0.000 A 
ATOM      6  N   UNL     1      48.154   6.799  14.650  0.00  0.00    +0.000 NA
ENDROOT
BRANCH   1   7
ATOM      7  C   UNL     1      46.717   6.758  12.657  0.00  0.00    +0.000 C 
BRANCH   7  10
ATOM      8  O   UNL     1      44.323   6.269  11.281  0.00  0.00    +0.000 OA
ATOM      9  C   UNL     1      45.346   5.689  10.919  0.00  0.00    +0.000 C 
ATOM     10  N   UNL     1      46.552   5.813  11.573  0.00  0.00    +0.000 N 
ATOM     11  H   UNL     1      47.373   5.428  11.113  0.00  0.00    +0.000 HD
BRANCH   9  12
ATOM     12  C   UNL     1      45.334   4.794   9.718  0.00  0.00    +0.000 A 
ATOM     13  C   UNL     1      44.532   3.655   9.732  0.00  0.00    +0.000 A 
ATOM     14  C   UNL     1      44.552   2.819   8.620  0.00  0.00    +0.000 A 
ATOM     15  C   UNL     1      45.366   3.145   7.542  0.00  0.00    +0.000 A 
ATOM     16  C   UNL     1      46.127   4.305   7.613  0.00  0.00    +0.000 A 
ATOM     17  N   UNL     1      46.132   5.145   8.674  0.00  0.00    +0.000 NA
ENDBRANCH   9  12
ENDBRANCH   7  10
ENDBRANCH   1   7
BRANCH   4  18
ATOM     18  C   UNL     1      48.665   4.446  17.582  0.00  0.00    +0.000 C 
BRANCH  18  19
ATOM     19  N   UNL     1      50.050   4.061  17.473  0.00  0.00    +0.000 N 
ATOM     20  C   UNL     1      50.929   4.207  18.514  0.00  0.00    +0.000 C 
ATOM     21  O   UNL     1      50.577   4.627  19.614  0.00  0.00    +0.000 OA
ATOM     22  H   UNL     1      50.418   3.959  16.533  0.00  0.00    +0.000 HD
BRANCH  20  23
ATOM     23  C   UNL     1      52.308   3.764  18.261  0.00  0.00    +0.000 A 
ATOM     24  C   UNL     1      53.364   4.652  18.427  0.00  0.00    +0.000 A 
ATOM     25  S   UNL     1      54.896   3.942  18.174  0.00  0.00    +0.000 S 
ATOM     26  C   UNL     1      54.199   2.442  17.780  0.00  0.00    +0.000 A 
ATOM     27  N   UNL     1      54.973   1.375  17.442  0.00  0.00    +0.000 NA
ATOM     28  C   UNL     1      54.311   0.308  17.140  0.00  0.00    +0.000 A 
ATOM     29  N   UNL     1      52.944   0.211  17.143  0.00  0.00    +0.000 N 
ATOM     30  C   UNL     1      52.123   1.256  17.492  0.00  0.00    +0.000 A 
ATOM     31  O   UNL     1      50.903   1.128  17.507  0.00  0.00    +0.000 OA
ATOM     32  C   UNL     1      52.817   2.480  17.847  0.00  0.00    +0.000 A 
ATOM     33  H   UNL     1      52.485  -0.653  16.897  0.00  0.00    +0.000 HD
ENDBRANCH  20  23
ENDBRANCH  18  19
ENDBRANCH   4  18
TORSDOF 6
ENDMDL
MODEL 7
REMARK VINA RESULT:    -6.697      3.696      5.187
REMARK INTER + INTRA:          -9.957
REMARK INTER:                  -9.304
REMARK INTRA:                  -0.654
REMARK UNBOUND:                -0.911
REMARK  Name = 
REMARK  6 active torsions:
REMARK  status: ('A' for Active; 'I' for Inactive)
REMARK    1  A    between atoms: C_2  and  C_25
REMARK    2  A    between atoms: N_3  and  C_4
REMARK    3  A    between atoms: C_4  and  C_5
REMARK    4  A    between atoms: C_8  and  C_9
REMARK    5  A    between atoms: C_9  and  N_10
REMARK    6  A    between atoms: C_11  and  C_13
REMARK                            x       y       z     vdW  Elec       q    Type
REMARK                         _______ _______ _______ _____ _____    ______ ____
ROOT
ATOM      1  C   UNL     1      47.693   5.561  14.793  0.00  0.00    +0.000 A 
ATOM      2  C   UNL     1      47.058   4.368  15.133  0.00  0.00    +0.000 A 
ATOM      3  C   UNL     1      47.418   3.720  16.313  0.00  0.00    +0.000 A 
ATOM      4  C   UNL     1      48.422   4.256  17.122  0.00  0.00    +0.000 A 
ATOM      5  C   UNL     1      48.998   5.452  16.706  0.00  0.00    +0.000 A 
ATOM      6  N   UNL     1      48.666   6.106  15.566  0.00  0.00    +0.000 NA
ENDROOT
BRANCH   1   7
ATOM      7  C   UNL     1      47.295   6.298  13.536  0.00  0.00    +0.000 C 
BRANCH   7  10
ATOM      8  O   UNL     1      44.828   6.562  12.229  0.00  0.00    +0.000 OA
ATOM      9  C   UNL     1      45.598   5.672  11.871  0.00  0.00    +0.000 C 
ATOM     10  N   UNL     1      46.800   5.422  12.496  0.00  0.00    +0.000 N 
ATOM     11  H   UNL     1      47.439   4.778  12.036  0.00  0.00    +0.000 HD
BRANCH   9  12
ATOM     12  C   UNL     1      45.260   4.790  10.708  0.00  0.00    +0.000 A 
ATOM     13  C   UNL     1      45.695   5.154   9.436  0.00  0.00    +0.000 A 
ATOM     14  C   UNL     1      45.351   4.339   8.362  0.00  0.00    +0.000 A 
ATOM     15  C   UNL     1      44.591   3.199   8.593  0.00  0.00    +0.000 A 
ATOM     16  C   UNL     1      44.208   2.911   9.896  0.00  0.00    +0.000 A 
ATOM     17  N   UNL     1      44.526   3.675  10.967  0.00  0.00    +0.000 NA
ENDBRANCH   9  12
ENDBRANCH   7  10
ENDBRANCH   1   7
BRANCH   4  18
ATOM     18  C   UNL     1      48.828   3.604  18.413  0.00  0.00    +0.000 C 
BRANCH  18  19
ATOM     19  N   UNL     1      50.231   3.275  18.406  0.00  0.00    +0.000 N 
ATOM     20  C   UNL     1      50.754   2.343  17.549  0.00  0.00    +0.000 C 
ATOM     21  O   UNL     1      50.068   1.771  16.705  0.00  0.00    +0.000 OA
ATOM     22  H   UNL     1      50.759   3.528  19.235  0.00  0.00    +0.000 HD
BRANCH  20  23
ATOM     23  C   UNL     1      52.203   2.116  17.649  0.00  0.00    +0.000 A 
ATOM     24  C   UNL     1      52.702   0.820  17.697  0.00  0.00    +0.000 A 
ATOM     25  S   UNL     1      54.407   0.747  17.724  0.00  0.00    +0.000 S 
ATOM     26  C   UNL     1      54.537   2.443  17.730  0.00  0.00    +0.000 A 
ATOM     27  N   UNL     1      55.752   3.054  17.763  0.00  0.00    +0.000 NA
ATOM     28  C   UNL     1      55.701   4.344  17.791  0.00  0.00    +0.000 A 
ATOM     29  N   UNL     1      54.544   5.079  17.792  0.00  0.00    +0.000 N 
ATOM     30  C   UNL     1      53.297   4.506  17.743  0.00  0.00    +0.000 A 
ATOM     31  O   UNL     1      52.281   5.195  17.722  0.00  0.00    +0.000 OA
ATOM     32  C   UNL     1      53.297   3.056  17.704  0.00  0.00    +0.000 A 
ATOM     33  H   UNL     1      54.571   6.088  17.814  0.00  0.00    +0.000 HD
ENDBRANCH  20  23
ENDBRANCH  18  19
ENDBRANCH   4  18
TORSDOF 6
ENDMDL
MODEL 8
REMARK VINA RESULT:    -6.652      5.123      8.061
REMARK INTER + INTRA:          -9.896
REMARK INTER:                  -8.996
REMARK INTRA:                  -0.900
REMARK UNBOUND:                -0.911
REMARK  Name = 
REMARK  6 active torsions:
REMARK  status: ('A' for Active; 'I' for Inactive)
REMARK    1  A    between atoms: C_2  and  C_25
REMARK    2  A    between atoms: N_3  and  C_4
REMARK    3  A    between atoms: C_4  and  C_5
REMARK    4  A    between atoms: C_8  and  C_9
REMARK    5  A    between atoms: C_9  and  N_10
REMARK    6  A    between atoms: C_11  and  C_13
REMARK                            x       y       z     vdW  Elec       q    Type
REMARK                         _______ _______ _______ _____ _____    ______ ____
ROOT
ATOM      1  C   UNL     1      50.387   8.685  11.400  0.00  0.00    +0.000 A 
ATOM      2  C   UNL     1      49.544   9.786  11.534  0.00  0.00    +0.000 A 
ATOM      3  C   UNL     1      48.264   9.602  12.056  0.00  0.00    +0.000 A 
ATOM      4  C   UNL     1      47.837   8.322  12.411  0.00  0.00    +0.000 A 
ATOM      5  C   UNL     1      48.746   7.282  12.247  0.00  0.00    +0.000 A 
ATOM      6  N   UNL     1      49.997   7.432  11.746  0.00  0.00    +0.000 NA
ENDROOT
BRANCH   1   7
ATOM      7  C   UNL     1      51.790   8.866  10.869  0.00  0.00    +0.000 C 
BRANCH   7  10
ATOM      8  O   UNL     1      52.809   8.803   8.257  0.00  0.00    +0.000 OA
ATOM      9  C   UNL     1      52.836   7.774   8.930  0.00  0.00    +0.000 C 
ATOM     10  N   UNL     1      52.299   7.689  10.197  0.00  0.00    +0.000 N 
ATOM     11  H   UNL     1      52.508   6.853  10.736  0.00  0.00    +0.000 HD
BRANCH   9  12
ATOM     12  C   UNL     1      53.470   6.526   8.396  0.00  0.00    +0.000 A 
ATOM     13  C   UNL     1      52.925   5.923   7.264  0.00  0.00    +0.000 A 
ATOM     14  C   UNL     1      53.508   4.750   6.796  0.00  0.00    +0.000 A 
ATOM     15  C   UNL     1      54.604   4.222   7.468  0.00  0.00    +0.000 A 
ATOM     16  C   UNL     1      55.082   4.894   8.585  0.00  0.00    +0.000 A 
ATOM     17  N   UNL     1      54.547   6.039   9.069  0.00  0.00    +0.000 NA
ENDBRANCH   9  12
ENDBRANCH   7  10
ENDBRANCH   1   7
BRANCH   4  18
ATOM     18  C   UNL     1      46.475   8.079  12.997  0.00  0.00    +0.000 C 
BRANCH  18  19
ATOM     19  N   UNL     1      45.985   6.772  12.638  0.00  0.00    +0.000 N 
ATOM     20  C   UNL     1      44.946   6.600  11.762  0.00  0.00    +0.000 C 
ATOM     21  O   UNL     1      44.405   7.547  11.194  0.00  0.00    +0.000 OA
ATOM     22  H   UNL     1      46.226   6.011  13.265  0.00  0.00    +0.000 HD
BRANCH  20  23
ATOM     23  C   UNL     1      44.558   5.210  11.484  0.00  0.00    +0.000 A 
ATOM     24  C   UNL     1      43.828   4.491  12.423  0.00  0.00    +0.000 A 
ATOM     25  S   UNL     1      43.393   2.927  11.896  0.00  0.00    +0.000 S 
ATOM     26  C   UNL     1      44.212   3.135  10.419  0.00  0.00    +0.000 A 
ATOM     27  N   UNL     1      44.245   2.144   9.488  0.00  0.00    +0.000 NA
ATOM     28  C   UNL     1      44.924   2.428   8.427  0.00  0.00    +0.000 A 
ATOM     29  N   UNL     1      45.577   3.614   8.214  0.00  0.00    +0.000 N 
ATOM     30  C   UNL     1      45.559   4.648   9.117  0.00  0.00    +0.000 A 
ATOM     31  O   UNL     1      46.135   5.706   8.885  0.00  0.00    +0.000 OA
ATOM     32  C   UNL     1      44.803   4.383  10.327  0.00  0.00    +0.000 A 
ATOM     33  H   UNL     1      46.092   3.776   7.361  0.00  0.00    +0.000 HD
ENDBRANCH  20  23
ENDBRANCH  18  19
ENDBRANCH   4  18
TORSDOF 6
ENDMDL
MODEL 9
REMARK VINA RESULT:    -6.462      3.968      6.004
REMARK INTER + INTRA:          -9.639
REMARK INTER:                  -8.542
REMARK INTRA:                  -1.097
REMARK UNBOUND:                -0.911
REMARK  Name = 
REMARK  6 active torsions:
REMARK  status: ('A' for Active; 'I' for Inactive)
REMARK    1  A    between atoms: C_2  and  C_25
REMARK    2  A    between atoms: N_3  and  C_4
REMARK    3  A    between atoms: C_4  and  C_5
REMARK    4  A    between atoms: C_8  and  C_9
REMARK    5  A    between atoms: C_9  and  N_10
REMARK    6  A    between atoms: C_11  and  C_13
REMARK                            x       y       z     vdW  Elec       q    Type
REMARK                         _______ _______ _______ _____ _____    ______ ____
ROOT
ATOM      1  C   UNL     1      47.252   4.389  14.981  0.00  0.00    +0.000 A 
ATOM      2  C   UNL     1      47.871   5.562  15.407  0.00  0.00    +0.000 A 
ATOM      3  C   UNL     1      48.396   5.623  16.698  0.00  0.00    +0.000 A 
ATOM      4  C   UNL     1      48.272   4.525  17.550  0.00  0.00    +0.000 A 
ATOM      5  C   UNL     1      47.643   3.395  17.040  0.00  0.00    +0.000 A 
ATOM      6  N   UNL     1      47.127   3.305  15.789  0.00  0.00    +0.000 NA
ENDROOT
BRANCH   1   7
ATOM      7  C   UNL     1      46.707   4.288  13.576  0.00  0.00    +0.000 C 
BRANCH   7  10
ATOM      8  O   UNL     1      44.234   5.579  13.284  0.00  0.00    +0.000 OA
ATOM      9  C   UNL     1      45.254   6.157  12.911  0.00  0.00    +0.000 C 
ATOM     10  N   UNL     1      46.504   5.578  12.952  0.00  0.00    +0.000 N 
ATOM     11  H   UNL     1      47.303   6.182  12.776  0.00  0.00    +0.000 HD
BRANCH   9  12
ATOM     12  C   UNL     1      45.191   7.556  12.380  0.00  0.00    +0.000 A 
ATOM     13  C   UNL     1      46.053   8.517  12.903  0.00  0.00    +0.000 A 
ATOM     14  C   UNL     1      45.964   9.819  12.418  0.00  0.00    +0.000 A 
ATOM     15  C   UNL     1      45.024  10.114  11.438  0.00  0.00    +0.000 A 
ATOM     16  C   UNL     1      44.210   9.090  10.972  0.00  0.00    +0.000 A 
ATOM     17  N   UNL     1      44.269   7.812  11.414  0.00  0.00    +0.000 NA
ENDBRANCH   9  12
ENDBRANCH   7  10
ENDBRANCH   1   7
BRANCH   4  18
ATOM     18  C   UNL     1      48.840   4.537  18.941  0.00  0.00    +0.000 C 
BRANCH  18  19
ATOM     19  N   UNL     1      50.104   3.846  18.988  0.00  0.00    +0.000 N 
ATOM     20  C   UNL     1      51.290   4.483  18.731  0.00  0.00    +0.000 C 
ATOM     21  O   UNL     1      51.350   5.688  18.496  0.00  0.00    +0.000 OA
ATOM     22  H   UNL     1      50.069   2.834  18.924  0.00  0.00    +0.000 HD
BRANCH  20  23
ATOM     23  C   UNL     1      52.501   3.654  18.823  0.00  0.00    +0.000 A 
ATOM     24  C   UNL     1      53.618   4.127  19.499  0.00  0.00    +0.000 A 
ATOM     25  S   UNL     1      54.896   2.998  19.578  0.00  0.00    +0.000 S 
ATOM     26  C   UNL     1      54.022   1.859  18.664  0.00  0.00    +0.000 A 
ATOM     27  N   UNL     1      54.558   0.649  18.352  0.00  0.00    +0.000 NA
ATOM     28  C   UNL     1      53.795  -0.104  17.631  0.00  0.00    +0.000 A 
ATOM     29  N   UNL     1      52.545   0.245  17.192  0.00  0.00    +0.000 N 
ATOM     30  C   UNL     1      51.958   1.448  17.496  0.00  0.00    +0.000 A 
ATOM     31  O   UNL     1      50.826   1.720  17.106  0.00  0.00    +0.000 OA
ATOM     32  C   UNL     1      52.771   2.332  18.310  0.00  0.00    +0.000 A 
ATOM     33  H   UNL     1      51.997  -0.390  16.631  0.00  0.00    +0.000 HD
ENDBRANCH  20  23
ENDBRANCH  18  19
ENDBRANCH   4  18
TORSDOF 6
ENDMDL
