MODEL 1
REMARK VINA RESULT:    -7.283      0.000      0.000
REMARK INTER + INTRA:         -10.957
REMARK INTER:                  -9.837
REMARK INTRA:                  -1.120
REMARK UNBOUND:                -1.120
REMARK  Name = 
REMARK  8 active torsions:
REMARK  status: ('A' for Active; 'I' for Inactive)
REMARK    1  A    between atoms: C_1  and  C_2
REMARK    2  A    between atoms: C_2  and  C_3
REMARK    3  A    between atoms: C_2  and  C_4
REMARK    4  A    between atoms: C_2  and  C_22
REMARK    5  A    between atoms: C_4  and  N_5
REMARK    6  A    between atoms: N_5  and  C_6
REMARK    7  A    between atoms: C_10  and  C_11
REMARK    8  A    between atoms: C_15  and  C_16
REMARK                            x       y       z     vdW  Elec       q    Type
REMARK                         _______ _______ _______ _____ _____    ______ ____
ROOT
ATOM      1  C   UNL     1      46.548   7.979  13.325  0.00  0.00    +0.000 A 
ATOM      2  C   UNL     1      45.964   9.044  12.644  0.00  0.00    +0.000 A 
ATOM      3  N   UNL     1      44.989   8.930  11.712  0.00  0.00    +0.000 NA
ATOM      4  C   UNL     1      44.590   7.673  11.413  0.00  0.00    +0.000 A 
ATOM      5  C   UNL     1      45.091   6.507  11.995  0.00  0.00    +0.000 A 
ATOM      6  C   UNL     1      46.096   6.700  12.963  0.00  0.00    +0.000 A 
ENDROOT
BRANCH   5   7
ATOM      7  C   UNL     1      44.598   5.163  11.615  0.00  0.00    +0.000 A 
ATOM      8  C   UNL     1      43.731   4.444  12.449  0.00  0.00    +0.000 A 
ATOM      9  C   UNL     1      43.287   3.190  12.061  0.00  0.00    +0.000 A 
ATOM     10  N   UNL     1      43.649   2.591  10.912  0.00  0.00    +0.000 NA
ATOM     11  C   UNL     1      44.495   3.269  10.089  0.00  0.00    +0.000 A 
ATOM     12  C   UNL     1      44.970   4.548  10.409  0.00  0.00    +0.000 A 
BRANCH  11  13
ATOM     13  C   UNL     1      44.956   2.622   8.789  0.00  0.00    +0.000 C 
ATOM     14  F   UNL     1      46.303   2.661   8.583  0.00  0.00    +0.000 F 
ATOM     15  F   UNL     1      44.606   1.304   8.709  0.00  0.00    +0.000 F 
ATOM     16  F   UNL     1      44.397   3.212   7.690  0.00  0.00    +0.000 F 
ENDBRANCH  11  13
ENDBRANCH   5   7
BRANCH   1  17
ATOM     17  N   UNL     1      47.617   8.084  14.216  0.00  0.00    +0.000 N 
ATOM     18  H   UNL     1      48.045   9.008  14.204  0.00  0.00    +0.000 HD
BRANCH  17  19
ATOM     19  C   UNL     1      48.588   6.991  14.328  0.00  0.00    +0.000 C 
BRANCH  19  21
ATOM     20  C   UNL     1      50.725   7.048  15.680  0.00  0.00    +0.000 C 
ATOM     21  C   UNL     1      49.188   6.888  15.766  0.00  0.00    +0.000 C 
ATOM     22  C   UNL     1      48.670   8.090  16.593  0.00  0.00    +0.000 C 
BRANCH  21  23
ATOM     23  C   UNL     1      48.740   5.575  16.443  0.00  0.00    +0.000 A 
ATOM     24  C   UNL     1      49.412   5.029  17.550  0.00  0.00    +0.000 A 
ATOM     25  C   UNL     1      48.990   3.834  18.141  0.00  0.00    +0.000 A 
ATOM     26  C   UNL     1      47.886   3.150  17.638  0.00  0.00    +0.000 A 
ATOM     27  C   UNL     1      47.207   3.667  16.538  0.00  0.00    +0.000 A 
ATOM     28  C   UNL     1      47.627   4.862  15.952  0.00  0.00    +0.000 A 
ENDBRANCH  21  23
ENDBRANCH  19  21
ENDBRANCH  17  19
ENDBRANCH   1  17
TORSDOF 6
ENDMDL
MODEL 2
REMARK VINA RESULT:    -7.119      1.583      2.415
REMARK INTER + INTRA:         -10.735
REMARK INTER:                  -9.890
REMARK INTRA:                  -0.845
REMARK UNBOUND:                -1.120
REMARK  Name = 
REMARK  8 active torsions:
REMARK  status: ('A' for Active; 'I' for Inactive)
REMARK    1  A    between atoms: C_1  and  C_2
REMARK    2  A    between atoms: C_2  and  C_3
REMARK    3  A    between atoms: C_2  and  C_4
REMARK    4  A    between atoms: C_2  and  C_22
REMARK    5  A    between atoms: C_4  and  N_5
REMARK    6  A    between atoms: N_5  and  C_6
REMARK    7  A    between atoms: C_10  and  C_11
REMARK    8  A    between atoms: C_15  and  C_16
REMARK                            x       y       z     vdW  Elec       q    Type
REMARK                         _______ _______ _______ _____ _____    ______ ____
ROOT
ATOM      1  C   UNL     1      47.831   6.571  14.191  0.00  0.00    +0.000 A 
ATOM      2  C   UNL     1      48.208   7.536  13.260  0.00  0.00    +0.000 A 
ATOM      3  N   UNL     1      47.721   7.634  12.002  0.00  0.00    +0.000 NA
ATOM      4  C   UNL     1      46.824   6.692  11.631  0.00  0.00    +0.000 A 
ATOM      5  C   UNL     1      46.361   5.654  12.442  0.00  0.00    +0.000 A 
ATOM      6  C   UNL     1      46.904   5.618  13.741  0.00  0.00    +0.000 A 
ENDROOT
BRANCH   5   7
ATOM      7  C   UNL     1      45.373   4.661  11.962  0.00  0.00    +0.000 A 
ATOM      8  C   UNL     1      44.219   4.369  12.701  0.00  0.00    +0.000 A 
ATOM      9  C   UNL     1      43.313   3.437  12.221  0.00  0.00    +0.000 A 
ATOM     10  N   UNL     1      43.474   2.763  11.068  0.00  0.00    +0.000 NA
ATOM     11  C   UNL     1      44.591   3.026  10.336  0.00  0.00    +0.000 A 
ATOM     12  C   UNL     1      45.541   3.969  10.752  0.00  0.00    +0.000 A 
BRANCH  11  13
ATOM     13  C   UNL     1      44.833   2.268   9.037  0.00  0.00    +0.000 C 
ATOM     14  F   UNL     1      46.142   1.988   8.780  0.00  0.00    +0.000 F 
ATOM     15  F   UNL     1      44.182   1.068   9.004  0.00  0.00    +0.000 F 
ATOM     16  F   UNL     1      44.380   2.956   7.945  0.00  0.00    +0.000 F 
ENDBRANCH  11  13
ENDBRANCH   5   7
BRANCH   1  17
ATOM     17  N   UNL     1      48.399   6.409  15.455  0.00  0.00    +0.000 N 
ATOM     18  H   UNL     1      49.371   6.710  15.488  0.00  0.00    +0.000 HD
BRANCH  17  19
ATOM     19  C   UNL     1      48.138   5.189  16.225  0.00  0.00    +0.000 C 
BRANCH  19  21
ATOM     20  C   UNL     1      49.543   6.567  17.813  0.00  0.00    +0.000 C 
ATOM     21  C   UNL     1      48.929   5.167  17.571  0.00  0.00    +0.000 C 
ATOM     22  C   UNL     1      47.920   4.929  18.720  0.00  0.00    +0.000 C 
BRANCH  21  23
ATOM     23  C   UNL     1      49.971   4.027  17.565  0.00  0.00    +0.000 A 
ATOM     24  C   UNL     1      49.653   2.716  17.174  0.00  0.00    +0.000 A 
ATOM     25  C   UNL     1      50.613   1.700  17.184  0.00  0.00    +0.000 A 
ATOM     26  C   UNL     1      51.918   1.968  17.591  0.00  0.00    +0.000 A 
ATOM     27  C   UNL     1      52.257   3.258  17.990  0.00  0.00    +0.000 A 
ATOM     28  C   UNL     1      51.297   4.271  17.975  0.00  0.00    +0.000 A 
ENDBRANCH  21  23
ENDBRANCH  19  21
ENDBRANCH  17  19
ENDBRANCH   1  17
TORSDOF 6
ENDMDL
MODEL 3
REMARK VINA RESULT:    -7.086      1.928      2.907
REMARK INTER + INTRA:         -10.692
REMARK INTER:                  -9.512
REMARK INTRA:                  -1.180
REMARK UNBOUND:                -1.120
REMARK  Name = 
REMARK  8 active torsions:
REMARK  status: ('A' for Active; 'I' for Inactive)
REMARK    1  A    between atoms: C_1  and  C_2
REMARK    2  A    between atoms: C_2  and  C_3
REMARK    3  A    between atoms: C_2  and  C_4
REMARK    4  A    between atoms: C_2  and  C_22
REMARK    5  A    between atoms: C_4  and  N_5
REMARK    6  A    between atoms: N_5  and  C_6
REMARK    7  A    between atoms: C_10  and  C_11
REMARK    8  A    between atoms: C_15  and  C_16
REMARK                            x       y       z     vdW  Elec       q    Type
REMARK                         _______ _______ _______ _____ _____    ______ ____
ROOT
ATOM      1  C   UNL     1      45.379   7.010  11.471  0.00  0.00    +0.000 A 
ATOM      2  C   UNL     1      44.026   7.184  11.749  0.00  0.00    +0.000 A 
ATOM      3  N   UNL     1      43.040   6.339  11.370  0.00  0.00    +0.000 NA
ATOM      4  C   UNL     1      43.419   5.266  10.637  0.00  0.00    +0.000 A 
ATOM      5  C   UNL     1      44.730   4.965  10.265  0.00  0.00    +0.000 A 
ATOM      6  C   UNL     1      45.706   5.883  10.701  0.00  0.00    +0.000 A 
ENDROOT
BRANCH   5   7
ATOM      7  C   UNL     1      45.065   3.766   9.462  0.00  0.00    +0.000 A 
ATOM      8  C   UNL     1      44.554   2.504   9.794  0.00  0.00    +0.000 A 
ATOM      9  C   UNL     1      44.885   1.404   9.020  0.00  0.00    +0.000 A 
ATOM     10  N   UNL     1      45.698   1.461   7.948  0.00  0.00    +0.000 NA
ATOM     11  C   UNL     1      46.210   2.675   7.611  0.00  0.00    +0.000 A 
ATOM     12  C   UNL     1      45.904   3.833   8.339  0.00  0.00    +0.000 A 
BRANCH  11  13
ATOM     13  C   UNL     1      47.157   2.787   6.423  0.00  0.00    +0.000 C 
ATOM     14  F   UNL     1      46.934   3.865   5.621  0.00  0.00    +0.000 F 
ATOM     15  F   UNL     1      48.466   2.872   6.805  0.00  0.00    +0.000 F 
ATOM     16  F   UNL     1      47.090   1.695   5.603  0.00  0.00    +0.000 F 
ENDBRANCH  11  13
ENDBRANCH   5   7
BRANCH   1  17
ATOM     17  N   UNL     1      46.387   7.926  11.778  0.00  0.00    +0.000 N 
ATOM     18  H   UNL     1      47.196   7.835  11.166  0.00  0.00    +0.000 HD
BRANCH  17  19
ATOM     19  C   UNL     1      46.738   8.189  13.177  0.00  0.00    +0.000 C 
BRANCH  19  21
ATOM     20  C   UNL     1      48.896   7.259  12.241  0.00  0.00    +0.000 C 
ATOM     21  C   UNL     1      48.140   7.610  13.546  0.00  0.00    +0.000 C 
ATOM     22  C   UNL     1      48.958   8.727  14.237  0.00  0.00    +0.000 C 
BRANCH  21  23
ATOM     23  C   UNL     1      47.992   6.416  14.514  0.00  0.00    +0.000 A 
ATOM     24  C   UNL     1      48.637   6.371  15.761  0.00  0.00    +0.000 A 
ATOM     25  C   UNL     1      48.492   5.275  16.617  0.00  0.00    +0.000 A 
ATOM     26  C   UNL     1      47.700   4.191  16.246  0.00  0.00    +0.000 A 
ATOM     27  C   UNL     1      47.056   4.208  15.012  0.00  0.00    +0.000 A 
ATOM     28  C   UNL     1      47.199   5.305  14.161  0.00  0.00    +0.000 A 
ENDBRANCH  21  23
ENDBRANCH  19  21
ENDBRANCH  17  19
ENDBRANCH   1  17
TORSDOF 6
ENDMDL
MODEL 4
REMARK VINA RESULT:    -6.903      4.096      8.003
REMARK INTER + INTRA:         -10.444
REMARK INTER:                  -9.537
REMARK INTRA:                  -0.908
REMARK UNBOUND:                -1.120
REMARK  Name = 
REMARK  8 active torsions:
REMARK  status: ('A' for Active; 'I' for Inactive)
REMARK    1  A    between atoms: C_1  and  C_2
REMARK    2  A    between atoms: C_2  and  C_3
REMARK    3  A    between atoms: C_2  and  C_4
REMARK    4  A    between atoms: C_2  and  C_22
REMARK    5  A    between atoms: C_4  and  N_5
REMARK    6  A    between atoms: N_5  and  C_6
REMARK    7  A    between atoms: C_10  and  C_11
REMARK    8  A    between atoms: C_15  and  C_16
REMARK                            x       y       z     vdW  Elec       q    Type
REMARK                         _______ _______ _______ _____ _____    ______ ____
ROOT
ATOM      1  C   UNL     1      46.693   6.041  12.792  0.00  0.00    +0.000 A 
ATOM      2  C   UNL     1      47.179   5.611  14.024  0.00  0.00    +0.000 A 
ATOM      3  N   UNL     1      48.347   6.007  14.580  0.00  0.00    +0.000 NA
ATOM      4  C   UNL     1      49.099   6.861  13.849  0.00  0.00    +0.000 A 
ATOM      5  C   UNL     1      48.757   7.367  12.593  0.00  0.00    +0.000 A 
ATOM      6  C   UNL     1      47.524   6.920  12.080  0.00  0.00    +0.000 A 
ENDROOT
BRANCH   5   7
ATOM      7  C   UNL     1      49.636   8.304  11.856  0.00  0.00    +0.000 A 
ATOM      8  C   UNL     1      49.317   9.664  11.745  0.00  0.00    +0.000 A 
ATOM      9  C   UNL     1      50.163  10.513  11.050  0.00  0.00    +0.000 A 
ATOM     10  N   UNL     1      51.296  10.111  10.446  0.00  0.00    +0.000 NA
ATOM     11  C   UNL     1      51.623   8.793  10.536  0.00  0.00    +0.000 A 
ATOM     12  C   UNL     1      50.823   7.880  11.237  0.00  0.00    +0.000 A 
BRANCH  11  13
ATOM     13  C   UNL     1      52.881   8.282   9.846  0.00  0.00    +0.000 C 
ATOM     14  F   UNL     1      52.654   7.382   8.848  0.00  0.00    +0.000 F 
ATOM     15  F   UNL     1      53.610   9.289   9.280  0.00  0.00    +0.000 F 
ATOM     16  F   UNL     1      53.734   7.663  10.716  0.00  0.00    +0.000 F 
ENDBRANCH  11  13
ENDBRANCH   5   7
BRANCH   1  17
ATOM     17  N   UNL     1      45.537   5.564  12.173  0.00  0.00    +0.000 N 
ATOM     18  H   UNL     1      44.710   6.105  12.422  0.00  0.00    +0.000 HD
BRANCH  17  19
ATOM     19  C   UNL     1      45.290   4.121  12.093  0.00  0.00    +0.000 C 
BRANCH  19  21
ATOM     20  C   UNL     1      43.359   2.626  11.433  0.00  0.00    +0.000 C 
ATOM     21  C   UNL     1      44.292   3.762  10.947  0.00  0.00    +0.000 C 
ATOM     22  C   UNL     1      43.387   4.991  10.691  0.00  0.00    +0.000 C 
BRANCH  21  23
ATOM     23  C   UNL     1      45.062   3.419   9.652  0.00  0.00    +0.000 A 
ATOM     24  C   UNL     1      45.522   4.405   8.764  0.00  0.00    +0.000 A 
ATOM     25  C   UNL     1      46.211   4.068   7.595  0.00  0.00    +0.000 A 
ATOM     26  C   UNL     1      46.452   2.733   7.280  0.00  0.00    +0.000 A 
ATOM     27  C   UNL     1      46.000   1.737   8.140  0.00  0.00    +0.000 A 
ATOM     28  C   UNL     1      45.317   2.076   9.309  0.00  0.00    +0.000 A 
ENDBRANCH  21  23
ENDBRANCH  19  21
ENDBRANCH  17  19
ENDBRANCH   1  17
TORSDOF 6
ENDMDL
MODEL 5
REMARK VINA RESULT:    -6.417      3.361      4.926
REMARK INTER + INTRA:          -9.787
REMARK INTER:                  -8.949
REMARK INTRA:                  -0.838
REMARK UNBOUND:                -1.120
REMARK  Name = 
REMARK  8 active torsions:
REMARK  status: ('A' for Active; 'I' for Inactive)
REMARK    1  A    between atoms: C_1  and  C_2
REMARK    2  A    between atoms: C_2  and  C_3
REMARK    3  A    between atoms: C_2  and  C_4
REMARK    4  A    between atoms: C_2  and  C_22
REMARK    5  A    between atoms: C_4  and  N_5
REMARK    6  A    between atoms: N_5  and  C_6
REMARK    7  A    between atoms: C_10  and  C_11
REMARK    8  A    between atoms: C_15  and  C_16
REMARK                            x       y       z     vdW  Elec       q    Type
REMARK                         _______ _______ _______ _____ _____    ______ ____
ROOT
ATOM      1  C   UNL     1      47.108   8.038  12.403  0.00  0.00    +0.000 A 
ATOM      2  C   UNL     1      46.257   9.112  12.154  0.00  0.00    +0.000 A 
ATOM      3  N   UNL     1      44.976   9.007  11.731  0.00  0.00    +0.000 NA
ATOM      4  C   UNL     1      44.519   7.753  11.509  0.00  0.00    +0.000 A 
ATOM      5  C   UNL     1      45.254   6.581  11.697  0.00  0.00    +0.000 A 
ATOM      6  C   UNL     1      46.577   6.765  12.146  0.00  0.00    +0.000 A 
ENDROOT
BRANCH   5   7
ATOM      7  C   UNL     1      44.680   5.241  11.434  0.00  0.00    +0.000 A 
ATOM      8  C   UNL     1      43.767   4.655  12.322  0.00  0.00    +0.000 A 
ATOM      9  C   UNL     1      43.247   3.402  12.044  0.00  0.00    +0.000 A 
ATOM     10  N   UNL     1      43.576   2.680  10.957  0.00  0.00    +0.000 NA
ATOM     11  C   UNL     1      44.466   3.226  10.084  0.00  0.00    +0.000 A 
ATOM     12  C   UNL     1      45.019   4.497  10.293  0.00  0.00    +0.000 A 
BRANCH  11  13
ATOM     13  C   UNL     1      44.892   2.437   8.853  0.00  0.00    +0.000 C 
ATOM     14  F   UNL     1      44.524   2.996   7.666  0.00  0.00    +0.000 F 
ATOM     15  F   UNL     1      46.245   2.271   8.782  0.00  0.00    +0.000 F 
ATOM     16  F   UNL     1      44.371   1.172   8.844  0.00  0.00    +0.000 F 
ENDBRANCH  11  13
ENDBRANCH   5   7
BRANCH   1  17
ATOM     17  N   UNL     1      48.456   8.145  12.748  0.00  0.00    +0.000 N 
ATOM     18  H   UNL     1      48.654   8.983  13.292  0.00  0.00    +0.000 HD
BRANCH  17  19
ATOM     19  C   UNL     1      49.492   7.829  11.760  0.00  0.00    +0.000 C 
BRANCH  19  21
ATOM     20  C   UNL     1      49.848  10.285  11.272  0.00  0.00    +0.000 C 
ATOM     21  C   UNL     1      50.560   8.963  11.651  0.00  0.00    +0.000 C 
ATOM     22  C   UNL     1      51.175   9.185  13.053  0.00  0.00    +0.000 C 
BRANCH  21  23
ATOM     23  C   UNL     1      51.677   8.557  10.664  0.00  0.00    +0.000 A 
ATOM     24  C   UNL     1      51.853   7.234  10.226  0.00  0.00    +0.000 A 
ATOM     25  C   UNL     1      52.876   6.891   9.337  0.00  0.00    +0.000 A 
ATOM     26  C   UNL     1      53.755   7.863   8.866  0.00  0.00    +0.000 A 
ATOM     27  C   UNL     1      53.606   9.181   9.290  0.00  0.00    +0.000 A 
ATOM     28  C   UNL     1      52.580   9.521  10.174  0.00  0.00    +0.000 A 
ENDBRANCH  21  23
ENDBRANCH  19  21
ENDBRANCH  17  19
ENDBRANCH   1  17
TORSDOF 6
ENDMDL
MODEL 6
REMARK VINA RESULT:    -6.400      1.558      2.191
REMARK INTER + INTRA:          -9.764
REMARK INTER:                  -8.518
REMARK INTRA:                  -1.246
REMARK UNBOUND:                -1.120
REMARK  Name = 
REMARK  8 active torsions:
REMARK  status: ('A' for Active; 'I' for Inactive)
REMARK    1  A    between atoms: C_1  and  C_2
REMARK    2  A    between atoms: C_2  and  C_3
REMARK    3  A    between atoms: C_2  and  C_4
REMARK    4  A    between atoms: C_2  and  C_22
REMARK    5  A    between atoms: C_4  and  N_5
REMARK    6  A    between atoms: N_5  and  C_6
REMARK    7  A    between atoms: C_10  and  C_11
REMARK    8  A    between atoms: C_15  and  C_16
REMARK                            x       y       z     vdW  Elec       q    Type
REMARK                         _______ _______ _______ _____ _____    ______ ____
ROOT
ATOM      1  C   UNL     1      48.670   7.935  14.024  0.00  0.00    +0.000 A 
ATOM      2  C   UNL     1      49.437   8.349  12.937  0.00  0.00    +0.000 A 
ATOM      3  N   UNL     1      49.137   8.113  11.639  0.00  0.00    +0.000 NA
ATOM      4  C   UNL     1      48.018   7.389  11.405  0.00  0.00    +0.000 A 
ATOM      5  C   UNL     1      47.158   6.892  12.385  0.00  0.00    +0.000 A 
ATOM      6  C   UNL     1      47.527   7.182  13.713  0.00  0.00    +0.000 A 
ENDROOT
BRANCH   5   7
ATOM      7  C   UNL     1      45.947   6.109  12.046  0.00  0.00    +0.000 A 
ATOM      8  C   UNL     1      44.844   6.066  12.910  0.00  0.00    +0.000 A 
ATOM      9  C   UNL     1      43.726   5.327  12.560  0.00  0.00    +0.000 A 
ATOM     10  N   UNL     1      43.627   4.614  11.423  0.00  0.00    +0.000 NA
ATOM     11  C   UNL     1      44.689   4.636  10.572  0.00  0.00    +0.000 A 
ATOM     12  C   UNL     1      45.844   5.376  10.853  0.00  0.00    +0.000 A 
BRANCH  11  13
ATOM     13  C   UNL     1      44.635   3.823   9.285  0.00  0.00    +0.000 C 
ATOM     14  F   UNL     1      45.836   3.679   8.656  0.00  0.00    +0.000 F 
ATOM     15  F   UNL     1      44.167   2.556   9.486  0.00  0.00    +0.000 F 
ATOM     16  F   UNL     1      43.796   4.376   8.358  0.00  0.00    +0.000 F 
ENDBRANCH  11  13
ENDBRANCH   5   7
BRANCH   1  17
ATOM     17  N   UNL     1      49.023   8.094  15.364  0.00  0.00    +0.000 N 
ATOM     18  H   UNL     1      49.050   9.072  15.647  0.00  0.00    +0.000 HD
BRANCH  17  19
ATOM     19  C   UNL     1      50.106   7.290  15.938  0.00  0.00    +0.000 C 
BRANCH  19  21
ATOM     20  C   UNL     1      50.873   6.785  18.294  0.00  0.00    +0.000 C 
ATOM     21  C   UNL     1      49.696   6.643  17.298  0.00  0.00    +0.000 C 
ATOM     22  C   UNL     1      48.524   7.462  17.889  0.00  0.00    +0.000 C 
BRANCH  21  23
ATOM     23  C   UNL     1      49.240   5.183  17.085  0.00  0.00    +0.000 A 
ATOM     24  C   UNL     1      48.028   4.856  16.452  0.00  0.00    +0.000 A 
ATOM     25  C   UNL     1      47.635   3.526  16.277  0.00  0.00    +0.000 A 
ATOM     26  C   UNL     1      48.440   2.487  16.734  0.00  0.00    +0.000 A 
ATOM     27  C   UNL     1      49.642   2.785  17.371  0.00  0.00    +0.000 A 
ATOM     28  C   UNL     1      50.035   4.113  17.540  0.00  0.00    +0.000 A 
ENDBRANCH  21  23
ENDBRANCH  19  21
ENDBRANCH  17  19
ENDBRANCH   1  17
TORSDOF 6
ENDMDL
MODEL 7
REMARK VINA RESULT:    -6.350      2.384      3.335
REMARK INTER + INTRA:          -9.696
REMARK INTER:                  -8.045
REMARK INTRA:                  -1.652
REMARK UNBOUND:                -1.120
REMARK  Name = 
REMARK  8 active torsions:
REMARK  status: ('A' for Active; 'I' for Inactive)
REMARK    1  A    between atoms: C_1  and  C_2
REMARK    2  A    between atoms: C_2  and  C_3
REMARK    3  A    between atoms: C_2  and  C_4
REMARK    4  A    between atoms: C_2  and  C_22
REMARK    5  A    between atoms: C_4  and  N_5
REMARK    6  A    between atoms: N_5  and  C_6
REMARK    7  A    between atoms: C_10  and  C_11
REMARK    8  A    between atoms: C_15  and  C_16
REMARK                            x       y       z     vdW  Elec       q    Type
REMARK                         _______ _______ _______ _____ _____    ______ ____
ROOT
ATOM      1  C   UNL     1      49.837   7.519  14.457  0.00  0.00    +0.000 A 
ATOM      2  C   UNL     1      50.116   8.307  13.343  0.00  0.00    +0.000 A 
ATOM      3  N   UNL     1      49.413   8.295  12.187  0.00  0.00    +0.000 NA
ATOM      4  C   UNL     1      48.385   7.418  12.120  0.00  0.00    +0.000 A 
ATOM      5  C   UNL     1      47.994   6.553  13.143  0.00  0.00    +0.000 A 
ATOM      6  C   UNL     1      48.763   6.625  14.320  0.00  0.00    +0.000 A 
ENDROOT
BRANCH   5   7
ATOM      7  C   UNL     1      46.851   5.622  12.993  0.00  0.00    +0.000 A 
ATOM      8  C   UNL     1      46.932   4.295  13.437  0.00  0.00    +0.000 A 
ATOM      9  C   UNL     1      45.842   3.452  13.284  0.00  0.00    +0.000 A 
ATOM     10  N   UNL     1      44.684   3.824  12.710  0.00  0.00    +0.000 NA
ATOM     11  C   UNL     1      44.586   5.107  12.265  0.00  0.00    +0.000 A 
ATOM     12  C   UNL     1      45.641   6.019  12.403  0.00  0.00    +0.000 A 
BRANCH  11  13
ATOM     13  C   UNL     1      43.304   5.569  11.583  0.00  0.00    +0.000 C 
ATOM     14  F   UNL     1      43.277   6.893  11.265  0.00  0.00    +0.000 F 
ATOM     15  F   UNL     1      43.065   4.901  10.416  0.00  0.00    +0.000 F 
ATOM     16  F   UNL     1      42.198   5.351  12.357  0.00  0.00    +0.000 F 
ENDBRANCH  11  13
ENDBRANCH   5   7
BRANCH   1  17
ATOM     17  N   UNL     1      50.614   7.460  15.615  0.00  0.00    +0.000 N 
ATOM     18  H   UNL     1      51.357   6.767  15.551  0.00  0.00    +0.000 HD
BRANCH  17  19
ATOM     19  C   UNL     1      49.972   7.511  16.932  0.00  0.00    +0.000 C 
BRANCH  19  21
ATOM     20  C   UNL     1      51.860   5.951  17.562  0.00  0.00    +0.000 C 
ATOM     21  C   UNL     1      50.374   6.295  17.825  0.00  0.00    +0.000 C 
ATOM     22  C   UNL     1      50.282   6.732  19.306  0.00  0.00    +0.000 C 
BRANCH  21  23
ATOM     23  C   UNL     1      49.413   5.110  17.584  0.00  0.00    +0.000 A 
ATOM     24  C   UNL     1      48.017   5.267  17.542  0.00  0.00    +0.000 A 
ATOM     25  C   UNL     1      47.168   4.177  17.328  0.00  0.00    +0.000 A 
ATOM     26  C   UNL     1      47.693   2.898  17.157  0.00  0.00    +0.000 A 
ATOM     27  C   UNL     1      49.072   2.715  17.202  0.00  0.00    +0.000 A 
ATOM     28  C   UNL     1      49.918   3.806  17.410  0.00  0.00    +0.000 A 
ENDBRANCH  21  23
ENDBRANCH  19  21
ENDBRANCH  17  19
ENDBRANCH   1  17
TORSDOF 6
ENDMDL
MODEL 8
REMARK VINA RESULT:    -6.257      2.463      4.785
REMARK INTER + INTRA:          -9.571
REMARK INTER:                  -7.738
REMARK INTRA:                  -1.834
REMARK UNBOUND:                -1.120
REMARK  Name = 
REMARK  8 active torsions:
REMARK  status: ('A' for Active; 'I' for Inactive)
REMARK    1  A    between atoms: C_1  and  C_2
REMARK    2  A    between atoms: C_2  and  C_3
REMARK    3  A    between atoms: C_2  and  C_4
REMARK    4  A    between atoms: C_2  and  C_22
REMARK    5  A    between atoms: C_4  and  N_5
REMARK    6  A    between atoms: N_5  and  C_6
REMARK    7  A    between atoms: C_10  and  C_11
REMARK    8  A    between atoms: C_15  and  C_16
REMARK                            x       y       z     vdW  Elec       q    Type
REMARK                         _______ _______ _______ _____ _____    ______ ____
ROOT
ATOM      1  C   UNL     1      48.776   5.909  16.438  0.00  0.00    +0.000 A 
ATOM      2  C   UNL     1      48.756   4.646  17.024  0.00  0.00    +0.000 A 
ATOM      3  N   UNL     1      48.126   3.563  16.514  0.00  0.00    +0.000 NA
ATOM      4  C   UNL     1      47.442   3.754  15.362  0.00  0.00    +0.000 A 
ATOM      5  C   UNL     1      47.355   4.961  14.666  0.00  0.00    +0.000 A 
ATOM      6  C   UNL     1      48.042   6.044  15.250  0.00  0.00    +0.000 A 
ENDROOT
BRANCH   5   7
ATOM      7  C   UNL     1      46.587   5.090  13.406  0.00  0.00    +0.000 A 
ATOM      8  C   UNL     1      46.831   6.140  12.511  0.00  0.00    +0.000 A 
ATOM      9  C   UNL     1      46.097   6.228  11.339  0.00  0.00    +0.000 A 
ATOM     10  N   UNL     1      45.129   5.358  10.996  0.00  0.00    +0.000 NA
ATOM     11  C   UNL     1      44.871   4.333  11.853  0.00  0.00    +0.000 A 
ATOM     12  C   UNL     1      45.587   4.173  13.047  0.00  0.00    +0.000 A 
BRANCH  11  13
ATOM     13  C   UNL     1      43.766   3.338  11.523  0.00  0.00    +0.000 C 
ATOM     14  F   UNL     1      44.022   2.545  10.445  0.00  0.00    +0.000 F 
ATOM     15  F   UNL     1      43.505   2.485  12.558  0.00  0.00    +0.000 F 
ATOM     16  F   UNL     1      42.577   3.956  11.255  0.00  0.00    +0.000 F 
ENDBRANCH  11  13
ENDBRANCH   5   7
BRANCH   1  17
ATOM     17  N   UNL     1      49.345   7.050  17.007  0.00  0.00    +0.000 N 
ATOM     18  H   UNL     1      48.651   7.653  17.447  0.00  0.00    +0.000 HD
BRANCH  17  19
ATOM     19  C   UNL     1      50.388   7.786  16.288  0.00  0.00    +0.000 C 
BRANCH  19  21
ATOM     20  C   UNL     1      48.622   9.579  16.540  0.00  0.00    +0.000 C 
ATOM     21  C   UNL     1      49.862   9.142  15.721  0.00  0.00    +0.000 C 
ATOM     22  C   UNL     1      50.946  10.220  15.963  0.00  0.00    +0.000 C 
BRANCH  21  23
ATOM     23  C   UNL     1      49.592   9.024  14.205  0.00  0.00    +0.000 A 
ATOM     24  C   UNL     1      48.568   9.740  13.563  0.00  0.00    +0.000 A 
ATOM     25  C   UNL     1      48.340   9.611  12.190  0.00  0.00    +0.000 A 
ATOM     26  C   UNL     1      49.127   8.756  11.422  0.00  0.00    +0.000 A 
ATOM     27  C   UNL     1      50.143   8.030  12.036  0.00  0.00    +0.000 A 
ATOM     28  C   UNL     1      50.372   8.164  13.406  0.00  0.00    +0.000 A 
ENDBRANCH  21  23
ENDBRANCH  19  21
ENDBRANCH  17  19
ENDBRANCH   1  17
TORSDOF 6
ENDMDL
MODEL 9
REMARK VINA RESULT:    -6.166      4.232      7.754
REMARK INTER + INTRA:          -9.448
REMARK INTER:                  -8.621
REMARK INTRA:                  -0.827
REMARK UNBOUND:                -1.120
REMARK  Name = 
REMARK  8 active torsions:
REMARK  status: ('A' for Active; 'I' for Inactive)
REMARK    1  A    between atoms: C_1  and  C_2
REMARK    2  A    between atoms: C_2  and  C_3
REMARK    3  A    between atoms: C_2  and  C_4
REMARK    4  A    between atoms: C_2  and  C_22
REMARK    5  A    between atoms: C_4  and  N_5
REMARK    6  A    between atoms: N_5  and  C_6
REMARK    7  A    between atoms: C_10  and  C_11
REMARK    8  A    between atoms: C_15  and  C_16
REMARK                            x       y       z     vdW  Elec       q    Type
REMARK                         _______ _______ _______ _____ _____    ______ ____
ROOT
ATOM      1  C   UNL     1      47.850   7.260  12.580  0.00  0.00    +0.000 A 
ATOM      2  C   UNL     1      48.110   7.450  13.935  0.00  0.00    +0.000 A 
ATOM      3  N   UNL     1      49.302   7.826  14.453  0.00  0.00    +0.000 NA
ATOM      4  C   UNL     1      50.313   7.991  13.570  0.00  0.00    +0.000 A 
ATOM      5  C   UNL     1      50.215   7.822  12.188  0.00  0.00    +0.000 A 
ATOM      6  C   UNL     1      48.943   7.439  11.717  0.00  0.00    +0.000 A 
ENDROOT
BRANCH   5   7
ATOM      7  C   UNL     1      51.371   8.026  11.285  0.00  0.00    +0.000 A 
ATOM      8  C   UNL     1      52.327   9.018  11.542  0.00  0.00    +0.000 A 
ATOM      9  C   UNL     1      53.398   9.180  10.678  0.00  0.00    +0.000 A 
ATOM     10  N   UNL     1      53.584   8.439   9.571  0.00  0.00    +0.000 NA
ATOM     11  C   UNL     1      52.665   7.473   9.299  0.00  0.00    +0.000 A 
ATOM     12  C   UNL     1      51.567   7.242  10.137  0.00  0.00    +0.000 A 
BRANCH  11  13
ATOM     13  C   UNL     1      52.817   6.625   8.042  0.00  0.00    +0.000 C 
ATOM     14  F   UNL     1      51.667   6.457   7.330  0.00  0.00    +0.000 F 
ATOM     15  F   UNL     1      53.723   7.150   7.165  0.00  0.00    +0.000 F 
ATOM     16  F   UNL     1      53.269   5.365   8.319  0.00  0.00    +0.000 F 
ENDBRANCH  11  13
ENDBRANCH   5   7
BRANCH   1  17
ATOM     17  N   UNL     1      46.651   6.782  12.050  0.00  0.00    +0.000 N 
ATOM     18  H   UNL     1      45.924   7.496  12.025  0.00  0.00    +0.000 HD
BRANCH  17  19
ATOM     19  C   UNL     1      46.156   5.456  12.433  0.00  0.00    +0.000 C 
BRANCH  19  21
ATOM     20  C   UNL     1      43.898   4.366  12.763  0.00  0.00    +0.000 C 
ATOM     21  C   UNL     1      44.792   5.122  11.750  0.00  0.00    +0.000 C 
ATOM     22  C   UNL     1      44.069   6.454  11.438  0.00  0.00    +0.000 C 
BRANCH  21  23
ATOM     23  C   UNL     1      45.025   4.349  10.434  0.00  0.00    +0.000 A 
ATOM     24  C   UNL     1      44.691   2.992  10.286  0.00  0.00    +0.000 A 
ATOM     25  C   UNL     1      44.918   2.314   9.085  0.00  0.00    +0.000 A 
ATOM     26  C   UNL     1      45.491   2.973   8.000  0.00  0.00    +0.000 A 
ATOM     27  C   UNL     1      45.837   4.316   8.123  0.00  0.00    +0.000 A 
ATOM     28  C   UNL     1      45.605   4.993   9.322  0.00  0.00    +0.000 A 
ENDBRANCH  21  23
ENDBRANCH  19  21
ENDBRANCH  17  19
ENDBRANCH   1  17
TORSDOF 6
ENDMDL
