MODEL 1
REMARK VINA RESULT:    -7.767      0.000      0.000
REMARK INTER + INTRA:         -12.504
REMARK INTER:                 -11.399
REMARK INTRA:                  -1.105
REMARK UNBOUND:                -1.105
REMARK  Name = 
REMARK  9 active torsions:
REMARK  status: ('A' for Active; 'I' for Inactive)
REMARK    1  A    between atoms: C_1  and  O_2
REMARK    2  A    between atoms: O_2  and  C_3
REMARK    3  A    between atoms: C_5  and  C_6
REMARK    4  A    between atoms: C_6  and  O_7
REMARK    5  A    between atoms: O_7  and  C_8
REMARK    6  A    between atoms: C_8  and  C_9
REMARK    7  A    between atoms: C_12  and  C_13
REMARK    8  A    between atoms: C_13  and  N_14
REMARK    9  A    between atoms: C_15  and  C_17
REMARK                            x       y       z     vdW  Elec       q    Type
REMARK                         _______ _______ _______ _____ _____    ______ ____
ROOT
ATOM      1  C   UNL     1      44.670   5.581  10.853  0.00  0.00    +0.000 A 
ATOM      2  C   UNL     1      45.990   5.859  10.473  0.00  0.00    +0.000 A 
ATOM      3  C   UNL     1      46.816   6.642  11.286  0.00  0.00    +0.000 A 
ATOM      4  C   UNL     1      46.340   7.155  12.499  0.00  0.00    +0.000 A 
ATOM      5  C   UNL     1      45.012   6.903  12.864  0.00  0.00    +0.000 A 
ATOM      6  C   UNL     1      44.186   6.119  12.053  0.00  0.00    +0.000 A 
ENDROOT
BRANCH   1   7
ATOM      7  C   UNL     1      43.783   4.730   9.980  0.00  0.00    +0.000 C 
BRANCH   7   8
ATOM      8  O   UNL     1      44.595   4.004   9.062  0.00  0.00    +0.000 OA
BRANCH   8   9
ATOM      9  C   UNL     1      44.609   2.614   9.358  0.00  0.00    +0.000 C 
BRANCH   9  12
ATOM     10  C   UNL     1      47.353   1.528   7.090  0.00  0.00    +0.000 C 
ATOM     11  C   UNL     1      46.585   2.597   7.639  0.00  0.00    +0.000 C 
ATOM     12  C   UNL     1      45.634   1.895   8.523  0.00  0.00    +0.000 C 
ATOM     13  N   UNL     1      45.820   0.593   8.519  0.00  0.00    +0.000 NA
ATOM     14  C   UNL     1      46.867   0.397   7.628  0.00  0.00    +0.000 C 
BRANCH  10  16
ATOM     15  C   UNL     1      47.916   2.496   5.030  0.00  0.00    +0.000 C 
ATOM     16  O   UNL     1      48.334   1.804   6.200  0.00  0.00    +0.000 OA
ENDBRANCH  10  16
ENDBRANCH   9  12
ENDBRANCH   8   9
ENDBRANCH   7   8
ENDBRANCH   1   7
BRANCH   4  17
ATOM     17  C   UNL     1      47.225   7.989  13.389  0.00  0.00    +0.000 C 
BRANCH  17  18
ATOM     18  N   UNL     1      47.608   7.265  14.575  0.00  0.00    +0.000 N 
ATOM     19  C   UNL     1      48.924   7.001  14.846  0.00  0.00    +0.000 C 
ATOM     20  O   UNL     1      49.831   7.402  14.121  0.00  0.00    +0.000 OA
ATOM     21  H   UNL     1      46.879   6.742  15.052  0.00  0.00    +0.000 HD
BRANCH  19  22
ATOM     22  C   UNL     1      49.206   6.267  16.086  0.00  0.00    +0.000 A 
ATOM     23  C   UNL     1      50.248   6.680  16.905  0.00  0.00    +0.000 A 
ATOM     24  S   UNL     1      50.406   5.759  18.331  0.00  0.00    +0.000 S 
ATOM     25  C   UNL     1      49.120   4.741  17.878  0.00  0.00    +0.000 A 
ATOM     26  N   UNL     1      48.742   3.701  18.669  0.00  0.00    +0.000 NA
ATOM     27  C   UNL     1      47.777   2.990  18.190  0.00  0.00    +0.000 A 
ATOM     28  N   UNL     1      47.152   3.227  16.993  0.00  0.00    +0.000 N 
ATOM     29  C   UNL     1      47.479   4.283  16.175  0.00  0.00    +0.000 A 
ATOM     30  O   UNL     1      46.873   4.493  15.130  0.00  0.00    +0.000 OA
ATOM     31  C   UNL     1      48.568   5.108  16.664  0.00  0.00    +0.000 A 
ATOM     32  H   UNL     1      46.399   2.635  16.677  0.00  0.00    +0.000 HD
ENDBRANCH  19  22
ENDBRANCH  17  18
ENDBRANCH   4  17
TORSDOF 8
ENDMDL
MODEL 2
REMARK VINA RESULT:    -7.418      1.797      2.026
REMARK INTER + INTRA:         -11.992
REMARK INTER:                 -11.009
REMARK INTRA:                  -0.983
REMARK UNBOUND:                -1.105
REMARK  Name = 
REMARK  9 active torsions:
REMARK  status: ('A' for Active; 'I' for Inactive)
REMARK    1  A    between atoms: C_1  and  O_2
REMARK    2  A    between atoms: O_2  and  C_3
REMARK    3  A    between atoms: C_5  and  C_6
REMARK    4  A    between atoms: C_6  and  O_7
REMARK    5  A    between atoms: O_7  and  C_8
REMARK    6  A    between atoms: C_8  and  C_9
REMARK    7  A    between atoms: C_12  and  C_13
REMARK    8  A    between atoms: C_13  and  N_14
REMARK    9  A    between atoms: C_15  and  C_17
REMARK                            x       y       z     vdW  Elec       q    Type
REMARK                         _______ _______ _______ _____ _____    ______ ____
ROOT
ATOM      1  C   UNL     1      44.660   5.422  11.699  0.00  0.00    +0.000 A 
ATOM      2  C   UNL     1      45.614   6.232  11.069  0.00  0.00    +0.000 A 
ATOM      3  C   UNL     1      46.787   6.604  11.736  0.00  0.00    +0.000 A 
ATOM      4  C   UNL     1      47.030   6.164  13.043  0.00  0.00    +0.000 A 
ATOM      5  C   UNL     1      46.063   5.380  13.684  0.00  0.00    +0.000 A 
ATOM      6  C   UNL     1      44.892   5.008  13.017  0.00  0.00    +0.000 A 
ENDROOT
BRANCH   1   7
ATOM      7  C   UNL     1      43.400   5.016  10.977  0.00  0.00    +0.000 C 
BRANCH   7   8
ATOM      8  O   UNL     1      43.754   4.375   9.754  0.00  0.00    +0.000 OA
BRANCH   8   9
ATOM      9  C   UNL     1      44.117   3.016   9.959  0.00  0.00    +0.000 C 
BRANCH   9  12
ATOM     10  C   UNL     1      46.730   2.667   7.332  0.00  0.00    +0.000 C 
ATOM     11  C   UNL     1      45.842   3.518   8.053  0.00  0.00    +0.000 C 
ATOM     12  C   UNL     1      45.155   2.578   8.960  0.00  0.00    +0.000 C 
ATOM     13  N   UNL     1      45.585   1.344   8.817  0.00  0.00    +0.000 NA
ATOM     14  C   UNL     1      46.537   1.426   7.809  0.00  0.00    +0.000 C 
BRANCH  10  16
ATOM     15  C   UNL     1      47.642   2.427   5.185  0.00  0.00    +0.000 C 
ATOM     16  O   UNL     1      47.528   3.196   6.376  0.00  0.00    +0.000 OA
ENDBRANCH  10  16
ENDBRANCH   9  12
ENDBRANCH   8   9
ENDBRANCH   7   8
ENDBRANCH   1   7
BRANCH   4  17
ATOM     17  C   UNL     1      48.295   6.548  13.767  0.00  0.00    +0.000 C 
BRANCH  17  18
ATOM     18  N   UNL     1      48.053   6.751  15.173  0.00  0.00    +0.000 N 
ATOM     19  C   UNL     1      49.039   6.530  16.098  0.00  0.00    +0.000 C 
ATOM     20  O   UNL     1      50.175   6.195  15.770  0.00  0.00    +0.000 OA
ATOM     21  H   UNL     1      47.084   6.803  15.472  0.00  0.00    +0.000 HD
BRANCH  19  22
ATOM     22  C   UNL     1      48.692   6.778  17.503  0.00  0.00    +0.000 A 
ATOM     23  C   UNL     1      48.375   8.066  17.914  0.00  0.00    +0.000 A 
ATOM     24  S   UNL     1      47.941   8.172  19.559  0.00  0.00    +0.000 S 
ATOM     25  C   UNL     1      48.211   6.509  19.793  0.00  0.00    +0.000 A 
ATOM     26  N   UNL     1      48.039   5.939  21.016  0.00  0.00    +0.000 NA
ATOM     27  C   UNL     1      48.312   4.678  21.060  0.00  0.00    +0.000 A 
ATOM     28  N   UNL     1      48.738   3.934  19.991  0.00  0.00    +0.000 N 
ATOM     29  C   UNL     1      48.897   4.459  18.730  0.00  0.00    +0.000 A 
ATOM     30  O   UNL     1      49.239   3.758  17.784  0.00  0.00    +0.000 OA
ATOM     31  C   UNL     1      48.613   5.878  18.629  0.00  0.00    +0.000 A 
ATOM     32  H   UNL     1      48.929   2.949  20.091  0.00  0.00    +0.000 HD
ENDBRANCH  19  22
ENDBRANCH  17  18
ENDBRANCH   4  17
TORSDOF 8
ENDMDL
MODEL 3
REMARK VINA RESULT:    -7.328      1.377      1.720
REMARK INTER + INTRA:         -11.860
REMARK INTER:                 -10.863
REMARK INTRA:                  -0.997
REMARK UNBOUND:                -1.105
REMARK  Name = 
REMARK  9 active torsions:
REMARK  status: ('A' for Active; 'I' for Inactive)
REMARK    1  A    between atoms: C_1  and  O_2
REMARK    2  A    between atoms: O_2  and  C_3
REMARK    3  A    between atoms: C_5  and  C_6
REMARK    4  A    between atoms: C_6  and  O_7
REMARK    5  A    between atoms: O_7  and  C_8
REMARK    6  A    between atoms: C_8  and  C_9
REMARK    7  A    between atoms: C_12  and  C_13
REMARK    8  A    between atoms: C_13  and  N_14
REMARK    9  A    between atoms: C_15  and  C_17
REMARK                            x       y       z     vdW  Elec       q    Type
REMARK                         _______ _______ _______ _____ _____    ______ ____
ROOT
ATOM      1  C   UNL     1      44.528   5.085  11.875  0.00  0.00    +0.000 A 
ATOM      2  C   UNL     1      45.644   4.504  12.491  0.00  0.00    +0.000 A 
ATOM      3  C   UNL     1      46.672   5.303  13.005  0.00  0.00    +0.000 A 
ATOM      4  C   UNL     1      46.597   6.698  12.919  0.00  0.00    +0.000 A 
ATOM      5  C   UNL     1      45.496   7.278  12.276  0.00  0.00    +0.000 A 
ATOM      6  C   UNL     1      44.469   6.480  11.763  0.00  0.00    +0.000 A 
ENDROOT
BRANCH   1   7
ATOM      7  C   UNL     1      43.417   4.223  11.329  0.00  0.00    +0.000 C 
BRANCH   7   8
ATOM      8  O   UNL     1      43.934   3.415  10.274  0.00  0.00    +0.000 OA
BRANCH   8   9
ATOM      9  C   UNL     1      44.207   4.184   9.110  0.00  0.00    +0.000 C 
BRANCH   9  12
ATOM     10  C   UNL     1      46.833   2.114   7.474  0.00  0.00    +0.000 C 
ATOM     11  C   UNL     1      45.686   2.172   8.321  0.00  0.00    +0.000 C 
ATOM     12  C   UNL     1      45.375   3.614   8.350  0.00  0.00    +0.000 C 
ATOM     13  N   UNL     1      46.204   4.317   7.610  0.00  0.00    +0.000 NA
ATOM     14  C   UNL     1      47.089   3.378   7.097  0.00  0.00    +0.000 C 
BRANCH  10  16
ATOM     15  C   UNL     1      46.647  -0.220   7.587  0.00  0.00    +0.000 C 
ATOM     16  O   UNL     1      47.418   0.920   7.228  0.00  0.00    +0.000 OA
ENDBRANCH  10  16
ENDBRANCH   9  12
ENDBRANCH   8   9
ENDBRANCH   7   8
ENDBRANCH   1   7
BRANCH   4  17
ATOM     17  C   UNL     1      47.691   7.569  13.479  0.00  0.00    +0.000 C 
BRANCH  17  18
ATOM     18  N   UNL     1      48.009   7.204  14.837  0.00  0.00    +0.000 N 
ATOM     19  C   UNL     1      49.293   7.282  15.307  0.00  0.00    +0.000 C 
ATOM     20  O   UNL     1      50.215   7.705  14.613  0.00  0.00    +0.000 OA
ATOM     21  H   UNL     1      47.321   6.651  15.339  0.00  0.00    +0.000 HD
BRANCH  19  22
ATOM     22  C   UNL     1      49.506   6.897  16.707  0.00  0.00    +0.000 A 
ATOM     23  C   UNL     1      50.209   7.745  17.553  0.00  0.00    +0.000 A 
ATOM     24  S   UNL     1      50.319   7.178  19.156  0.00  0.00    +0.000 S 
ATOM     25  C   UNL     1      49.476   5.753  18.766  0.00  0.00    +0.000 A 
ATOM     26  N   UNL     1      49.243   4.800  19.708  0.00  0.00    +0.000 NA
ATOM     27  C   UNL     1      48.625   3.756  19.270  0.00  0.00    +0.000 A 
ATOM     28  N   UNL     1      48.215   3.579  17.974  0.00  0.00    +0.000 N 
ATOM     29  C   UNL     1      48.401   4.525  16.994  0.00  0.00    +0.000 A 
ATOM     30  O   UNL     1      47.986   4.355  15.853  0.00  0.00    +0.000 OA
ATOM     31  C   UNL     1      49.103   5.716  17.434  0.00  0.00    +0.000 A 
ATOM     32  H   UNL     1      47.730   2.739  17.695  0.00  0.00    +0.000 HD
ENDBRANCH  19  22
ENDBRANCH  17  18
ENDBRANCH   4  17
TORSDOF 8
ENDMDL
MODEL 4
REMARK VINA RESULT:    -6.972      3.691      7.995
REMARK INTER + INTRA:         -11.338
REMARK INTER:                 -10.008
REMARK INTRA:                  -1.330
REMARK UNBOUND:                -1.105
REMARK  Name = 
REMARK  9 active torsions:
REMARK  status: ('A' for Active; 'I' for Inactive)
REMARK    1  A    between atoms: C_1  and  O_2
REMARK    2  A    between atoms: O_2  and  C_3
REMARK    3  A    between atoms: C_5  and  C_6
REMARK    4  A    between atoms: C_6  and  O_7
REMARK    5  A    between atoms: O_7  and  C_8
REMARK    6  A    between atoms: C_8  and  C_9
REMARK    7  A    between atoms: C_12  and  C_13
REMARK    8  A    between atoms: C_13  and  N_14
REMARK    9  A    between atoms: C_15  and  C_17
REMARK                            x       y       z     vdW  Elec       q    Type
REMARK                         _______ _______ _______ _____ _____    ______ ____
ROOT
ATOM      1  C   UNL     1      48.778   7.592  16.620  0.00  0.00    +0.000 A 
ATOM      2  C   UNL     1      48.254   8.819  16.191  0.00  0.00    +0.000 A 
ATOM      3  C   UNL     1      47.978   9.043  14.838  0.00  0.00    +0.000 A 
ATOM      4  C   UNL     1      48.214   8.041  13.890  0.00  0.00    +0.000 A 
ATOM      5  C   UNL     1      48.766   6.825  14.313  0.00  0.00    +0.000 A 
ATOM      6  C   UNL     1      49.041   6.601  15.666  0.00  0.00    +0.000 A 
ENDROOT
BRANCH   1   7
ATOM      7  C   UNL     1      49.067   7.349  18.080  0.00  0.00    +0.000 C 
BRANCH   7   8
ATOM      8  O   UNL     1      47.866   6.939  18.728  0.00  0.00    +0.000 OA
BRANCH   8   9
ATOM      9  C   UNL     1      48.007   5.663  19.336  0.00  0.00    +0.000 C 
BRANCH   9  12
ATOM     10  C   UNL     1      48.743   2.817  17.054  0.00  0.00    +0.000 C 
ATOM     11  C   UNL     1      49.189   3.684  18.095  0.00  0.00    +0.000 C 
ATOM     12  C   UNL     1      48.028   4.571  18.300  0.00  0.00    +0.000 C 
ATOM     13  N   UNL     1      47.023   4.266  17.510  0.00  0.00    +0.000 NA
ATOM     14  C   UNL     1      47.491   3.200  16.753  0.00  0.00    +0.000 C 
BRANCH  10  16
ATOM     15  C   UNL     1      50.884   1.864  17.140  0.00  0.00    +0.000 C 
ATOM     16  O   UNL     1      49.576   1.860  16.583  0.00  0.00    +0.000 OA
ENDBRANCH  10  16
ENDBRANCH   9  12
ENDBRANCH   8   9
ENDBRANCH   7   8
ENDBRANCH   1   7
BRANCH   4  17
ATOM     17  C   UNL     1      47.910   8.266  12.431  0.00  0.00    +0.000 C 
BRANCH  17  18
ATOM     18  N   UNL     1      47.327   7.093  11.830  0.00  0.00    +0.000 N 
ATOM     19  C   UNL     1      46.019   7.083  11.425  0.00  0.00    +0.000 C 
ATOM     20  O   UNL     1      45.303   8.077  11.515  0.00  0.00    +0.000 OA
ATOM     21  H   UNL     1      47.823   6.215  11.954  0.00  0.00    +0.000 HD
BRANCH  19  22
ATOM     22  C   UNL     1      45.528   5.841  10.814  0.00  0.00    +0.000 A 
ATOM     23  C   UNL     1      45.780   5.591   9.471  0.00  0.00    +0.000 A 
ATOM     24  S   UNL     1      45.193   4.083   8.934  0.00  0.00    +0.000 S 
ATOM     25  C   UNL     1      44.536   3.734  10.463  0.00  0.00    +0.000 A 
ATOM     26  N   UNL     1      43.860   2.574  10.684  0.00  0.00    +0.000 NA
ATOM     27  C   UNL     1      43.384   2.453  11.877  0.00  0.00    +0.000 A 
ATOM     28  N   UNL     1      43.527   3.384  12.873  0.00  0.00    +0.000 N 
ATOM     29  C   UNL     1      44.227   4.556  12.706  0.00  0.00    +0.000 A 
ATOM     30  O   UNL     1      44.372   5.350  13.629  0.00  0.00    +0.000 OA
ATOM     31  C   UNL     1      44.773   4.746  11.376  0.00  0.00    +0.000 A 
ATOM     32  H   UNL     1      43.135   3.225  13.789  0.00  0.00    +0.000 HD
ENDBRANCH  19  22
ENDBRANCH  17  18
ENDBRANCH   4  17
TORSDOF 8
ENDMDL
MODEL 5
REMARK VINA RESULT:    -6.706      2.037      2.753
REMARK INTER + INTRA:         -10.947
REMARK INTER:                  -9.530
REMARK INTRA:                  -1.417
REMARK UNBOUND:                -1.105
REMARK  Name = 
REMARK  9 active torsions:
REMARK  status: ('A' for Active; 'I' for Inactive)
REMARK    1  A    between atoms: C_1  and  O_2
REMARK    2  A    between atoms: O_2  and  C_3
REMARK    3  A    between atoms: C_5  and  C_6
REMARK    4  A    between atoms: C_6  and  O_7
REMARK    5  A    between atoms: O_7  and  C_8
REMARK    6  A    between atoms: C_8  and  C_9
REMARK    7  A    between atoms: C_12  and  C_13
REMARK    8  A    between atoms: C_13  and  N_14
REMARK    9  A    between atoms: C_15  and  C_17
REMARK                            x       y       z     vdW  Elec       q    Type
REMARK                         _______ _______ _______ _____ _____    ______ ____
ROOT
ATOM      1  C   UNL     1      45.200   6.070  12.911  0.00  0.00    +0.000 A 
ATOM      2  C   UNL     1      45.439   7.418  12.614  0.00  0.00    +0.000 A 
ATOM      3  C   UNL     1      46.746   7.912  12.544  0.00  0.00    +0.000 A 
ATOM      4  C   UNL     1      47.839   7.064  12.761  0.00  0.00    +0.000 A 
ATOM      5  C   UNL     1      47.599   5.723  13.087  0.00  0.00    +0.000 A 
ATOM      6  C   UNL     1      46.293   5.229  13.156  0.00  0.00    +0.000 A 
ENDROOT
BRANCH   1   7
ATOM      7  C   UNL     1      43.791   5.537  12.978  0.00  0.00    +0.000 C 
BRANCH   7   8
ATOM      8  O   UNL     1      43.797   4.162  12.603  0.00  0.00    +0.000 OA
BRANCH   8   9
ATOM      9  C   UNL     1      43.036   3.937  11.423  0.00  0.00    +0.000 C 
BRANCH   9  12
ATOM     10  C   UNL     1      45.394   3.734   8.551  0.00  0.00    +0.000 C 
ATOM     11  C   UNL     1      44.700   4.547   9.495  0.00  0.00    +0.000 C 
ATOM     12  C   UNL     1      43.927   3.557  10.271  0.00  0.00    +0.000 C 
ATOM     13  N   UNL     1      44.145   2.326   9.864  0.00  0.00    +0.000 NA
ATOM     14  C   UNL     1      45.034   2.465   8.807  0.00  0.00    +0.000 C 
BRANCH  10  16
ATOM     15  C   UNL     1      46.625   3.479   6.572  0.00  0.00    +0.000 C 
ATOM     16  O   UNL     1      46.207   4.318   7.641  0.00  0.00    +0.000 OA
ENDBRANCH  10  16
ENDBRANCH   9  12
ENDBRANCH   8   9
ENDBRANCH   7   8
ENDBRANCH   1   7
BRANCH   4  17
ATOM     17  C   UNL     1      49.251   7.581  12.676  0.00  0.00    +0.000 C 
BRANCH  17  18
ATOM     18  N   UNL     1      50.002   7.254  13.863  0.00  0.00    +0.000 N 
ATOM     19  C   UNL     1      49.996   8.084  14.952  0.00  0.00    +0.000 C 
ATOM     20  O   UNL     1      49.323   9.112  14.983  0.00  0.00    +0.000 OA
ATOM     21  H   UNL     1      50.724   6.546  13.772  0.00  0.00    +0.000 HD
BRANCH  19  22
ATOM     22  C   UNL     1      50.784   7.653  16.112  0.00  0.00    +0.000 A 
ATOM     23  C   UNL     1      51.882   8.404  16.514  0.00  0.00    +0.000 A 
ATOM     24  S   UNL     1      52.652   7.800  17.909  0.00  0.00    +0.000 S 
ATOM     25  C   UNL     1      51.578   6.483  17.997  0.00  0.00    +0.000 A 
ATOM     26  N   UNL     1      51.702   5.546  18.975  0.00  0.00    +0.000 NA
ATOM     27  C   UNL     1      50.844   4.584  18.903  0.00  0.00    +0.000 A 
ATOM     28  N   UNL     1      49.870   4.476  17.944  0.00  0.00    +0.000 N 
ATOM     29  C   UNL     1      49.688   5.414  16.955  0.00  0.00    +0.000 A 
ATOM     30  O   UNL     1      48.781   5.311  16.136  0.00  0.00    +0.000 OA
ATOM     31  C   UNL     1      50.636   6.512  16.984  0.00  0.00    +0.000 A 
ATOM     32  H   UNL     1      49.226   3.701  17.948  0.00  0.00    +0.000 HD
ENDBRANCH  19  22
ENDBRANCH  17  18
ENDBRANCH   4  17
TORSDOF 8
ENDMDL
MODEL 6
REMARK VINA RESULT:    -6.628      2.847      3.621
REMARK INTER + INTRA:         -10.833
REMARK INTER:                 -10.152
REMARK INTRA:                  -0.680
REMARK UNBOUND:                -1.105
REMARK  Name = 
REMARK  9 active torsions:
REMARK  status: ('A' for Active; 'I' for Inactive)
REMARK    1  A    between atoms: C_1  and  O_2
REMARK    2  A    between atoms: O_2  and  C_3
REMARK    3  A    between atoms: C_5  and  C_6
REMARK    4  A    between atoms: C_6  and  O_7
REMARK    5  A    between atoms: O_7  and  C_8
REMARK    6  A    between atoms: C_8  and  C_9
REMARK    7  A    between atoms: C_12  and  C_13
REMARK    8  A    between atoms: C_13  and  N_14
REMARK    9  A    between atoms: C_15  and  C_17
REMARK                            x       y       z     vdW  Elec       q    Type
REMARK                         _______ _______ _______ _____ _____    ______ ____
ROOT
ATOM      1  C   UNL     1      46.545   4.945  13.321  0.00  0.00    +0.000 A 
ATOM      2  C   UNL     1      47.256   6.102  12.975  0.00  0.00    +0.000 A 
ATOM      3  C   UNL     1      48.114   6.714  13.895  0.00  0.00    +0.000 A 
ATOM      4  C   UNL     1      48.286   6.174  15.175  0.00  0.00    +0.000 A 
ATOM      5  C   UNL     1      47.553   5.034  15.531  0.00  0.00    +0.000 A 
ATOM      6  C   UNL     1      46.696   4.423  14.612  0.00  0.00    +0.000 A 
ENDROOT
BRANCH   1   7
ATOM      7  C   UNL     1      45.626   4.282  12.327  0.00  0.00    +0.000 C 
BRANCH   7   8
ATOM      8  O   UNL     1      44.413   5.026  12.251  0.00  0.00    +0.000 OA
BRANCH   8   9
ATOM      9  C   UNL     1      43.985   5.195  10.906  0.00  0.00    +0.000 C 
BRANCH   9  12
ATOM     10  C   UNL     1      45.519   2.774   8.532  0.00  0.00    +0.000 C 
ATOM     11  C   UNL     1      45.473   4.102   9.049  0.00  0.00    +0.000 C 
ATOM     12  C   UNL     1      44.398   4.023  10.057  0.00  0.00    +0.000 C 
ATOM     13  N   UNL     1      43.888   2.815  10.146  0.00  0.00    +0.000 NA
ATOM     14  C   UNL     1      44.582   2.077   9.196  0.00  0.00    +0.000 C 
BRANCH  10  16
ATOM     15  C   UNL     1      46.430   3.384   6.459  0.00  0.00    +0.000 C 
ATOM     16  O   UNL     1      46.400   2.473   7.551  0.00  0.00    +0.000 OA
ENDBRANCH  10  16
ENDBRANCH   9  12
ENDBRANCH   8   9
ENDBRANCH   7   8
ENDBRANCH   1   7
BRANCH   4  17
ATOM     17  C   UNL     1      49.217   6.816  16.170  0.00  0.00    +0.000 C 
BRANCH  17  18
ATOM     18  N   UNL     1      50.247   5.900  16.592  0.00  0.00    +0.000 N 
ATOM     19  C   UNL     1      50.470   5.653  17.920  0.00  0.00    +0.000 C 
ATOM     20  O   UNL     1      49.782   6.162  18.801  0.00  0.00    +0.000 OA
ATOM     21  H   UNL     1      50.955   5.654  15.907  0.00  0.00    +0.000 HD
BRANCH  19  22
ATOM     22  C   UNL     1      51.535   4.694  18.242  0.00  0.00    +0.000 A 
ATOM     23  C   UNL     1      52.672   5.130  18.909  0.00  0.00    +0.000 A 
ATOM     24  S   UNL     1      53.782   3.885  19.257  0.00  0.00    +0.000 S 
ATOM     25  C   UNL     1      52.808   2.726  18.481  0.00  0.00    +0.000 A 
ATOM     26  N   UNL     1      53.200   1.427  18.399  0.00  0.00    +0.000 NA
ATOM     27  C   UNL     1      52.383   0.663  17.754  0.00  0.00    +0.000 A 
ATOM     28  N   UNL     1      51.207   1.080  17.187  0.00  0.00    +0.000 N 
ATOM     29  C   UNL     1      50.755   2.376  17.270  0.00  0.00    +0.000 A 
ATOM     30  O   UNL     1      49.678   2.709  16.788  0.00  0.00    +0.000 OA
ATOM     31  C   UNL     1      51.644   3.279  17.976  0.00  0.00    +0.000 A 
ATOM     32  H   UNL     1      50.609   0.430  16.699  0.00  0.00    +0.000 HD
ENDBRANCH  19  22
ENDBRANCH  17  18
ENDBRANCH   4  17
TORSDOF 8
ENDMDL
MODEL 7
REMARK VINA RESULT:    -6.367      3.210      4.318
REMARK INTER + INTRA:         -10.449
REMARK INTER:                  -9.624
REMARK INTRA:                  -0.826
REMARK UNBOUND:                -1.105
REMARK  Name = 
REMARK  9 active torsions:
REMARK  status: ('A' for Active; 'I' for Inactive)
REMARK    1  A    between atoms: C_1  and  O_2
REMARK    2  A    between atoms: O_2  and  C_3
REMARK    3  A    between atoms: C_5  and  C_6
REMARK    4  A    between atoms: C_6  and  O_7
REMARK    5  A    between atoms: O_7  and  C_8
REMARK    6  A    between atoms: C_8  and  C_9
REMARK    7  A    between atoms: C_12  and  C_13
REMARK    8  A    between atoms: C_13  and  N_14
REMARK    9  A    between atoms: C_15  and  C_17
REMARK                            x       y       z     vdW  Elec       q    Type
REMARK                         _______ _______ _______ _____ _____    ______ ____
ROOT
ATOM      1  C   UNL     1      46.637   5.839  12.834  0.00  0.00    +0.000 A 
ATOM      2  C   UNL     1      47.477   6.947  13.014  0.00  0.00    +0.000 A 
ATOM      3  C   UNL     1      48.203   7.107  14.200  0.00  0.00    +0.000 A 
ATOM      4  C   UNL     1      48.108   6.157  15.224  0.00  0.00    +0.000 A 
ATOM      5  C   UNL     1      47.246   5.066  15.057  0.00  0.00    +0.000 A 
ATOM      6  C   UNL     1      46.521   4.906  13.872  0.00  0.00    +0.000 A 
ENDROOT
BRANCH   1   7
ATOM      7  C   UNL     1      45.862   5.664  11.553  0.00  0.00    +0.000 C 
BRANCH   7   8
ATOM      8  O   UNL     1      44.677   4.920  11.827  0.00  0.00    +0.000 OA
BRANCH   8   9
ATOM      9  C   UNL     1      43.868   4.776  10.667  0.00  0.00    +0.000 C 
BRANCH   9  12
ATOM     10  C   UNL     1      45.558   2.204   8.575  0.00  0.00    +0.000 C 
ATOM     11  C   UNL     1      44.960   2.551   9.822  0.00  0.00    +0.000 C 
ATOM     12  C   UNL     1      44.572   3.960   9.616  0.00  0.00    +0.000 C 
ATOM     13  N   UNL     1      44.876   4.389   8.411  0.00  0.00    +0.000 NA
ATOM     14  C   UNL     1      45.486   3.300   7.801  0.00  0.00    +0.000 C 
BRANCH  10  16
ATOM     15  C   UNL     1      47.059   0.840   7.397  0.00  0.00    +0.000 C 
ATOM     16  O   UNL     1      46.058   0.959   8.401  0.00  0.00    +0.000 OA
ENDBRANCH  10  16
ENDBRANCH   9  12
ENDBRANCH   8   9
ENDBRANCH   7   8
ENDBRANCH   1   7
BRANCH   4  17
ATOM     17  C   UNL     1      48.894   6.312  16.500  0.00  0.00    +0.000 C 
BRANCH  17  18
ATOM     18  N   UNL     1      49.874   5.264  16.643  0.00  0.00    +0.000 N 
ATOM     19  C   UNL     1      49.948   4.518  17.788  0.00  0.00    +0.000 C 
ATOM     20  O   UNL     1      49.162   4.676  18.719  0.00  0.00    +0.000 OA
ATOM     21  H   UNL     1      50.657   5.273  15.995  0.00  0.00    +0.000 HD
BRANCH  19  22
ATOM     22  C   UNL     1      50.974   3.469  17.826  0.00  0.00    +0.000 A 
ATOM     23  C   UNL     1      50.652   2.179  17.423  0.00  0.00    +0.000 A 
ATOM     24  S   UNL     1      51.969   1.098  17.473  0.00  0.00    +0.000 S 
ATOM     25  C   UNL     1      53.003   2.301  18.086  0.00  0.00    +0.000 A 
ATOM     26  N   UNL     1      54.302   2.022  18.379  0.00  0.00    +0.000 NA
ATOM     27  C   UNL     1      54.964   3.015  18.869  0.00  0.00    +0.000 A 
ATOM     28  N   UNL     1      54.446   4.265  19.089  0.00  0.00    +0.000 N 
ATOM     29  C   UNL     1      53.149   4.603  18.781  0.00  0.00    +0.000 A 
ATOM     30  O   UNL     1      52.727   5.741  18.950  0.00  0.00    +0.000 OA
ATOM     31  C   UNL     1      52.358   3.515  18.237  0.00  0.00    +0.000 A 
ATOM     32  H   UNL     1      55.019   5.002  19.470  0.00  0.00    +0.000 HD
ENDBRANCH  19  22
ENDBRANCH  17  18
ENDBRANCH   4  17
TORSDOF 8
ENDMDL
MODEL 8
REMARK VINA RESULT:    -6.036      4.067      5.491
REMARK INTER + INTRA:          -9.964
REMARK INTER:                  -9.060
REMARK INTRA:                  -0.904
REMARK UNBOUND:                -1.105
REMARK  Name = 
REMARK  9 active torsions:
REMARK  status: ('A' for Active; 'I' for Inactive)
REMARK    1  A    between atoms: C_1  and  O_2
REMARK    2  A    between atoms: O_2  and  C_3
REMARK    3  A    between atoms: C_5  and  C_6
REMARK    4  A    between atoms: C_6  and  O_7
REMARK    5  A    between atoms: O_7  and  C_8
REMARK    6  A    between atoms: C_8  and  C_9
REMARK    7  A    between atoms: C_12  and  C_13
REMARK    8  A    between atoms: C_13  and  N_14
REMARK    9  A    between atoms: C_15  and  C_17
REMARK                            x       y       z     vdW  Elec       q    Type
REMARK                         _______ _______ _______ _____ _____    ______ ____
ROOT
ATOM      1  C   UNL     1      46.333   6.272  11.953  0.00  0.00    +0.000 A 
ATOM      2  C   UNL     1      47.048   7.459  11.742  0.00  0.00    +0.000 A 
ATOM      3  C   UNL     1      48.083   7.831  12.608  0.00  0.00    +0.000 A 
ATOM      4  C   UNL     1      48.427   7.018  13.694  0.00  0.00    +0.000 A 
ATOM      5  C   UNL     1      47.692   5.847  13.922  0.00  0.00    +0.000 A 
ATOM      6  C   UNL     1      46.659   5.475  13.057  0.00  0.00    +0.000 A 
ENDROOT
BRANCH   1   7
ATOM      7  C   UNL     1      45.223   5.868  11.015  0.00  0.00    +0.000 C 
BRANCH   7   8
ATOM      8  O   UNL     1      44.294   5.050  11.722  0.00  0.00    +0.000 OA
BRANCH   8   9
ATOM      9  C   UNL     1      43.447   4.332  10.835  0.00  0.00    +0.000 C 
BRANCH   9  12
ATOM     10  C   UNL     1      45.497   2.195   8.582  0.00  0.00    +0.000 C 
ATOM     11  C   UNL     1      44.909   2.388   9.866  0.00  0.00    +0.000 C 
ATOM     12  C   UNL     1      44.241   3.696   9.726  0.00  0.00    +0.000 C 
ATOM     13  N   UNL     1      44.390   4.204   8.522  0.00  0.00    +0.000 NA
ATOM     14  C   UNL     1      45.170   3.273   7.850  0.00  0.00    +0.000 C 
BRANCH  10  16
ATOM     15  C   UNL     1      47.211   1.200   7.329  0.00  0.00    +0.000 C 
ATOM     16  O   UNL     1      46.223   1.078   8.344  0.00  0.00    +0.000 OA
ENDBRANCH  10  16
ENDBRANCH   9  12
ENDBRANCH   8   9
ENDBRANCH   7   8
ENDBRANCH   1   7
BRANCH   4  17
ATOM     17  C   UNL     1      49.548   7.402  14.625  0.00  0.00    +0.000 C 
BRANCH  17  18
ATOM     18  N   UNL     1      50.799   7.519  13.920  0.00  0.00    +0.000 N 
ATOM     19  C   UNL     1      51.377   8.742  13.705  0.00  0.00    +0.000 C 
ATOM     20  O   UNL     1      50.882   9.780  14.138  0.00  0.00    +0.000 OA
ATOM     21  H   UNL     1      51.096   6.717  13.371  0.00  0.00    +0.000 HD
BRANCH  19  22
ATOM     22  C   UNL     1      52.656   8.749  12.986  0.00  0.00    +0.000 A 
ATOM     23  C   UNL     1      53.783   9.285  13.596  0.00  0.00    +0.000 A 
ATOM     24  S   UNL     1      55.197   9.164  12.651  0.00  0.00    +0.000 S 
ATOM     25  C   UNL     1      54.343   8.438  11.371  0.00  0.00    +0.000 A 
ATOM     26  N   UNL     1      54.975   8.092  10.218  0.00  0.00    +0.000 NA
ATOM     27  C   UNL     1      54.203   7.583   9.318  0.00  0.00    +0.000 A 
ATOM     28  N   UNL     1      52.855   7.384   9.467  0.00  0.00    +0.000 N 
ATOM     29  C   UNL     1      52.178   7.689  10.625  0.00  0.00    +0.000 A 
ATOM     30  O   UNL     1      50.980   7.461  10.743  0.00  0.00    +0.000 OA
ATOM     31  C   UNL     1      53.001   8.276  11.666  0.00  0.00    +0.000 A 
ATOM     32  H   UNL     1      52.308   6.975   8.726  0.00  0.00    +0.000 HD
ENDBRANCH  19  22
ENDBRANCH  17  18
ENDBRANCH   4  17
TORSDOF 8
ENDMDL
MODEL 9
REMARK VINA RESULT:    -5.777      2.845      8.123
REMARK INTER + INTRA:          -9.583
REMARK INTER:                  -8.882
REMARK INTRA:                  -0.701
REMARK UNBOUND:                -1.105
REMARK  Name = 
REMARK  9 active torsions:
REMARK  status: ('A' for Active; 'I' for Inactive)
REMARK    1  A    between atoms: C_1  and  O_2
REMARK    2  A    between atoms: O_2  and  C_3
REMARK    3  A    between atoms: C_5  and  C_6
REMARK    4  A    between atoms: C_6  and  O_7
REMARK    5  A    between atoms: O_7  and  C_8
REMARK    6  A    between atoms: C_8  and  C_9
REMARK    7  A    between atoms: C_12  and  C_13
REMARK    8  A    between atoms: C_13  and  N_14
REMARK    9  A    between atoms: C_15  and  C_17
REMARK                            x       y       z     vdW  Elec       q    Type
REMARK                         _______ _______ _______ _____ _____    ______ ____
ROOT
ATOM      1  C   UNL     1      49.291   8.117  14.262  0.00  0.00    +0.000 A 
ATOM      2  C   UNL     1      48.189   8.913  14.603  0.00  0.00    +0.000 A 
ATOM      3  C   UNL     1      47.056   8.953  13.784  0.00  0.00    +0.000 A 
ATOM      4  C   UNL     1      47.000   8.188  12.612  0.00  0.00    +0.000 A 
ATOM      5  C   UNL     1      48.112   7.416  12.255  0.00  0.00    +0.000 A 
ATOM      6  C   UNL     1      49.244   7.376  13.074  0.00  0.00    +0.000 A 
ENDROOT
BRANCH   1   7
ATOM      7  C   UNL     1      50.508   8.069  15.149  0.00  0.00    +0.000 C 
BRANCH   7   8
ATOM      8  O   UNL     1      50.088   7.948  16.506  0.00  0.00    +0.000 OA
BRANCH   8   9
ATOM      9  C   UNL     1      50.723   6.855  17.156  0.00  0.00    +0.000 C 
BRANCH   9  12
ATOM     10  C   UNL     1      48.134   4.237  16.611  0.00  0.00    +0.000 C 
ATOM     11  C   UNL     1      48.550   5.589  16.427  0.00  0.00    +0.000 C 
ATOM     12  C   UNL     1      49.862   5.621  17.101  0.00  0.00    +0.000 C 
ATOM     13  N   UNL     1      50.194   4.451  17.600  0.00  0.00    +0.000 NA
ATOM     14  C   UNL     1      49.117   3.629  17.297  0.00  0.00    +0.000 C 
BRANCH  10  16
ATOM     15  C   UNL     1      46.707   4.134  14.754  0.00  0.00    +0.000 C 
ATOM     16  O   UNL     1      46.936   3.838  16.126  0.00  0.00    +0.000 OA
ENDBRANCH  10  16
ENDBRANCH   9  12
ENDBRANCH   8   9
ENDBRANCH   7   8
ENDBRANCH   1   7
BRANCH   4  17
ATOM     17  C   UNL     1      45.779   8.213  11.729  0.00  0.00    +0.000 C 
BRANCH  17  18
ATOM     18  N   UNL     1      45.418   6.886  11.297  0.00  0.00    +0.000 N 
ATOM     19  C   UNL     1      44.785   6.016  12.144  0.00  0.00    +0.000 C 
ATOM     20  O   UNL     1      44.461   6.339  13.285  0.00  0.00    +0.000 OA
ATOM     21  H   UNL     1      45.870   6.534  10.459  0.00  0.00    +0.000 HD
BRANCH  19  22
ATOM     22  C   UNL     1      44.451   4.693  11.602  0.00  0.00    +0.000 A 
ATOM     23  C   UNL     1      43.708   3.805  12.368  0.00  0.00    +0.000 A 
ATOM     24  S   UNL     1      43.359   2.339  11.572  0.00  0.00    +0.000 S 
ATOM     25  C   UNL     1      44.233   2.818  10.193  0.00  0.00    +0.000 A 
ATOM     26  N   UNL     1      44.351   1.991   9.120  0.00  0.00    +0.000 NA
ATOM     27  C   UNL     1      45.069   2.465   8.158  0.00  0.00    +0.000 A 
ATOM     28  N   UNL     1      45.677   3.693   8.169  0.00  0.00    +0.000 N 
ATOM     29  C   UNL     1      45.561   4.575   9.218  0.00  0.00    +0.000 A 
ATOM     30  O   UNL     1      46.082   5.684   9.181  0.00  0.00    +0.000 OA
ATOM     31  C   UNL     1      44.772   4.085  10.332  0.00  0.00    +0.000 A 
ATOM     32  H   UNL     1      46.221   4.008   7.381  0.00  0.00    +0.000 HD
ENDBRANCH  19  22
ENDBRANCH  17  18
ENDBRANCH   4  17
TORSDOF 8
ENDMDL
