MODEL 1
REMARK VINA RESULT:    -8.784      0.000      0.000
REMARK INTER + INTRA:         -13.928
REMARK INTER:                 -12.379
REMARK INTRA:                  -1.550
REMARK UNBOUND:                -1.550
REMARK  Name = 
REMARK  9 active torsions:
REMARK  status: ('A' for Active; 'I' for Inactive)
REMARK    1  A    between atoms: C_1  and  C_2
REMARK    2  A    between atoms: C_2  and  N_3
REMARK    3  A    between atoms: C_2  and  C_17
REMARK    4  A    between atoms: C_4  and  C_6
REMARK    5  A    between atoms: N_12  and  C_13
REMARK    6  A    between atoms: C_20  and  C_21
REMARK    7  A    between atoms: C_21  and  N_22
REMARK    8  A    between atoms: N_22  and  C_23
REMARK    9  A    between atoms: C_23  and  C_24
REMARK                            x       y       z     vdW  Elec       q    Type
REMARK                         _______ _______ _______ _____ _____    ______ ____
ROOT
ATOM      1  C   UNL     1      46.497   9.028  12.859  0.00  0.00    +0.000 C 
ATOM      2  C   UNL     1      47.228   7.685  12.936  0.00  0.00    +0.000 C 
ENDROOT
BRANCH   2   3
ATOM      3  C   UNL     1      46.351   6.544  12.447  0.00  0.00    +0.000 A 
ATOM      4  C   UNL     1      46.089   6.419  11.076  0.00  0.00    +0.000 A 
ATOM      5  C   UNL     1      45.230   5.424  10.599  0.00  0.00    +0.000 A 
ATOM      6  C   UNL     1      44.626   4.517  11.478  0.00  0.00    +0.000 A 
ATOM      7  C   UNL     1      44.923   4.606  12.843  0.00  0.00    +0.000 A 
ATOM      8  C   UNL     1      45.778   5.606  13.322  0.00  0.00    +0.000 A 
BRANCH   6   9
ATOM      9  C   UNL     1      43.647   3.486  10.960  0.00  0.00    +0.000 C 
BRANCH   9  10
ATOM     10  N   UNL     1      43.860   3.215   9.542  0.00  0.00    +0.000 NA
ATOM     11  H   UNL     1      44.370   3.992   9.123  0.00  0.00    +0.000 HD
BRANCH  10  12
ATOM     12  C   UNL     1      44.616   1.981   9.337  0.00  0.00    +0.000 C 
BRANCH  12  13
ATOM     13  C   UNL     1      45.667   2.165   8.266  0.00  0.00    +0.000 A 
ATOM     14  C   UNL     1      46.556   1.131   7.939  0.00  0.00    +0.000 A 
ATOM     15  C   UNL     1      47.517   1.313   6.941  0.00  0.00    +0.000 A 
ATOM     16  C   UNL     1      47.599   2.527   6.260  0.00  0.00    +0.000 A 
ATOM     17  C   UNL     1      46.718   3.560   6.573  0.00  0.00    +0.000 A 
ATOM     18  C   UNL     1      45.757   3.378   7.568  0.00  0.00    +0.000 A 
ENDBRANCH  12  13
ENDBRANCH  10  12
ENDBRANCH   9  10
ENDBRANCH   6   9
ENDBRANCH   2   3
BRANCH   2  19
ATOM     19  N   UNL     1      47.675   7.423  14.287  0.00  0.00    +0.000 N 
ATOM     20  C   UNL     1      48.996   7.408  14.654  0.00  0.00    +0.000 C 
ATOM     21  O   UNL     1      49.916   7.444  13.846  0.00  0.00    +0.000 OA
ATOM     22  H   UNL     1      46.979   7.583  15.004  0.00  0.00    +0.000 HD
BRANCH  20  23
ATOM     23  C   UNL     1      49.240   7.296  16.099  0.00  0.00    +0.000 A 
ATOM     24  C   UNL     1      49.810   8.349  16.800  0.00  0.00    +0.000 A 
ATOM     25  S   UNL     1      50.043   8.010  18.457  0.00  0.00    +0.000 S 
ATOM     26  C   UNL     1      49.347   6.463  18.300  0.00  0.00    +0.000 A 
ATOM     27  N   UNL     1      49.218   5.639  19.371  0.00  0.00    +0.000 NA
ATOM     28  C   UNL     1      48.651   4.505  19.107  0.00  0.00    +0.000 A 
ATOM     29  N   UNL     1      48.197   4.105  17.868  0.00  0.00    +0.000 N 
ATOM     30  C   UNL     1      47.588   2.806  17.674  0.00  0.00    +0.000 C 
ATOM     31  C   UNL     1      48.336   4.916  16.750  0.00  0.00    +0.000 A 
ATOM     32  O   UNL     1      47.981   4.556  15.629  0.00  0.00    +0.000 OA
ATOM     33  C   UNL     1      48.959   6.203  17.001  0.00  0.00    +0.000 A 
ENDBRANCH  20  23
ENDBRANCH   2  19
TORSDOF 7
ENDMDL
MODEL 2
REMARK VINA RESULT:    -7.474      2.042      3.292
REMARK INTER + INTRA:         -12.082
REMARK INTER:                 -10.786
REMARK INTRA:                  -1.296
REMARK UNBOUND:                -1.550
REMARK  Name = 
REMARK  9 active torsions:
REMARK  status: ('A' for Active; 'I' for Inactive)
REMARK    1  A    between atoms: C_1  and  C_2
REMARK    2  A    between atoms: C_2  and  N_3
REMARK    3  A    between atoms: C_2  and  C_17
REMARK    4  A    between atoms: C_4  and  C_6
REMARK    5  A    between atoms: N_12  and  C_13
REMARK    6  A    between atoms: C_20  and  C_21
REMARK    7  A    between atoms: C_21  and  N_22
REMARK    8  A    between atoms: N_22  and  C_23
REMARK    9  A    between atoms: C_23  and  C_24
REMARK                            x       y       z     vdW  Elec       q    Type
REMARK                         _______ _______ _______ _____ _____    ______ ____
ROOT
ATOM      1  C   UNL     1      48.026   3.050  15.580  0.00  0.00    +0.000 C 
ATOM      2  C   UNL     1      47.155   4.310  15.616  0.00  0.00    +0.000 C 
ENDROOT
BRANCH   2   3
ATOM      3  C   UNL     1      46.680   4.697  14.225  0.00  0.00    +0.000 A 
ATOM      4  C   UNL     1      47.210   5.840  13.612  0.00  0.00    +0.000 A 
ATOM      5  C   UNL     1      46.745   6.265  12.364  0.00  0.00    +0.000 A 
ATOM      6  C   UNL     1      45.750   5.548  11.689  0.00  0.00    +0.000 A 
ATOM      7  C   UNL     1      45.251   4.378  12.274  0.00  0.00    +0.000 A 
ATOM      8  C   UNL     1      45.713   3.955  13.526  0.00  0.00    +0.000 A 
BRANCH   6   9
ATOM      9  C   UNL     1      45.206   6.051  10.369  0.00  0.00    +0.000 C 
BRANCH   9  10
ATOM     10  N   UNL     1      45.836   5.374   9.241  0.00  0.00    +0.000 NA
ATOM     11  H   UNL     1      46.704   4.938   9.551  0.00  0.00    +0.000 HD
BRANCH  10  12
ATOM     12  C   UNL     1      44.963   4.351   8.670  0.00  0.00    +0.000 C 
BRANCH  12  13
ATOM     13  C   UNL     1      45.774   3.270   7.991  0.00  0.00    +0.000 A 
ATOM     14  C   UNL     1      46.545   3.551   6.854  0.00  0.00    +0.000 A 
ATOM     15  C   UNL     1      47.296   2.544   6.241  0.00  0.00    +0.000 A 
ATOM     16  C   UNL     1      47.285   1.249   6.758  0.00  0.00    +0.000 A 
ATOM     17  C   UNL     1      46.526   0.959   7.889  0.00  0.00    +0.000 A 
ATOM     18  C   UNL     1      45.778   1.964   8.503  0.00  0.00    +0.000 A 
ENDBRANCH  12  13
ENDBRANCH  10  12
ENDBRANCH   9  10
ENDBRANCH   6   9
ENDBRANCH   2   3
BRANCH   2  19
ATOM     19  N   UNL     1      47.873   5.411  16.220  0.00  0.00    +0.000 N 
ATOM     20  C   UNL     1      47.847   5.681  17.564  0.00  0.00    +0.000 C 
ATOM     21  O   UNL     1      47.085   5.123  18.344  0.00  0.00    +0.000 OA
ATOM     22  H   UNL     1      48.649   5.764  15.674  0.00  0.00    +0.000 HD
BRANCH  20  23
ATOM     23  C   UNL     1      48.775   6.731  18.007  0.00  0.00    +0.000 A 
ATOM     24  C   UNL     1      48.292   7.907  18.563  0.00  0.00    +0.000 A 
ATOM     25  S   UNL     1      49.524   9.013  18.980  0.00  0.00    +0.000 S 
ATOM     26  C   UNL     1      50.743   7.937  18.475  0.00  0.00    +0.000 A 
ATOM     27  N   UNL     1      52.058   8.264  18.581  0.00  0.00    +0.000 NA
ATOM     28  C   UNL     1      52.872   7.340  18.179  0.00  0.00    +0.000 A 
ATOM     29  N   UNL     1      52.504   6.111  17.675  0.00  0.00    +0.000 N 
ATOM     30  C   UNL     1      53.495   5.150  17.239  0.00  0.00    +0.000 C 
ATOM     31  C   UNL     1      51.168   5.757  17.534  0.00  0.00    +0.000 A 
ATOM     32  O   UNL     1      50.822   4.685  17.041  0.00  0.00    +0.000 OA
ATOM     33  C   UNL     1      50.218   6.760  17.980  0.00  0.00    +0.000 A 
ENDBRANCH  20  23
ENDBRANCH   2  19
TORSDOF 7
ENDMDL
MODEL 3
REMARK VINA RESULT:    -7.266      3.822      5.277
REMARK INTER + INTRA:         -11.789
REMARK INTER:                 -10.478
REMARK INTRA:                  -1.312
REMARK UNBOUND:                -1.550
REMARK  Name = 
REMARK  9 active torsions:
REMARK  status: ('A' for Active; 'I' for Inactive)
REMARK    1  A    between atoms: C_1  and  C_2
REMARK    2  A    between atoms: C_2  and  N_3
REMARK    3  A    between atoms: C_2  and  C_17
REMARK    4  A    between atoms: C_4  and  C_6
REMARK    5  A    between atoms: N_12  and  C_13
REMARK    6  A    between atoms: C_20  and  C_21
REMARK    7  A    between atoms: C_21  and  N_22
REMARK    8  A    between atoms: N_22  and  C_23
REMARK    9  A    between atoms: C_23  and  C_24
REMARK                            x       y       z     vdW  Elec       q    Type
REMARK                         _______ _______ _______ _____ _____    ______ ____
ROOT
ATOM      1  C   UNL     1      48.591   6.649  14.806  0.00  0.00    +0.000 C 
ATOM      2  C   UNL     1      48.299   7.089  13.368  0.00  0.00    +0.000 C 
ENDROOT
BRANCH   2   3
ATOM      3  C   UNL     1      47.191   6.256  12.744  0.00  0.00    +0.000 A 
ATOM      4  C   UNL     1      46.684   6.618  11.489  0.00  0.00    +0.000 A 
ATOM      5  C   UNL     1      45.618   5.916  10.919  0.00  0.00    +0.000 A 
ATOM      6  C   UNL     1      45.043   4.824  11.579  0.00  0.00    +0.000 A 
ATOM      7  C   UNL     1      45.578   4.427  12.811  0.00  0.00    +0.000 A 
ATOM      8  C   UNL     1      46.642   5.133  13.386  0.00  0.00    +0.000 A 
BRANCH   6   9
ATOM      9  C   UNL     1      43.848   4.111  10.984  0.00  0.00    +0.000 C 
BRANCH   9  10
ATOM     10  N   UNL     1      44.088   3.739   9.594  0.00  0.00    +0.000 NA
ATOM     11  H   UNL     1      44.674   4.447   9.151  0.00  0.00    +0.000 HD
BRANCH  10  12
ATOM     12  C   UNL     1      44.748   2.439   9.491  0.00  0.00    +0.000 C 
BRANCH  12  13
ATOM     13  C   UNL     1      45.721   2.420   8.334  0.00  0.00    +0.000 A 
ATOM     14  C   UNL     1      45.938   3.564   7.552  0.00  0.00    +0.000 A 
ATOM     15  C   UNL     1      46.847   3.534   6.491  0.00  0.00    +0.000 A 
ATOM     16  C   UNL     1      47.549   2.364   6.202  0.00  0.00    +0.000 A 
ATOM     17  C   UNL     1      47.344   1.223   6.974  0.00  0.00    +0.000 A 
ATOM     18  C   UNL     1      46.439   1.253   8.035  0.00  0.00    +0.000 A 
ENDBRANCH  12  13
ENDBRANCH  10  12
ENDBRANCH   9  10
ENDBRANCH   6   9
ENDBRANCH   2   3
BRANCH   2  19
ATOM     19  N   UNL     1      49.495   7.011  12.557  0.00  0.00    +0.000 N 
ATOM     20  C   UNL     1      50.150   8.114  12.072  0.00  0.00    +0.000 C 
ATOM     21  O   UNL     1      49.690   9.247  12.136  0.00  0.00    +0.000 OA
ATOM     22  H   UNL     1      50.011   6.145  12.642  0.00  0.00    +0.000 HD
BRANCH  20  23
ATOM     23  C   UNL     1      51.436   7.837  11.418  0.00  0.00    +0.000 A 
ATOM     24  C   UNL     1      51.476   7.219  10.176  0.00  0.00    +0.000 A 
ATOM     25  S   UNL     1      53.063   6.955   9.603  0.00  0.00    +0.000 S 
ATOM     26  C   UNL     1      53.745   7.701  10.973  0.00  0.00    +0.000 A 
ATOM     27  N   UNL     1      55.091   7.829  11.106  0.00  0.00    +0.000 NA
ATOM     28  C   UNL     1      55.466   8.435  12.187  0.00  0.00    +0.000 A 
ATOM     29  N   UNL     1      54.625   8.932  13.161  0.00  0.00    +0.000 N 
ATOM     30  C   UNL     1      55.145   9.585  14.343  0.00  0.00    +0.000 C 
ATOM     31  C   UNL     1      53.246   8.797  13.063  0.00  0.00    +0.000 A 
ATOM     32  O   UNL     1      52.483   9.190  13.944  0.00  0.00    +0.000 OA
ATOM     33  C   UNL     1      52.779   8.129  11.862  0.00  0.00    +0.000 A 
ENDBRANCH  20  23
ENDBRANCH   2  19
TORSDOF 7
ENDMDL
MODEL 4
REMARK VINA RESULT:    -7.260      1.730      2.261
REMARK INTER + INTRA:         -11.781
REMARK INTER:                 -10.823
REMARK INTRA:                  -0.958
REMARK UNBOUND:                -1.550
REMARK  Name = 
REMARK  9 active torsions:
REMARK  status: ('A' for Active; 'I' for Inactive)
REMARK    1  A    between atoms: C_1  and  C_2
REMARK    2  A    between atoms: C_2  and  N_3
REMARK    3  A    between atoms: C_2  and  C_17
REMARK    4  A    between atoms: C_4  and  C_6
REMARK    5  A    between atoms: N_12  and  C_13
REMARK    6  A    between atoms: C_20  and  C_21
REMARK    7  A    between atoms: C_21  and  N_22
REMARK    8  A    between atoms: N_22  and  C_23
REMARK    9  A    between atoms: C_23  and  C_24
REMARK                            x       y       z     vdW  Elec       q    Type
REMARK                         _______ _______ _______ _____ _____    ______ ____
ROOT
ATOM      1  C   UNL     1      47.898  10.693  13.269  0.00  0.00    +0.000 C 
ATOM      2  C   UNL     1      48.096   9.228  13.671  0.00  0.00    +0.000 C 
ENDROOT
BRANCH   2   3
ATOM      3  C   UNL     1      47.235   8.299  12.831  0.00  0.00    +0.000 A 
ATOM      4  C   UNL     1      45.840   8.362  12.950  0.00  0.00    +0.000 A 
ATOM      5  C   UNL     1      45.021   7.475  12.245  0.00  0.00    +0.000 A 
ATOM      6  C   UNL     1      45.574   6.514  11.390  0.00  0.00    +0.000 A 
ATOM      7  C   UNL     1      46.964   6.479  11.229  0.00  0.00    +0.000 A 
ATOM      8  C   UNL     1      47.786   7.363  11.939  0.00  0.00    +0.000 A 
BRANCH   6   9
ATOM      9  C   UNL     1      44.683   5.516  10.682  0.00  0.00    +0.000 C 
BRANCH   9  10
ATOM     10  N   UNL     1      45.248   5.117   9.398  0.00  0.00    +0.000 NA
ATOM     11  H   UNL     1      46.242   4.924   9.511  0.00  0.00    +0.000 HD
BRANCH  10  12
ATOM     12  C   UNL     1      44.587   3.927   8.864  0.00  0.00    +0.000 C 
BRANCH  12  13
ATOM     13  C   UNL     1      45.569   3.058   8.112  0.00  0.00    +0.000 A 
ATOM     14  C   UNL     1      45.780   1.721   8.479  0.00  0.00    +0.000 A 
ATOM     15  C   UNL     1      46.685   0.927   7.769  0.00  0.00    +0.000 A 
ATOM     16  C   UNL     1      47.385   1.459   6.687  0.00  0.00    +0.000 A 
ATOM     17  C   UNL     1      47.181   2.784   6.311  0.00  0.00    +0.000 A 
ATOM     18  C   UNL     1      46.276   3.577   7.018  0.00  0.00    +0.000 A 
ENDBRANCH  12  13
ENDBRANCH  10  12
ENDBRANCH   9  10
ENDBRANCH   6   9
ENDBRANCH   2   3
BRANCH   2  19
ATOM     19  N   UNL     1      47.806   9.040  15.075  0.00  0.00    +0.000 N 
ATOM     20  C   UNL     1      48.775   8.989  16.045  0.00  0.00    +0.000 C 
ATOM     21  O   UNL     1      49.971   8.927  15.793  0.00  0.00    +0.000 OA
ATOM     22  H   UNL     1      46.863   9.280  15.351  0.00  0.00    +0.000 HD
BRANCH  20  23
ATOM     23  C   UNL     1      48.273   8.965  17.426  0.00  0.00    +0.000 A 
ATOM     24  C   UNL     1      47.799  10.125  18.023  0.00  0.00    +0.000 A 
ATOM     25  S   UNL     1      47.295   9.897  19.638  0.00  0.00    +0.000 S 
ATOM     26  C   UNL     1      47.650   8.233  19.576  0.00  0.00    +0.000 A 
ATOM     27  N   UNL     1      47.425   7.426  20.646  0.00  0.00    +0.000 NA
ATOM     28  C   UNL     1      47.721   6.181  20.448  0.00  0.00    +0.000 A 
ATOM     29  N   UNL     1      48.224   5.653  19.277  0.00  0.00    +0.000 N 
ATOM     30  C   UNL     1      48.535   4.244  19.161  0.00  0.00    +0.000 C 
ATOM     31  C   UNL     1      48.484   6.455  18.174  0.00  0.00    +0.000 A 
ATOM     32  O   UNL     1      48.978   6.010  17.140  0.00  0.00    +0.000 OA
ATOM     33  C   UNL     1      48.160   7.860  18.349  0.00  0.00    +0.000 A 
ENDBRANCH  20  23
ENDBRANCH   2  19
TORSDOF 7
ENDMDL
MODEL 5
REMARK VINA RESULT:    -7.029      2.571      3.595
REMARK INTER + INTRA:         -11.455
REMARK INTER:                 -10.235
REMARK INTRA:                  -1.220
REMARK UNBOUND:                -1.550
REMARK  Name = 
REMARK  9 active torsions:
REMARK  status: ('A' for Active; 'I' for Inactive)
REMARK    1  A    between atoms: C_1  and  C_2
REMARK    2  A    between atoms: C_2  and  N_3
REMARK    3  A    between atoms: C_2  and  C_17
REMARK    4  A    between atoms: C_4  and  C_6
REMARK    5  A    between atoms: N_12  and  C_13
REMARK    6  A    between atoms: C_20  and  C_21
REMARK    7  A    between atoms: C_21  and  N_22
REMARK    8  A    between atoms: N_22  and  C_23
REMARK    9  A    between atoms: C_23  and  C_24
REMARK                            x       y       z     vdW  Elec       q    Type
REMARK                         _______ _______ _______ _____ _____    ______ ____
ROOT
ATOM      1  C   UNL     1      47.529   4.489  15.422  0.00  0.00    +0.000 C 
ATOM      2  C   UNL     1      47.158   5.763  14.656  0.00  0.00    +0.000 C 
ENDROOT
BRANCH   2   3
ATOM      3  C   UNL     1      46.226   5.462  13.493  0.00  0.00    +0.000 A 
ATOM      4  C   UNL     1      46.370   6.174  12.296  0.00  0.00    +0.000 A 
ATOM      5  C   UNL     1      45.487   5.973  11.232  0.00  0.00    +0.000 A 
ATOM      6  C   UNL     1      44.446   5.040  11.330  0.00  0.00    +0.000 A 
ATOM      7  C   UNL     1      44.328   4.290  12.506  0.00  0.00    +0.000 A 
ATOM      8  C   UNL     1      45.209   4.495  13.575  0.00  0.00    +0.000 A 
BRANCH   6   9
ATOM      9  C   UNL     1      43.455   4.876  10.198  0.00  0.00    +0.000 C 
BRANCH   9  10
ATOM     10  N   UNL     1      44.097   4.341   9.003  0.00  0.00    +0.000 NA
ATOM     11  H   UNL     1      44.856   4.960   8.721  0.00  0.00    +0.000 HD
BRANCH  10  12
ATOM     12  C   UNL     1      44.633   3.000   9.234  0.00  0.00    +0.000 C 
BRANCH  12  13
ATOM     13  C   UNL     1      45.643   2.634   8.170  0.00  0.00    +0.000 A 
ATOM     14  C   UNL     1      46.003   3.548   7.169  0.00  0.00    +0.000 A 
ATOM     15  C   UNL     1      46.944   3.199   6.196  0.00  0.00    +0.000 A 
ATOM     16  C   UNL     1      47.534   1.936   6.214  0.00  0.00    +0.000 A 
ATOM     17  C   UNL     1      47.187   1.021   7.206  0.00  0.00    +0.000 A 
ATOM     18  C   UNL     1      46.250   1.370   8.178  0.00  0.00    +0.000 A 
ENDBRANCH  12  13
ENDBRANCH  10  12
ENDBRANCH   9  10
ENDBRANCH   6   9
ENDBRANCH   2   3
BRANCH   2  19
ATOM     19  N   UNL     1      48.346   6.435  14.178  0.00  0.00    +0.000 N 
ATOM     20  C   UNL     1      48.570   7.778  14.342  0.00  0.00    +0.000 C 
ATOM     21  O   UNL     1      47.715   8.553  14.753  0.00  0.00    +0.000 OA
ATOM     22  H   UNL     1      49.143   5.832  14.020  0.00  0.00    +0.000 HD
BRANCH  20  23
ATOM     23  C   UNL     1      49.906   8.241  13.943  0.00  0.00    +0.000 A 
ATOM     24  C   UNL     1      50.055   9.163  12.917  0.00  0.00    +0.000 A 
ATOM     25  S   UNL     1      51.685   9.546  12.583  0.00  0.00    +0.000 S 
ATOM     26  C   UNL     1      52.241   8.528  13.829  0.00  0.00    +0.000 A 
ATOM     27  N   UNL     1      53.567   8.409  14.099  0.00  0.00    +0.000 NA
ATOM     28  C   UNL     1      53.842   7.618  15.088  0.00  0.00    +0.000 A 
ATOM     29  N   UNL     1      52.918   6.926  15.842  0.00  0.00    +0.000 N 
ATOM     30  C   UNL     1      53.330   6.054  16.921  0.00  0.00    +0.000 C 
ATOM     31  C   UNL     1      51.558   7.011  15.576  0.00  0.00    +0.000 A 
ATOM     32  O   UNL     1      50.723   6.363  16.206  0.00  0.00    +0.000 OA
ATOM     33  C   UNL     1      51.202   7.894  14.479  0.00  0.00    +0.000 A 
ENDBRANCH  20  23
ENDBRANCH   2  19
TORSDOF 7
ENDMDL
MODEL 6
REMARK VINA RESULT:    -6.811      1.975      3.783
REMARK INTER + INTRA:         -11.149
REMARK INTER:                  -9.857
REMARK INTRA:                  -1.291
REMARK UNBOUND:                -1.550
REMARK  Name = 
REMARK  9 active torsions:
REMARK  status: ('A' for Active; 'I' for Inactive)
REMARK    1  A    between atoms: C_1  and  C_2
REMARK    2  A    between atoms: C_2  and  N_3
REMARK    3  A    between atoms: C_2  and  C_17
REMARK    4  A    between atoms: C_4  and  C_6
REMARK    5  A    between atoms: N_12  and  C_13
REMARK    6  A    between atoms: C_20  and  C_21
REMARK    7  A    between atoms: C_21  and  N_22
REMARK    8  A    between atoms: N_22  and  C_23
REMARK    9  A    between atoms: C_23  and  C_24
REMARK                            x       y       z     vdW  Elec       q    Type
REMARK                         _______ _______ _______ _____ _____    ______ ____
ROOT
ATOM      1  C   UNL     1      47.855   3.229  15.513  0.00  0.00    +0.000 C 
ATOM      2  C   UNL     1      47.297   4.654  15.569  0.00  0.00    +0.000 C 
ENDROOT
BRANCH   2   3
ATOM      3  C   UNL     1      46.678   5.063  14.242  0.00  0.00    +0.000 A 
ATOM      4  C   UNL     1      45.446   4.514  13.862  0.00  0.00    +0.000 A 
ATOM      5  C   UNL     1      44.882   4.814  12.618  0.00  0.00    +0.000 A 
ATOM      6  C   UNL     1      45.526   5.685  11.730  0.00  0.00    +0.000 A 
ATOM      7  C   UNL     1      46.732   6.275  12.126  0.00  0.00    +0.000 A 
ATOM      8  C   UNL     1      47.301   5.971  13.369  0.00  0.00    +0.000 A 
BRANCH   6   9
ATOM      9  C   UNL     1      44.941   5.952  10.361  0.00  0.00    +0.000 C 
BRANCH   9  10
ATOM     10  N   UNL     1      45.650   5.209   9.325  0.00  0.00    +0.000 NA
ATOM     11  H   UNL     1      46.527   4.855   9.704  0.00  0.00    +0.000 HD
BRANCH  10  12
ATOM     12  C   UNL     1      44.856   4.087   8.827  0.00  0.00    +0.000 C 
BRANCH  12  13
ATOM     13  C   UNL     1      45.721   3.116   8.056  0.00  0.00    +0.000 A 
ATOM     14  C   UNL     1      46.436   3.526   6.922  0.00  0.00    +0.000 A 
ATOM     15  C   UNL     1      47.238   2.620   6.224  0.00  0.00    +0.000 A 
ATOM     16  C   UNL     1      47.336   1.297   6.653  0.00  0.00    +0.000 A 
ATOM     17  C   UNL     1      46.634   0.878   7.781  0.00  0.00    +0.000 A 
ATOM     18  C   UNL     1      45.835   1.784   8.479  0.00  0.00    +0.000 A 
ENDBRANCH  12  13
ENDBRANCH  10  12
ENDBRANCH   9  10
ENDBRANCH   6   9
ENDBRANCH   2   3
BRANCH   2  19
ATOM     19  N   UNL     1      48.331   5.593  15.945  0.00  0.00    +0.000 N 
ATOM     20  C   UNL     1      48.577   5.965  17.242  0.00  0.00    +0.000 C 
ATOM     21  O   UNL     1      47.839   5.670  18.173  0.00  0.00    +0.000 OA
ATOM     22  H   UNL     1      49.071   5.705  15.265  0.00  0.00    +0.000 HD
BRANCH  20  23
ATOM     23  C   UNL     1      49.775   6.792  17.436  0.00  0.00    +0.000 A 
ATOM     24  C   UNL     1      50.803   6.359  18.261  0.00  0.00    +0.000 A 
ATOM     25  S   UNL     1      52.089   7.476  18.383  0.00  0.00    +0.000 S 
ATOM     26  C   UNL     1      51.335   8.552  17.300  0.00  0.00    +0.000 A 
ATOM     27  N   UNL     1      51.927   9.723  16.947  0.00  0.00    +0.000 NA
ATOM     28  C   UNL     1      51.250  10.429  16.099  0.00  0.00    +0.000 A 
ATOM     29  N   UNL     1      50.027  10.084  15.564  0.00  0.00    +0.000 N 
ATOM     30  C   UNL     1      49.342  10.953  14.631  0.00  0.00    +0.000 C 
ATOM     31  C   UNL     1      49.387   8.905  15.923  0.00  0.00    +0.000 A 
ATOM     32  O   UNL     1      48.274   8.604  15.493  0.00  0.00    +0.000 OA
ATOM     33  C   UNL     1      50.115   8.075  16.866  0.00  0.00    +0.000 A 
ENDBRANCH  20  23
ENDBRANCH   2  19
TORSDOF 7
ENDMDL
MODEL 7
REMARK VINA RESULT:    -6.801      2.682      3.436
REMARK INTER + INTRA:         -11.134
REMARK INTER:                  -9.591
REMARK INTRA:                  -1.543
REMARK UNBOUND:                -1.550
REMARK  Name = 
REMARK  9 active torsions:
REMARK  status: ('A' for Active; 'I' for Inactive)
REMARK    1  A    between atoms: C_1  and  C_2
REMARK    2  A    between atoms: C_2  and  N_3
REMARK    3  A    between atoms: C_2  and  C_17
REMARK    4  A    between atoms: C_4  and  C_6
REMARK    5  A    between atoms: N_12  and  C_13
REMARK    6  A    between atoms: C_20  and  C_21
REMARK    7  A    between atoms: C_21  and  N_22
REMARK    8  A    between atoms: N_22  and  C_23
REMARK    9  A    between atoms: C_23  and  C_24
REMARK                            x       y       z     vdW  Elec       q    Type
REMARK                         _______ _______ _______ _____ _____    ______ ____
ROOT
ATOM      1  C   UNL     1      45.322   9.225  12.873  0.00  0.00    +0.000 C 
ATOM      2  C   UNL     1      46.099   8.438  11.814  0.00  0.00    +0.000 C 
ENDROOT
BRANCH   2   3
ATOM      3  C   UNL     1      45.514   7.050  11.610  0.00  0.00    +0.000 A 
ATOM      4  C   UNL     1      44.152   6.917  11.307  0.00  0.00    +0.000 A 
ATOM      5  C   UNL     1      43.566   5.654  11.183  0.00  0.00    +0.000 A 
ATOM      6  C   UNL     1      44.330   4.491  11.340  0.00  0.00    +0.000 A 
ATOM      7  C   UNL     1      45.701   4.618  11.593  0.00  0.00    +0.000 A 
ATOM      8  C   UNL     1      46.287   5.883  11.724  0.00  0.00    +0.000 A 
BRANCH   6   9
ATOM      9  C   UNL     1      43.674   3.129  11.268  0.00  0.00    +0.000 C 
BRANCH   9  10
ATOM     10  N   UNL     1      44.455   2.205  10.454  0.00  0.00    +0.000 NA
ATOM     11  H   UNL     1      44.228   1.247  10.717  0.00  0.00    +0.000 HD
BRANCH  10  12
ATOM     12  C   UNL     1      44.190   2.385   9.028  0.00  0.00    +0.000 C 
BRANCH  12  13
ATOM     13  C   UNL     1      45.480   2.410   8.240  0.00  0.00    +0.000 A 
ATOM     14  C   UNL     1      45.981   3.607   7.709  0.00  0.00    +0.000 A 
ATOM     15  C   UNL     1      47.179   3.616   6.990  0.00  0.00    +0.000 A 
ATOM     16  C   UNL     1      47.889   2.432   6.795  0.00  0.00    +0.000 A 
ATOM     17  C   UNL     1      47.403   1.237   7.322  0.00  0.00    +0.000 A 
ATOM     18  C   UNL     1      46.209   1.228   8.042  0.00  0.00    +0.000 A 
ENDBRANCH  12  13
ENDBRANCH  10  12
ENDBRANCH   9  10
ENDBRANCH   6   9
ENDBRANCH   2   3
BRANCH   2  19
ATOM     19  N   UNL     1      47.496   8.339  12.173  0.00  0.00    +0.000 N 
ATOM     20  C   UNL     1      48.367   9.398  12.115  0.00  0.00    +0.000 C 
ATOM     21  O   UNL     1      48.082  10.470  11.596  0.00  0.00    +0.000 OA
ATOM     22  H   UNL     1      47.727   7.561  12.778  0.00  0.00    +0.000 HD
BRANCH  20  23
ATOM     23  C   UNL     1      49.698   9.143  12.684  0.00  0.00    +0.000 A 
ATOM     24  C   UNL     1      50.819   9.116  11.866  0.00  0.00    +0.000 A 
ATOM     25  S   UNL     1      52.262   8.770  12.710  0.00  0.00    +0.000 S 
ATOM     26  C   UNL     1      51.443   8.692  14.200  0.00  0.00    +0.000 A 
ATOM     27  N   UNL     1      52.110   8.446  15.358  0.00  0.00    +0.000 NA
ATOM     28  C   UNL     1      51.362   8.438  16.415  0.00  0.00    +0.000 A 
ATOM     29  N   UNL     1      50.000   8.652  16.435  0.00  0.00    +0.000 N 
ATOM     30  C   UNL     1      49.251   8.609  17.672  0.00  0.00    +0.000 C 
ATOM     31  C   UNL     1      49.287   8.884  15.266  0.00  0.00    +0.000 A 
ATOM     32  O   UNL     1      48.066   9.027  15.259  0.00  0.00    +0.000 OA
ATOM     33  C   UNL     1      50.087   8.910  14.055  0.00  0.00    +0.000 A 
ENDBRANCH  20  23
ENDBRANCH   2  19
TORSDOF 7
ENDMDL
MODEL 8
REMARK VINA RESULT:    -6.321      2.431      3.182
REMARK INTER + INTRA:         -10.458
REMARK INTER:                  -8.980
REMARK INTRA:                  -1.477
REMARK UNBOUND:                -1.550
REMARK  Name = 
REMARK  9 active torsions:
REMARK  status: ('A' for Active; 'I' for Inactive)
REMARK    1  A    between atoms: C_1  and  C_2
REMARK    2  A    between atoms: C_2  and  N_3
REMARK    3  A    between atoms: C_2  and  C_17
REMARK    4  A    between atoms: C_4  and  C_6
REMARK    5  A    between atoms: N_12  and  C_13
REMARK    6  A    between atoms: C_20  and  C_21
REMARK    7  A    between atoms: C_21  and  N_22
REMARK    8  A    between atoms: N_22  and  C_23
REMARK    9  A    between atoms: C_23  and  C_24
REMARK                            x       y       z     vdW  Elec       q    Type
REMARK                         _______ _______ _______ _____ _____    ______ ____
ROOT
ATOM      1  C   UNL     1      48.794  10.966  12.665  0.00  0.00    +0.000 C 
ATOM      2  C   UNL     1      49.298   9.531  12.486  0.00  0.00    +0.000 C 
ENDROOT
BRANCH   2   3
ATOM      3  C   UNL     1      48.146   8.543  12.395  0.00  0.00    +0.000 A 
ATOM      4  C   UNL     1      48.176   7.543  11.414  0.00  0.00    +0.000 A 
ATOM      5  C   UNL     1      47.102   6.662  11.257  0.00  0.00    +0.000 A 
ATOM      6  C   UNL     1      45.978   6.747  12.088  0.00  0.00    +0.000 A 
ATOM      7  C   UNL     1      45.964   7.713  13.101  0.00  0.00    +0.000 A 
ATOM      8  C   UNL     1      47.038   8.599  13.256  0.00  0.00    +0.000 A 
BRANCH   6   9
ATOM      9  C   UNL     1      44.793   5.832  11.868  0.00  0.00    +0.000 C 
BRANCH   9  10
ATOM     10  N   UNL     1      44.393   5.808  10.466  0.00  0.00    +0.000 NA
ATOM     11  H   UNL     1      45.201   6.016   9.880  0.00  0.00    +0.000 HD
BRANCH  10  12
ATOM     12  C   UNL     1      43.847   4.507  10.083  0.00  0.00    +0.000 C 
BRANCH  12  13
ATOM     13  C   UNL     1      44.821   3.751   9.208  0.00  0.00    +0.000 A 
ATOM     14  C   UNL     1      45.638   4.423   8.286  0.00  0.00    +0.000 A 
ATOM     15  C   UNL     1      46.539   3.712   7.490  0.00  0.00    +0.000 A 
ATOM     16  C   UNL     1      46.636   2.326   7.606  0.00  0.00    +0.000 A 
ATOM     17  C   UNL     1      45.834   1.649   8.521  0.00  0.00    +0.000 A 
ATOM     18  C   UNL     1      44.935   2.357   9.318  0.00  0.00    +0.000 A 
ENDBRANCH  12  13
ENDBRANCH  10  12
ENDBRANCH   9  10
ENDBRANCH   6   9
ENDBRANCH   2   3
BRANCH   2  19
ATOM     19  N   UNL     1      50.185   9.162  13.567  0.00  0.00    +0.000 N 
ATOM     20  C   UNL     1      51.419   8.597  13.371  0.00  0.00    +0.000 C 
ATOM     21  O   UNL     1      51.807   8.200  12.279  0.00  0.00    +0.000 OA
ATOM     22  H   UNL     1      50.007   9.635  14.443  0.00  0.00    +0.000 HD
BRANCH  20  23
ATOM     23  C   UNL     1      52.238   8.453  14.582  0.00  0.00    +0.000 A 
ATOM     24  C   UNL     1      53.410   9.182  14.730  0.00  0.00    +0.000 A 
ATOM     25  S   UNL     1      54.234   8.849  16.188  0.00  0.00    +0.000 S 
ATOM     26  C   UNL     1      53.028   7.756  16.689  0.00  0.00    +0.000 A 
ATOM     27  N   UNL     1      53.111   7.119  17.886  0.00  0.00    +0.000 NA
ATOM     28  C   UNL     1      52.113   6.335  18.144  0.00  0.00    +0.000 A 
ATOM     29  N   UNL     1      51.029   6.119  17.320  0.00  0.00    +0.000 N 
ATOM     30  C   UNL     1      49.968   5.209  17.696  0.00  0.00    +0.000 C 
ATOM     31  C   UNL     1      50.927   6.739  16.081  0.00  0.00    +0.000 A 
ATOM     32  O   UNL     1      49.993   6.520  15.312  0.00  0.00    +0.000 OA
ATOM     33  C   UNL     1      52.022   7.634  15.752  0.00  0.00    +0.000 A 
ENDBRANCH  20  23
ENDBRANCH   2  19
TORSDOF 7
ENDMDL
