MODEL 1
REMARK VINA RESULT:    -6.026      0.000      0.000
REMARK INTER + INTRA:          -8.081
REMARK INTER:                  -7.612
REMARK INTRA:                  -0.469
REMARK UNBOUND:                -0.469
REMARK  Name = 
REMARK  5 active torsions:
REMARK  status: ('A' for Active; 'I' for Inactive)
REMARK    1  A    between atoms: N_1  and  C_2
REMARK    2  A    between atoms: C_2  and  C_3
REMARK    3  A    between atoms: C_7  and  C_8
REMARK    4  A    between atoms: C_9  and  C_10
REMARK    5  A    between atoms: C_13  and  C_14
REMARK                            x       y       z     vdW  Elec       q    Type
REMARK                         _______ _______ _______ _____ _____    ______ ____
ROOT
ATOM      1  C   UNL     1      46.638   5.254  13.808  0.00  0.00    +0.000 C 
ATOM      2  C   UNL     1      46.897   4.214  14.621  0.00  0.00    +0.000 C 
ENDROOT
BRANCH   1   7
ATOM      3  C   UNL     1      44.810   3.768  10.853  0.00  0.00    +0.000 A 
ATOM      4  C   UNL     1      45.005   4.760   9.882  0.00  0.00    +0.000 A 
ATOM      5  C   UNL     1      45.764   5.893  10.171  0.00  0.00    +0.000 A 
ATOM      6  C   UNL     1      46.319   6.057  11.441  0.00  0.00    +0.000 A 
ATOM      7  C   UNL     1      46.110   5.098  12.441  0.00  0.00    +0.000 A 
ATOM      8  C   UNL     1      45.378   3.944  12.125  0.00  0.00    +0.000 A 
BRANCH   3   9
ATOM      9  C   UNL     1      43.954   2.562  10.553  0.00  0.00    +0.000 C 
BRANCH   9  10
ATOM     10  N   UNL     1      43.056   2.242  11.657  0.00  0.00    +0.000 NA
ATOM     11  H   UNL     1      43.610   1.992  12.474  0.00  0.00    +0.000 HD
ATOM     12  H   UNL     1      42.517   1.413  11.410  0.00  0.00    +0.000 HD
ENDBRANCH   9  10
ENDBRANCH   3   9
ENDBRANCH   1   7
BRANCH   2  13
ATOM     13  C   UNL     1      47.501   4.307  15.959  0.00  0.00    +0.000 A 
ATOM     14  C   UNL     1      47.409   3.289  16.914  0.00  0.00    +0.000 A 
ATOM     15  C   UNL     1      48.013   3.433  18.169  0.00  0.00    +0.000 A 
ATOM     16  C   UNL     1      48.737   4.587  18.479  0.00  0.00    +0.000 A 
ATOM     17  C   UNL     1      48.843   5.608  17.529  0.00  0.00    +0.000 A 
ATOM     18  C   UNL     1      48.233   5.462  16.279  0.00  0.00    +0.000 A 
BRANCH  16  19
ATOM     19  C   UNL     1      49.352   4.697  19.829  0.00  0.00    +0.000 C 
ATOM     20  N   UNL     1      48.689   4.120  20.875  0.00  0.00    +0.000 N 
ATOM     21  O   UNL     1      50.395   5.313  20.010  0.00  0.00    +0.000 OA
ATOM     22  H   UNL     1      47.730   3.811  20.813  0.00  0.00    +0.000 HD
ATOM     23  H   UNL     1      49.067   4.300  21.796  0.00  0.00    +0.000 HD
ENDBRANCH  16  19
ENDBRANCH   2  13
TORSDOF 5
ENDMDL
MODEL 2
REMARK VINA RESULT:    -5.643      1.966      2.171
REMARK INTER + INTRA:          -7.596
REMARK INTER:                  -7.162
REMARK INTRA:                  -0.434
REMARK UNBOUND:                -0.469
REMARK  Name = 
REMARK  5 active torsions:
REMARK  status: ('A' for Active; 'I' for Inactive)
REMARK    1  A    between atoms: N_1  and  C_2
REMARK    2  A    between atoms: C_2  and  C_3
REMARK    3  A    between atoms: C_7  and  C_8
REMARK    4  A    between atoms: C_9  and  C_10
REMARK    5  A    between atoms: C_13  and  C_14
REMARK                            x       y       z     vdW  Elec       q    Type
REMARK                         _______ _______ _______ _____ _____    ______ ____
ROOT
ATOM      1  C   UNL     1      46.475   5.043  13.693  0.00  0.00    +0.000 C 
ATOM      2  C   UNL     1      46.463   4.383  14.864  0.00  0.00    +0.000 C 
ENDROOT
BRANCH   1   7
ATOM      3  C   UNL     1      44.572   4.704  10.445  0.00  0.00    +0.000 A 
ATOM      4  C   UNL     1      43.253   4.890  10.879  0.00  0.00    +0.000 A 
ATOM      5  C   UNL     1      42.980   5.167  12.218  0.00  0.00    +0.000 A 
ATOM      6  C   UNL     1      44.023   5.240  13.143  0.00  0.00    +0.000 A 
ATOM      7  C   UNL     1      45.348   5.023  12.743  0.00  0.00    +0.000 A 
ATOM      8  C   UNL     1      45.612   4.785  11.386  0.00  0.00    +0.000 A 
BRANCH   3   9
ATOM      9  C   UNL     1      44.863   4.365   9.005  0.00  0.00    +0.000 C 
BRANCH   9  10
ATOM     10  N   UNL     1      45.951   5.172   8.463  0.00  0.00    +0.000 NA
ATOM     11  H   UNL     1      45.610   6.116   8.293  0.00  0.00    +0.000 HD
ATOM     12  H   UNL     1      46.216   4.794   7.553  0.00  0.00    +0.000 HD
ENDBRANCH   9  10
ENDBRANCH   3   9
ENDBRANCH   1   7
BRANCH   2  13
ATOM     13  C   UNL     1      47.588   4.301  15.808  0.00  0.00    +0.000 A 
ATOM     14  C   UNL     1      48.006   3.104  16.401  0.00  0.00    +0.000 A 
ATOM     15  C   UNL     1      49.089   3.088  17.287  0.00  0.00    +0.000 A 
ATOM     16  C   UNL     1      49.788   4.263  17.574  0.00  0.00    +0.000 A 
ATOM     17  C   UNL     1      49.386   5.464  16.981  0.00  0.00    +0.000 A 
ATOM     18  C   UNL     1      48.298   5.476  16.102  0.00  0.00    +0.000 A 
BRANCH  16  19
ATOM     19  C   UNL     1      50.927   4.196  18.528  0.00  0.00    +0.000 C 
ATOM     20  N   UNL     1      51.751   3.109  18.454  0.00  0.00    +0.000 N 
ATOM     21  O   UNL     1      51.104   5.061  19.377  0.00  0.00    +0.000 OA
ATOM     22  H   UNL     1      51.514   2.275  17.938  0.00  0.00    +0.000 HD
ATOM     23  H   UNL     1      52.452   3.030  19.180  0.00  0.00    +0.000 HD
ENDBRANCH  16  19
ENDBRANCH   2  13
TORSDOF 5
ENDMDL
MODEL 3
REMARK VINA RESULT:    -5.617      3.329      8.212
REMARK INTER + INTRA:          -7.564
REMARK INTER:                  -7.113
REMARK INTRA:                  -0.451
REMARK UNBOUND:                -0.469
REMARK  Name = 
REMARK  5 active torsions:
REMARK  status: ('A' for Active; 'I' for Inactive)
REMARK    1  A    between atoms: N_1  and  C_2
REMARK    2  A    between atoms: C_2  and  C_3
REMARK    3  A    between atoms: C_7  and  C_8
REMARK    4  A    between atoms: C_9  and  C_10
REMARK    5  A    between atoms: C_13  and  C_14
REMARK                            x       y       z     vdW  Elec       q    Type
REMARK                         _______ _______ _______ _____ _____    ______ ____
ROOT
ATOM      1  C   UNL     1      47.467   3.924  15.200  0.00  0.00    +0.000 C 
ATOM      2  C   UNL     1      46.622   4.767  14.581  0.00  0.00    +0.000 C 
ENDROOT
BRANCH   1   7
ATOM      3  C   UNL     1      48.381   5.607  18.459  0.00  0.00    +0.000 A 
ATOM      4  C   UNL     1      48.631   4.500  19.279  0.00  0.00    +0.000 A 
ATOM      5  C   UNL     1      48.545   3.206  18.767  0.00  0.00    +0.000 A 
ATOM      6  C   UNL     1      48.186   3.004  17.433  0.00  0.00    +0.000 A 
ATOM      7  C   UNL     1      47.896   4.092  16.600  0.00  0.00    +0.000 A 
ATOM      8  C   UNL     1      48.025   5.390  17.117  0.00  0.00    +0.000 A 
BRANCH   3   9
ATOM      9  C   UNL     1      48.434   7.005  19.023  0.00  0.00    +0.000 C 
BRANCH   9  10
ATOM     10  N   UNL     1      47.394   7.861  18.460  0.00  0.00    +0.000 NA
ATOM     11  H   UNL     1      47.653   8.835  18.604  0.00  0.00    +0.000 HD
ATOM     12  H   UNL     1      46.531   7.712  18.982  0.00  0.00    +0.000 HD
ENDBRANCH   9  10
ENDBRANCH   3   9
ENDBRANCH   1   7
BRANCH   2  13
ATOM     13  C   UNL     1      46.229   4.695  13.166  0.00  0.00    +0.000 A 
ATOM     14  C   UNL     1      45.665   3.554  12.584  0.00  0.00    +0.000 A 
ATOM     15  C   UNL     1      45.304   3.548  11.232  0.00  0.00    +0.000 A 
ATOM     16  C   UNL     1      45.478   4.691  10.447  0.00  0.00    +0.000 A 
ATOM     17  C   UNL     1      46.034   5.840  11.019  0.00  0.00    +0.000 A 
ATOM     18  C   UNL     1      46.400   5.838  12.369  0.00  0.00    +0.000 A 
BRANCH  16  19
ATOM     19  C   UNL     1      45.087   4.632   9.013  0.00  0.00    +0.000 C 
ATOM     20  N   UNL     1      43.805   4.263   8.721  0.00  0.00    +0.000 N 
ATOM     21  O   UNL     1      45.891   4.869   8.119  0.00  0.00    +0.000 OA
ATOM     22  H   UNL     1      43.188   3.841   9.400  0.00  0.00    +0.000 HD
ATOM     23  H   UNL     1      43.592   4.124   7.742  0.00  0.00    +0.000 HD
ENDBRANCH  16  19
ENDBRANCH   2  13
TORSDOF 5
ENDMDL
MODEL 4
REMARK VINA RESULT:    -5.518      3.100      8.157
REMARK INTER + INTRA:          -7.438
REMARK INTER:                  -7.009
REMARK INTRA:                  -0.430
REMARK UNBOUND:                -0.469
REMARK  Name = 
REMARK  5 active torsions:
REMARK  status: ('A' for Active; 'I' for Inactive)
REMARK    1  A    between atoms: N_1  and  C_2
REMARK    2  A    between atoms: C_2  and  C_3
REMARK    3  A    between atoms: C_7  and  C_8
REMARK    4  A    between atoms: C_9  and  C_10
REMARK    5  A    between atoms: C_13  and  C_14
REMARK                            x       y       z     vdW  Elec       q    Type
REMARK                         _______ _______ _______ _____ _____    ______ ____
ROOT
ATOM      1  C   UNL     1      47.758   4.940  15.738  0.00  0.00    +0.000 C 
ATOM      2  C   UNL     1      47.484   5.602  14.600  0.00  0.00    +0.000 C 
ENDROOT
BRANCH   1   7
ATOM      3  C   UNL     1      49.257   5.586  19.147  0.00  0.00    +0.000 A 
ATOM      4  C   UNL     1      50.386   6.344  18.811  0.00  0.00    +0.000 A 
ATOM      5  C   UNL     1      50.642   6.683  17.483  0.00  0.00    +0.000 A 
ATOM      6  C   UNL     1      49.782   6.249  16.472  0.00  0.00    +0.000 A 
ATOM      7  C   UNL     1      48.666   5.459  16.777  0.00  0.00    +0.000 A 
ATOM      8  C   UNL     1      48.398   5.159  18.121  0.00  0.00    +0.000 A 
BRANCH   3   9
ATOM      9  C   UNL     1      49.002   5.185  20.579  0.00  0.00    +0.000 C 
BRANCH   9  10
ATOM     10  N   UNL     1      48.464   3.833  20.679  0.00  0.00    +0.000 NA
ATOM     11  H   UNL     1      48.758   3.424  21.564  0.00  0.00    +0.000 HD
ATOM     12  H   UNL     1      48.881   3.260  19.945  0.00  0.00    +0.000 HD
ENDBRANCH   9  10
ENDBRANCH   3   9
ENDBRANCH   1   7
BRANCH   2  13
ATOM     13  C   UNL     1      46.655   5.094  13.496  0.00  0.00    +0.000 A 
ATOM     14  C   UNL     1      46.247   3.759  13.395  0.00  0.00    +0.000 A 
ATOM     15  C   UNL     1      45.452   3.336  12.323  0.00  0.00    +0.000 A 
ATOM     16  C   UNL     1      45.032   4.247  11.350  0.00  0.00    +0.000 A 
ATOM     17  C   UNL     1      45.427   5.585  11.445  0.00  0.00    +0.000 A 
ATOM     18  C   UNL     1      46.227   6.001  12.514  0.00  0.00    +0.000 A 
BRANCH  16  19
ATOM     19  C   UNL     1      44.195   3.748  10.226  0.00  0.00    +0.000 C 
ATOM     20  N   UNL     1      44.012   4.578   9.157  0.00  0.00    +0.000 N 
ATOM     21  O   UNL     1      43.656   2.649  10.267  0.00  0.00    +0.000 OA
ATOM     22  H   UNL     1      44.238   5.561   9.181  0.00  0.00    +0.000 HD
ATOM     23  H   UNL     1      43.353   4.263   8.456  0.00  0.00    +0.000 HD
ENDBRANCH  16  19
ENDBRANCH   2  13
TORSDOF 5
ENDMDL
MODEL 5
REMARK VINA RESULT:    -5.442      5.138      5.615
REMARK INTER + INTRA:          -7.343
REMARK INTER:                  -6.923
REMARK INTRA:                  -0.420
REMARK UNBOUND:                -0.469
REMARK  Name = 
REMARK  5 active torsions:
REMARK  status: ('A' for Active; 'I' for Inactive)
REMARK    1  A    between atoms: N_1  and  C_2
REMARK    2  A    between atoms: C_2  and  C_3
REMARK    3  A    between atoms: C_7  and  C_8
REMARK    4  A    between atoms: C_9  and  C_10
REMARK    5  A    between atoms: C_13  and  C_14
REMARK                            x       y       z     vdW  Elec       q    Type
REMARK                         _______ _______ _______ _____ _____    ______ ____
ROOT
ATOM      1  C   UNL     1      45.829   6.059  10.718  0.00  0.00    +0.000 C 
ATOM      2  C   UNL     1      46.740   6.092  11.706  0.00  0.00    +0.000 C 
ENDROOT
BRANCH   1   7
ATOM      3  C   UNL     1      45.424   3.304   8.162  0.00  0.00    +0.000 A 
ATOM      4  C   UNL     1      44.588   2.414   8.848  0.00  0.00    +0.000 A 
ATOM      5  C   UNL     1      44.119   2.724  10.124  0.00  0.00    +0.000 A 
ATOM      6  C   UNL     1      44.499   3.919  10.738  0.00  0.00    +0.000 A 
ATOM      7  C   UNL     1      45.364   4.810  10.089  0.00  0.00    +0.000 A 
ATOM      8  C   UNL     1      45.796   4.505   8.790  0.00  0.00    +0.000 A 
BRANCH   3   9
ATOM      9  C   UNL     1      45.964   2.951   6.799  0.00  0.00    +0.000 C 
BRANCH   9  10
ATOM     10  N   UNL     1      46.782   4.023   6.241  0.00  0.00    +0.000 NA
ATOM     11  H   UNL     1      47.759   3.736   6.257  0.00  0.00    +0.000 HD
ATOM     12  H   UNL     1      46.712   4.837   6.851  0.00  0.00    +0.000 HD
ENDBRANCH   9  10
ENDBRANCH   3   9
ENDBRANCH   1   7
BRANCH   2  13
ATOM     13  C   UNL     1      47.300   7.311  12.310  0.00  0.00    +0.000 A 
ATOM     14  C   UNL     1      46.557   8.179  13.118  0.00  0.00    +0.000 A 
ATOM     15  C   UNL     1      47.149   9.321  13.670  0.00  0.00    +0.000 A 
ATOM     16  C   UNL     1      48.499   9.599  13.444  0.00  0.00    +0.000 A 
ATOM     17  C   UNL     1      49.255   8.735  12.644  0.00  0.00    +0.000 A 
ATOM     18  C   UNL     1      48.657   7.599  12.089  0.00  0.00    +0.000 A 
BRANCH  16  19
ATOM     19  C   UNL     1      49.080  10.829  14.045  0.00  0.00    +0.000 C 
ATOM     20  N   UNL     1      48.641  11.194  15.287  0.00  0.00    +0.000 N 
ATOM     21  O   UNL     1      49.894  11.516  13.440  0.00  0.00    +0.000 OA
ATOM     22  H   UNL     1      47.818  10.797  15.716  0.00  0.00    +0.000 HD
ATOM     23  H   UNL     1      48.967  12.089  15.630  0.00  0.00    +0.000 HD
ENDBRANCH  16  19
ENDBRANCH   2  13
TORSDOF 5
ENDMDL
MODEL 6
REMARK VINA RESULT:    -5.315      1.909      2.468
REMARK INTER + INTRA:          -7.183
REMARK INTER:                  -6.782
REMARK INTRA:                  -0.401
REMARK UNBOUND:                -0.469
REMARK  Name = 
REMARK  5 active torsions:
REMARK  status: ('A' for Active; 'I' for Inactive)
REMARK    1  A    between atoms: N_1  and  C_2
REMARK    2  A    between atoms: C_2  and  C_3
REMARK    3  A    between atoms: C_7  and  C_8
REMARK    4  A    between atoms: C_9  and  C_10
REMARK    5  A    between atoms: C_13  and  C_14
REMARK                            x       y       z     vdW  Elec       q    Type
REMARK                         _______ _______ _______ _____ _____    ______ ____
ROOT
ATOM      1  C   UNL     1      46.687   4.541  13.862  0.00  0.00    +0.000 C 
ATOM      2  C   UNL     1      46.685   4.036  15.108  0.00  0.00    +0.000 C 
ENDROOT
BRANCH   1   7
ATOM      3  C   UNL     1      43.471   5.068  11.946  0.00  0.00    +0.000 A 
ATOM      4  C   UNL     1      43.515   4.003  11.038  0.00  0.00    +0.000 A 
ATOM      5  C   UNL     1      44.565   3.087  11.071  0.00  0.00    +0.000 A 
ATOM      6  C   UNL     1      45.596   3.238  12.000  0.00  0.00    +0.000 A 
ATOM      7  C   UNL     1      45.596   4.315  12.897  0.00  0.00    +0.000 A 
ATOM      8  C   UNL     1      44.513   5.207  12.878  0.00  0.00    +0.000 A 
BRANCH   3   9
ATOM      9  C   UNL     1      42.356   6.083  11.884  0.00  0.00    +0.000 C 
BRANCH   9  10
ATOM     10  N   UNL     1      42.750   7.281  11.150  0.00  0.00    +0.000 NA
ATOM     11  H   UNL     1      42.845   7.049  10.164  0.00  0.00    +0.000 HD
ATOM     12  H   UNL     1      43.675   7.569  11.468  0.00  0.00    +0.000 HD
ENDBRANCH   9  10
ENDBRANCH   3   9
ENDBRANCH   1   7
BRANCH   2  13
ATOM     13  C   UNL     1      47.782   4.159  16.079  0.00  0.00    +0.000 A 
ATOM     14  C   UNL     1      48.333   5.387  16.462  0.00  0.00    +0.000 A 
ATOM     15  C   UNL     1      49.373   5.440  17.399  0.00  0.00    +0.000 A 
ATOM     16  C   UNL     1      49.860   4.269  17.985  0.00  0.00    +0.000 A 
ATOM     17  C   UNL     1      49.311   3.036  17.616  0.00  0.00    +0.000 A 
ATOM     18  C   UNL     1      48.277   2.988  16.675  0.00  0.00    +0.000 A 
BRANCH  16  19
ATOM     19  C   UNL     1      50.970   4.377  18.968  0.00  0.00    +0.000 C 
ATOM     20  N   UNL     1      50.642   4.644  20.267  0.00  0.00    +0.000 N 
ATOM     21  O   UNL     1      52.142   4.269  18.626  0.00  0.00    +0.000 OA
ATOM     22  H   UNL     1      49.727   4.966  20.546  0.00  0.00    +0.000 HD
ATOM     23  H   UNL     1      51.415   4.821  20.895  0.00  0.00    +0.000 HD
ENDBRANCH  16  19
ENDBRANCH   2  13
TORSDOF 5
ENDMDL
MODEL 7
REMARK VINA RESULT:    -5.162      5.427      6.344
REMARK INTER + INTRA:          -6.989
REMARK INTER:                  -6.560
REMARK INTRA:                  -0.429
REMARK UNBOUND:                -0.469
REMARK  Name = 
REMARK  5 active torsions:
REMARK  status: ('A' for Active; 'I' for Inactive)
REMARK    1  A    between atoms: N_1  and  C_2
REMARK    2  A    between atoms: C_2  and  C_3
REMARK    3  A    between atoms: C_7  and  C_8
REMARK    4  A    between atoms: C_9  and  C_10
REMARK    5  A    between atoms: C_13  and  C_14
REMARK                            x       y       z     vdW  Elec       q    Type
REMARK                         _______ _______ _______ _____ _____    ______ ____
ROOT
ATOM      1  C   UNL     1      45.994   6.402  11.327  0.00  0.00    +0.000 C 
ATOM      2  C   UNL     1      47.090   6.578  12.085  0.00  0.00    +0.000 C 
ENDROOT
BRANCH   1   7
ATOM      3  C   UNL     1      44.225   3.141  10.605  0.00  0.00    +0.000 A 
ATOM      4  C   UNL     1      43.417   3.010  11.742  0.00  0.00    +0.000 A 
ATOM      5  C   UNL     1      43.412   3.997  12.726  0.00  0.00    +0.000 A 
ATOM      6  C   UNL     1      44.233   5.120  12.594  0.00  0.00    +0.000 A 
ATOM      7  C   UNL     1      45.077   5.259  11.484  0.00  0.00    +0.000 A 
ATOM      8  C   UNL     1      45.042   4.277  10.483  0.00  0.00    +0.000 A 
BRANCH   3   9
ATOM      9  C   UNL     1      44.260   2.053   9.561  0.00  0.00    +0.000 C 
BRANCH   9  10
ATOM     10  N   UNL     1      45.594   1.883   8.995  0.00  0.00    +0.000 NA
ATOM     11  H   UNL     1      46.146   1.298   9.619  0.00  0.00    +0.000 HD
ATOM     12  H   UNL     1      46.056   2.792   8.969  0.00  0.00    +0.000 HD
ENDBRANCH   9  10
ENDBRANCH   3   9
ENDBRANCH   1   7
BRANCH   2  13
ATOM     13  C   UNL     1      48.082   7.651  11.916  0.00  0.00    +0.000 A 
ATOM     14  C   UNL     1      49.437   7.410  11.664  0.00  0.00    +0.000 A 
ATOM     15  C   UNL     1      50.332   8.474  11.504  0.00  0.00    +0.000 A 
ATOM     16  C   UNL     1      49.882   9.795  11.570  0.00  0.00    +0.000 A 
ATOM     17  C   UNL     1      48.528  10.048  11.814  0.00  0.00    +0.000 A 
ATOM     18  C   UNL     1      47.638   8.981  11.979  0.00  0.00    +0.000 A 
BRANCH  16  19
ATOM     19  C   UNL     1      50.873  10.891  11.403  0.00  0.00    +0.000 C 
ATOM     20  N   UNL     1      50.937  11.506  10.184  0.00  0.00    +0.000 N 
ATOM     21  O   UNL     1      51.633  11.211  12.308  0.00  0.00    +0.000 OA
ATOM     22  H   UNL     1      50.502  11.128   9.356  0.00  0.00    +0.000 HD
ATOM     23  H   UNL     1      51.689  12.172  10.060  0.00  0.00    +0.000 HD
ENDBRANCH  16  19
ENDBRANCH   2  13
TORSDOF 5
ENDMDL
MODEL 8
REMARK VINA RESULT:    -5.059      5.683      7.890
REMARK INTER + INTRA:          -6.858
REMARK INTER:                  -6.425
REMARK INTRA:                  -0.434
REMARK UNBOUND:                -0.469
REMARK  Name = 
REMARK  5 active torsions:
REMARK  status: ('A' for Active; 'I' for Inactive)
REMARK    1  A    between atoms: N_1  and  C_2
REMARK    2  A    between atoms: C_2  and  C_3
REMARK    3  A    between atoms: C_7  and  C_8
REMARK    4  A    between atoms: C_9  and  C_10
REMARK    5  A    between atoms: C_13  and  C_14
REMARK                            x       y       z     vdW  Elec       q    Type
REMARK                         _______ _______ _______ _____ _____    ______ ____
ROOT
ATOM      1  C   UNL     1      49.169   7.751  11.500  0.00  0.00    +0.000 C 
ATOM      2  C   UNL     1      48.647   6.935  12.432  0.00  0.00    +0.000 C 
ENDROOT
BRANCH   1   7
ATOM      3  C   UNL     1      52.822   8.024  10.569  0.00  0.00    +0.000 A 
ATOM      4  C   UNL     1      53.247   9.050  11.423  0.00  0.00    +0.000 A 
ATOM      5  C   UNL     1      52.361   9.628  12.331  0.00  0.00    +0.000 A 
ATOM      6  C   UNL     1      51.033   9.200  12.381  0.00  0.00    +0.000 A 
ATOM      7  C   UNL     1      50.573   8.200  11.515  0.00  0.00    +0.000 A 
ATOM      8  C   UNL     1      51.485   7.600  10.633  0.00  0.00    +0.000 A 
BRANCH   3   9
ATOM      9  C   UNL     1      53.770   7.427   9.558  0.00  0.00    +0.000 C 
BRANCH   9  10
ATOM     10  N   UNL     1      54.848   6.678  10.196  0.00  0.00    +0.000 NA
ATOM     11  H   UNL     1      55.573   7.328  10.492  0.00  0.00    +0.000 HD
ATOM     12  H   UNL     1      55.276   6.067   9.501  0.00  0.00    +0.000 HD
ENDBRANCH   9  10
ENDBRANCH   3   9
ENDBRANCH   1   7
BRANCH   2  13
ATOM     13  C   UNL     1      47.237   6.525  12.513  0.00  0.00    +0.000 A 
ATOM     14  C   UNL     1      46.810   5.371  13.180  0.00  0.00    +0.000 A 
ATOM     15  C   UNL     1      45.452   5.036  13.229  0.00  0.00    +0.000 A 
ATOM     16  C   UNL     1      44.496   5.864  12.633  0.00  0.00    +0.000 A 
ATOM     17  C   UNL     1      44.910   7.024  11.970  0.00  0.00    +0.000 A 
ATOM     18  C   UNL     1      46.269   7.350  11.918  0.00  0.00    +0.000 A 
BRANCH  16  19
ATOM     19  C   UNL     1      43.067   5.461  12.704  0.00  0.00    +0.000 C 
ATOM     20  N   UNL     1      42.206   6.019  11.801  0.00  0.00    +0.000 N 
ATOM     21  O   UNL     1      42.660   4.688  13.563  0.00  0.00    +0.000 OA
ATOM     22  H   UNL     1      42.447   6.821  11.237  0.00  0.00    +0.000 HD
ATOM     23  H   UNL     1      41.224   5.815  11.936  0.00  0.00    +0.000 HD
ENDBRANCH  16  19
ENDBRANCH   2  13
TORSDOF 5
ENDMDL
MODEL 9
REMARK VINA RESULT:    -5.004      4.496      5.322
REMARK INTER + INTRA:          -6.789
REMARK INTER:                  -6.347
REMARK INTRA:                  -0.442
REMARK UNBOUND:                -0.469
REMARK  Name = 
REMARK  5 active torsions:
REMARK  status: ('A' for Active; 'I' for Inactive)
REMARK    1  A    between atoms: N_1  and  C_2
REMARK    2  A    between atoms: C_2  and  C_3
REMARK    3  A    between atoms: C_7  and  C_8
REMARK    4  A    between atoms: C_9  and  C_10
REMARK    5  A    between atoms: C_13  and  C_14
REMARK                            x       y       z     vdW  Elec       q    Type
REMARK                         _______ _______ _______ _____ _____    ______ ____
ROOT
ATOM      1  C   UNL     1      46.593   6.611  12.007  0.00  0.00    +0.000 C 
ATOM      2  C   UNL     1      47.616   6.351  12.840  0.00  0.00    +0.000 C 
ENDROOT
BRANCH   1   7
ATOM      3  C   UNL     1      44.243   3.948  10.712  0.00  0.00    +0.000 A 
ATOM      4  C   UNL     1      43.209   4.013  11.654  0.00  0.00    +0.000 A 
ATOM      5  C   UNL     1      43.250   4.948  12.688  0.00  0.00    +0.000 A 
ATOM      6  C   UNL     1      44.338   5.815  12.803  0.00  0.00    +0.000 A 
ATOM      7  C   UNL     1      45.403   5.748  11.896  0.00  0.00    +0.000 A 
ATOM      8  C   UNL     1      45.330   4.829  10.838  0.00  0.00    +0.000 A 
BRANCH   3   9
ATOM      9  C   UNL     1      44.219   2.910   9.618  0.00  0.00    +0.000 C 
BRANCH   9  10
ATOM     10  N   UNL     1      44.318   3.511   8.292  0.00  0.00    +0.000 NA
ATOM     11  H   UNL     1      45.243   3.324   7.912  0.00  0.00    +0.000 HD
ATOM     12  H   UNL     1      44.246   4.524   8.388  0.00  0.00    +0.000 HD
ENDBRANCH   9  10
ENDBRANCH   3   9
ENDBRANCH   1   7
BRANCH   2  13
ATOM     13  C   UNL     1      48.861   7.129  12.930  0.00  0.00    +0.000 A 
ATOM     14  C   UNL     1      49.546   7.344  14.132  0.00  0.00    +0.000 A 
ATOM     15  C   UNL     1      50.732   8.088  14.153  0.00  0.00    +0.000 A 
ATOM     16  C   UNL     1      51.264   8.607  12.970  0.00  0.00    +0.000 A 
ATOM     17  C   UNL     1      50.593   8.392  11.762  0.00  0.00    +0.000 A 
ATOM     18  C   UNL     1      49.405   7.653  11.746  0.00  0.00    +0.000 A 
BRANCH  16  19
ATOM     19  C   UNL     1      52.521   9.398  13.045  0.00  0.00    +0.000 C 
ATOM     20  N   UNL     1      53.386   9.116  14.065  0.00  0.00    +0.000 N 
ATOM     21  O   UNL     1      52.762  10.296  12.248  0.00  0.00    +0.000 OA
ATOM     22  H   UNL     1      53.127   8.557  14.864  0.00  0.00    +0.000 HD
ATOM     23  H   UNL     1      54.179   9.737  14.161  0.00  0.00    +0.000 HD
ENDBRANCH  16  19
ENDBRANCH   2  13
TORSDOF 5
ENDMDL
