MODEL 1
REMARK VINA RESULT:    -7.683      0.000      0.000
REMARK INTER + INTRA:         -10.286
REMARK INTER:                  -9.704
REMARK INTRA:                  -0.582
REMARK UNBOUND:                -0.582
REMARK  Name = 
REMARK  5 active torsions:
REMARK  status: ('A' for Active; 'I' for Inactive)
REMARK    1  A    between atoms: N_1  and  C_2
REMARK    2  A    between atoms: C_2  and  C_3
REMARK    3  A    between atoms: C_3  and  C_4
REMARK    4  A    between atoms: C_7  and  C_8
REMARK    5  A    between atoms: C_8  and  N_9
REMARK                            x       y       z     vdW  Elec       q    Type
REMARK                         _______ _______ _______ _____ _____    ______ ____
ROOT
ATOM      1  C   UNL     1      45.925   2.530   8.214  0.00  0.00    +0.000 A 
ATOM      2  C   UNL     1      45.012   1.948   9.103  0.00  0.00    +0.000 A 
ATOM      3  C   UNL     1      44.225   2.745   9.938  0.00  0.00    +0.000 A 
ATOM      4  C   UNL     1      44.336   4.146   9.900  0.00  0.00    +0.000 A 
ATOM      5  C   UNL     1      45.244   4.728   9.005  0.00  0.00    +0.000 A 
ATOM      6  C   UNL     1      46.021   3.925   8.163  0.00  0.00    +0.000 A 
ENDROOT
BRANCH   1   7
ATOM      7  C   UNL     1      46.800   1.667   7.336  0.00  0.00    +0.000 C 
BRANCH   7   8
ATOM      8  C   UNL     1      48.023   2.408   6.786  0.00  0.00    +0.000 C 
BRANCH   8   9
ATOM      9  N   UNL     1      48.473   1.799   5.535  0.00  0.00    +0.000 NA
ATOM     10  H   UNL     1      49.394   2.164   5.293  0.00  0.00    +0.000 HD
ATOM     11  H   UNL     1      47.851   2.075   4.777  0.00  0.00    +0.000 HD
ENDBRANCH   8   9
ENDBRANCH   7   8
ENDBRANCH   1   7
BRANCH   4  12
ATOM     12  C   UNL     1      43.450   5.010  10.760  0.00  0.00    +0.000 C 
BRANCH  12  13
ATOM     13  N   UNL     1      44.140   5.977  11.607  0.00  0.00    +0.000 N 
ATOM     14  C   UNL     1      44.273   7.315  11.347  0.00  0.00    +0.000 A 
ATOM     15  N   UNL     1      45.327   7.828  11.944  0.00  0.00    +0.000 NA
ATOM     16  C   UNL     1      45.884   6.790  12.646  0.00  0.00    +0.000 A 
ATOM     17  C   UNL     1      47.079   6.745  13.379  0.00  0.00    +0.000 A 
ATOM     18  C   UNL     1      47.441   5.548  14.011  0.00  0.00    +0.000 A 
ATOM     19  C   UNL     1      46.606   4.431  13.952  0.00  0.00    +0.000 A 
ATOM     20  C   UNL     1      45.416   4.452  13.216  0.00  0.00    +0.000 A 
ATOM     21  C   UNL     1      45.105   5.639  12.538  0.00  0.00    +0.000 A 
ENDBRANCH  12  13
ENDBRANCH   4  12
TORSDOF 5
ENDMDL
MODEL 2
REMARK VINA RESULT:    -6.701      2.170      6.483
REMARK INTER + INTRA:          -9.046
REMARK INTER:                  -8.576
REMARK INTRA:                  -0.470
REMARK UNBOUND:                -0.582
REMARK  Name = 
REMARK  5 active torsions:
REMARK  status: ('A' for Active; 'I' for Inactive)
REMARK    1  A    between atoms: N_1  and  C_2
REMARK    2  A    between atoms: C_2  and  C_3
REMARK    3  A    between atoms: C_3  and  C_4
REMARK    4  A    between atoms: C_7  and  C_8
REMARK    5  A    between atoms: C_8  and  N_9
REMARK                            x       y       z     vdW  Elec       q    Type
REMARK                         _______ _______ _______ _____ _____    ______ ____
ROOT
ATOM      1  C   UNL     1      46.624   5.472  13.022  0.00  0.00    +0.000 A 
ATOM      2  C   UNL     1      46.641   6.266  11.868  0.00  0.00    +0.000 A 
ATOM      3  C   UNL     1      45.897   5.903  10.743  0.00  0.00    +0.000 A 
ATOM      4  C   UNL     1      45.115   4.735  10.750  0.00  0.00    +0.000 A 
ATOM      5  C   UNL     1      45.091   3.945  11.908  0.00  0.00    +0.000 A 
ATOM      6  C   UNL     1      45.831   4.319  13.035  0.00  0.00    +0.000 A 
ENDROOT
BRANCH   1   7
ATOM      7  C   UNL     1      47.456   5.846  14.225  0.00  0.00    +0.000 C 
BRANCH   7   8
ATOM      8  C   UNL     1      47.421   4.791  15.336  0.00  0.00    +0.000 C 
BRANCH   8   9
ATOM      9  N   UNL     1      47.633   5.413  16.642  0.00  0.00    +0.000 NA
ATOM     10  H   UNL     1      46.750   5.446  17.149  0.00  0.00    +0.000 HD
ATOM     11  H   UNL     1      47.925   6.381  16.517  0.00  0.00    +0.000 HD
ENDBRANCH   8   9
ENDBRANCH   7   8
ENDBRANCH   1   7
BRANCH   4  12
ATOM     12  C   UNL     1      44.267   4.370   9.558  0.00  0.00    +0.000 C 
BRANCH  12  13
ATOM     13  N   UNL     1      44.651   3.148   8.861  0.00  0.00    +0.000 N 
ATOM     14  C   UNL     1      44.346   1.872   9.258  0.00  0.00    +0.000 A 
ATOM     15  N   UNL     1      45.208   0.995   8.791  0.00  0.00    +0.000 NA
ATOM     16  C   UNL     1      46.089   1.724   8.034  0.00  0.00    +0.000 A 
ATOM     17  C   UNL     1      47.266   1.314   7.388  0.00  0.00    +0.000 A 
ATOM     18  C   UNL     1      48.009   2.260   6.672  0.00  0.00    +0.000 A 
ATOM     19  C   UNL     1      47.566   3.579   6.562  0.00  0.00    +0.000 A 
ATOM     20  C   UNL     1      46.402   4.011   7.209  0.00  0.00    +0.000 A 
ATOM     21  C   UNL     1      45.708   3.063   7.973  0.00  0.00    +0.000 A 
ENDBRANCH  12  13
ENDBRANCH   4  12
TORSDOF 5
ENDMDL
MODEL 3
REMARK VINA RESULT:    -6.430      2.189      6.122
REMARK INTER + INTRA:          -8.703
REMARK INTER:                  -8.175
REMARK INTRA:                  -0.529
REMARK UNBOUND:                -0.582
REMARK  Name = 
REMARK  5 active torsions:
REMARK  status: ('A' for Active; 'I' for Inactive)
REMARK    1  A    between atoms: N_1  and  C_2
REMARK    2  A    between atoms: C_2  and  C_3
REMARK    3  A    between atoms: C_3  and  C_4
REMARK    4  A    between atoms: C_7  and  C_8
REMARK    5  A    between atoms: C_8  and  N_9
REMARK                            x       y       z     vdW  Elec       q    Type
REMARK                         _______ _______ _______ _____ _____    ______ ____
ROOT
ATOM      1  C   UNL     1      47.792   6.762  13.168  0.00  0.00    +0.000 A 
ATOM      2  C   UNL     1      47.248   7.654  12.237  0.00  0.00    +0.000 A 
ATOM      3  C   UNL     1      45.997   7.411  11.664  0.00  0.00    +0.000 A 
ATOM      4  C   UNL     1      45.262   6.265  12.014  0.00  0.00    +0.000 A 
ATOM      5  C   UNL     1      45.804   5.376  12.953  0.00  0.00    +0.000 A 
ATOM      6  C   UNL     1      47.052   5.631  13.531  0.00  0.00    +0.000 A 
ENDROOT
BRANCH   1   7
ATOM      7  C   UNL     1      49.159   7.007  13.761  0.00  0.00    +0.000 C 
BRANCH   7   8
ATOM      8  C   UNL     1      49.139   7.164  15.285  0.00  0.00    +0.000 C 
BRANCH   8   9
ATOM      9  N   UNL     1      49.682   5.970  15.932  0.00  0.00    +0.000 NA
ATOM     10  H   UNL     1      49.100   5.723  16.731  0.00  0.00    +0.000 HD
ATOM     11  H   UNL     1      50.607   6.174  16.307  0.00  0.00    +0.000 HD
ENDBRANCH   8   9
ENDBRANCH   7   8
ENDBRANCH   1   7
BRANCH   4  12
ATOM     12  C   UNL     1      43.889   6.027  11.440  0.00  0.00    +0.000 C 
BRANCH  12  13
ATOM     13  N   UNL     1      43.655   4.695  10.894  0.00  0.00    +0.000 N 
ATOM     14  C   UNL     1      43.060   3.653  11.556  0.00  0.00    +0.000 A 
ATOM     15  N   UNL     1      43.433   2.488  11.073  0.00  0.00    +0.000 NA
ATOM     16  C   UNL     1      44.279   2.784  10.035  0.00  0.00    +0.000 A 
ATOM     17  C   UNL     1      45.045   1.925   9.233  0.00  0.00    +0.000 A 
ATOM     18  C   UNL     1      45.848   2.475   8.226  0.00  0.00    +0.000 A 
ATOM     19  C   UNL     1      45.852   3.851   7.991  0.00  0.00    +0.000 A 
ATOM     20  C   UNL     1      45.104   4.726   8.788  0.00  0.00    +0.000 A 
ATOM     21  C   UNL     1      44.358   4.160   9.831  0.00  0.00    +0.000 A 
ENDBRANCH  12  13
ENDBRANCH   4  12
TORSDOF 5
ENDMDL
MODEL 4
REMARK VINA RESULT:    -6.395      1.608      2.345
REMARK INTER + INTRA:          -8.660
REMARK INTER:                  -8.172
REMARK INTRA:                  -0.488
REMARK UNBOUND:                -0.582
REMARK  Name = 
REMARK  5 active torsions:
REMARK  status: ('A' for Active; 'I' for Inactive)
REMARK    1  A    between atoms: N_1  and  C_2
REMARK    2  A    between atoms: C_2  and  C_3
REMARK    3  A    between atoms: C_3  and  C_4
REMARK    4  A    between atoms: C_7  and  C_8
REMARK    5  A    between atoms: C_8  and  N_9
REMARK                            x       y       z     vdW  Elec       q    Type
REMARK                         _______ _______ _______ _____ _____    ______ ____
ROOT
ATOM      1  C   UNL     1      45.817   3.234   7.749  0.00  0.00    +0.000 A 
ATOM      2  C   UNL     1      45.279   2.466   8.789  0.00  0.00    +0.000 A 
ATOM      3  C   UNL     1      45.030   3.035  10.039  0.00  0.00    +0.000 A 
ATOM      4  C   UNL     1      45.315   4.391  10.277  0.00  0.00    +0.000 A 
ATOM      5  C   UNL     1      45.847   5.162   9.234  0.00  0.00    +0.000 A 
ATOM      6  C   UNL     1      46.084   4.588   7.979  0.00  0.00    +0.000 A 
ENDROOT
BRANCH   1   7
ATOM      7  C   UNL     1      46.118   2.610   6.407  0.00  0.00    +0.000 C 
BRANCH   7   8
ATOM      8  C   UNL     1      47.361   1.715   6.421  0.00  0.00    +0.000 C 
BRANCH   8   9
ATOM      9  N   UNL     1      48.574   2.517   6.262  0.00  0.00    +0.000 NA
ATOM     10  H   UNL     1      48.724   3.075   7.102  0.00  0.00    +0.000 HD
ATOM     11  H   UNL     1      48.448   3.181   5.499  0.00  0.00    +0.000 HD
ENDBRANCH   8   9
ENDBRANCH   7   8
ENDBRANCH   1   7
BRANCH   4  12
ATOM     12  C   UNL     1      44.998   5.023  11.608  0.00  0.00    +0.000 C 
BRANCH  12  13
ATOM     13  N   UNL     1      46.088   5.038  12.577  0.00  0.00    +0.000 N 
ATOM     14  C   UNL     1      46.114   4.348  13.760  0.00  0.00    +0.000 A 
ATOM     15  N   UNL     1      46.909   4.915  14.641  0.00  0.00    +0.000 NA
ATOM     16  C   UNL     1      47.447   5.999  13.994  0.00  0.00    +0.000 A 
ATOM     17  C   UNL     1      48.280   7.014  14.489  0.00  0.00    +0.000 A 
ATOM     18  C   UNL     1      48.697   8.031  13.621  0.00  0.00    +0.000 A 
ATOM     19  C   UNL     1      48.329   8.013  12.275  0.00  0.00    +0.000 A 
ATOM     20  C   UNL     1      47.489   7.016  11.764  0.00  0.00    +0.000 A 
ATOM     21  C   UNL     1      47.031   6.045  12.665  0.00  0.00    +0.000 A 
ENDBRANCH  12  13
ENDBRANCH   4  12
TORSDOF 5
ENDMDL
MODEL 5
REMARK VINA RESULT:    -5.700      2.335      3.703
REMARK INTER + INTRA:          -7.782
REMARK INTER:                  -7.250
REMARK INTRA:                  -0.532
REMARK UNBOUND:                -0.582
REMARK  Name = 
REMARK  5 active torsions:
REMARK  status: ('A' for Active; 'I' for Inactive)
REMARK    1  A    between atoms: N_1  and  C_2
REMARK    2  A    between atoms: C_2  and  C_3
REMARK    3  A    between atoms: C_3  and  C_4
REMARK    4  A    between atoms: C_7  and  C_8
REMARK    5  A    between atoms: C_8  and  N_9
REMARK                            x       y       z     vdW  Elec       q    Type
REMARK                         _______ _______ _______ _____ _____    ______ ____
ROOT
ATOM      1  C   UNL     1      44.942   3.493   9.761  0.00  0.00    +0.000 A 
ATOM      2  C   UNL     1      45.429   4.769   9.448  0.00  0.00    +0.000 A 
ATOM      3  C   UNL     1      45.718   5.688  10.459  0.00  0.00    +0.000 A 
ATOM      4  C   UNL     1      45.525   5.349  11.810  0.00  0.00    +0.000 A 
ATOM      5  C   UNL     1      45.045   4.070  12.123  0.00  0.00    +0.000 A 
ATOM      6  C   UNL     1      44.768   3.149  11.106  0.00  0.00    +0.000 A 
ENDROOT
BRANCH   1   7
ATOM      7  C   UNL     1      44.598   2.511   8.667  0.00  0.00    +0.000 C 
BRANCH   7   8
ATOM      8  C   UNL     1      45.650   1.412   8.487  0.00  0.00    +0.000 C 
BRANCH   8   9
ATOM      9  N   UNL     1      46.738   1.878   7.628  0.00  0.00    +0.000 NA
ATOM     10  H   UNL     1      47.624   1.514   7.976  0.00  0.00    +0.000 HD
ATOM     11  H   UNL     1      46.807   2.894   7.683  0.00  0.00    +0.000 HD
ENDBRANCH   8   9
ENDBRANCH   7   8
ENDBRANCH   1   7
BRANCH   4  12
ATOM     12  C   UNL     1      45.886   6.319  12.906  0.00  0.00    +0.000 C 
BRANCH  12  13
ATOM     13  N   UNL     1      47.259   6.238  13.393  0.00  0.00    +0.000 N 
ATOM     14  C   UNL     1      47.645   5.762  14.618  0.00  0.00    +0.000 A 
ATOM     15  N   UNL     1      48.799   6.265  14.999  0.00  0.00    +0.000 NA
ATOM     16  C   UNL     1      49.195   7.076  13.966  0.00  0.00    +0.000 A 
ATOM     17  C   UNL     1      50.299   7.937  13.878  0.00  0.00    +0.000 A 
ATOM     18  C   UNL     1      50.489   8.676  12.704  0.00  0.00    +0.000 A 
ATOM     19  C   UNL     1      49.622   8.526  11.620  0.00  0.00    +0.000 A 
ATOM     20  C   UNL     1      48.509   7.682  11.692  0.00  0.00    +0.000 A 
ATOM     21  C   UNL     1      48.301   7.001  12.900  0.00  0.00    +0.000 A 
ENDBRANCH  12  13
ENDBRANCH   4  12
TORSDOF 5
ENDMDL
MODEL 6
REMARK VINA RESULT:    -5.213      4.824      7.718
REMARK INTER + INTRA:          -7.166
REMARK INTER:                  -6.798
REMARK INTRA:                  -0.368
REMARK UNBOUND:                -0.582
REMARK  Name = 
REMARK  5 active torsions:
REMARK  status: ('A' for Active; 'I' for Inactive)
REMARK    1  A    between atoms: N_1  and  C_2
REMARK    2  A    between atoms: C_2  and  C_3
REMARK    3  A    between atoms: C_3  and  C_4
REMARK    4  A    between atoms: C_7  and  C_8
REMARK    5  A    between atoms: C_8  and  N_9
REMARK                            x       y       z     vdW  Elec       q    Type
REMARK                         _______ _______ _______ _____ _____    ______ ____
ROOT
ATOM      1  C   UNL     1      51.047   2.802  17.584  0.00  0.00    +0.000 A 
ATOM      2  C   UNL     1      50.095   1.955  17.003  0.00  0.00    +0.000 A 
ATOM      3  C   UNL     1      48.885   2.465  16.527  0.00  0.00    +0.000 A 
ATOM      4  C   UNL     1      48.601   3.838  16.624  0.00  0.00    +0.000 A 
ATOM      5  C   UNL     1      49.557   4.687  17.199  0.00  0.00    +0.000 A 
ATOM      6  C   UNL     1      50.773   4.172  17.663  0.00  0.00    +0.000 A 
ENDROOT
BRANCH   1   7
ATOM      7  C   UNL     1      52.341   2.246  18.129  0.00  0.00    +0.000 C 
BRANCH   7   8
ATOM      8  C   UNL     1      52.770   0.939  17.455  0.00  0.00    +0.000 C 
BRANCH   8   9
ATOM      9  N   UNL     1      52.688  -0.177  18.397  0.00  0.00    +0.000 NA
ATOM     10  H   UNL     1      53.024   0.126  19.310  0.00  0.00    +0.000 HD
ATOM     11  H   UNL     1      53.313  -0.924  18.098  0.00  0.00    +0.000 HD
ENDBRANCH   8   9
ENDBRANCH   7   8
ENDBRANCH   1   7
BRANCH   4  12
ATOM     12  C   UNL     1      47.320   4.401  16.063  0.00  0.00    +0.000 C 
BRANCH  12  13
ATOM     13  N   UNL     1      47.429   5.038  14.755  0.00  0.00    +0.000 N 
ATOM     14  C   UNL     1      47.875   6.313  14.524  0.00  0.00    +0.000 A 
ATOM     15  N   UNL     1      47.397   6.803  13.400  0.00  0.00    +0.000 NA
ATOM     16  C   UNL     1      46.636   5.795  12.864  0.00  0.00    +0.000 A 
ATOM     17  C   UNL     1      45.816   5.803  11.726  0.00  0.00    +0.000 A 
ATOM     18  C   UNL     1      45.125   4.634  11.382  0.00  0.00    +0.000 A 
ATOM     19  C   UNL     1      45.284   3.467  12.130  0.00  0.00    +0.000 A 
ATOM     20  C   UNL     1      46.088   3.442  13.275  0.00  0.00    +0.000 A 
ATOM     21  C   UNL     1      46.719   4.639  13.638  0.00  0.00    +0.000 A 
ENDBRANCH  12  13
ENDBRANCH   4  12
TORSDOF 5
ENDMDL
MODEL 7
REMARK VINA RESULT:    -5.043      3.381      5.879
REMARK INTER + INTRA:          -6.952
REMARK INTER:                  -6.607
REMARK INTRA:                  -0.345
REMARK UNBOUND:                -0.582
REMARK  Name = 
REMARK  5 active torsions:
REMARK  status: ('A' for Active; 'I' for Inactive)
REMARK    1  A    between atoms: N_1  and  C_2
REMARK    2  A    between atoms: C_2  and  C_3
REMARK    3  A    between atoms: C_3  and  C_4
REMARK    4  A    between atoms: C_7  and  C_8
REMARK    5  A    between atoms: C_8  and  N_9
REMARK                            x       y       z     vdW  Elec       q    Type
REMARK                         _______ _______ _______ _____ _____    ______ ____
ROOT
ATOM      1  C   UNL     1      44.974   6.267  12.104  0.00  0.00    +0.000 A 
ATOM      2  C   UNL     1      45.533   7.494  12.482  0.00  0.00    +0.000 A 
ATOM      3  C   UNL     1      46.711   7.538  13.231  0.00  0.00    +0.000 A 
ATOM      4  C   UNL     1      47.357   6.352  13.619  0.00  0.00    +0.000 A 
ATOM      5  C   UNL     1      46.801   5.124  13.234  0.00  0.00    +0.000 A 
ATOM      6  C   UNL     1      45.627   5.085  12.474  0.00  0.00    +0.000 A 
ENDROOT
BRANCH   1   7
ATOM      7  C   UNL     1      43.682   6.218  11.324  0.00  0.00    +0.000 C 
BRANCH   7   8
ATOM      8  C   UNL     1      43.350   4.821  10.790  0.00  0.00    +0.000 C 
BRANCH   8   9
ATOM      9  N   UNL     1      43.696   4.716   9.373  0.00  0.00    +0.000 NA
ATOM     10  H   UNL     1      42.858   4.498   8.835  0.00  0.00    +0.000 HD
ATOM     11  H   UNL     1      44.334   3.933   9.234  0.00  0.00    +0.000 HD
ENDBRANCH   8   9
ENDBRANCH   7   8
ENDBRANCH   1   7
BRANCH   4  12
ATOM     12  C   UNL     1      48.657   6.396  14.380  0.00  0.00    +0.000 C 
BRANCH  12  13
ATOM     13  N   UNL     1      48.539   6.381  15.834  0.00  0.00    +0.000 N 
ATOM     14  C   UNL     1      49.049   7.325  16.687  0.00  0.00    +0.000 A 
ATOM     15  N   UNL     1      49.264   6.836  17.888  0.00  0.00    +0.000 NA
ATOM     16  C   UNL     1      48.847   5.531  17.824  0.00  0.00    +0.000 A 
ATOM     17  C   UNL     1      48.940   4.514  18.787  0.00  0.00    +0.000 A 
ATOM     18  C   UNL     1      48.440   3.242  18.478  0.00  0.00    +0.000 A 
ATOM     19  C   UNL     1      47.819   2.999  17.252  0.00  0.00    +0.000 A 
ATOM     20  C   UNL     1      47.728   3.997  16.274  0.00  0.00    +0.000 A 
ATOM     21  C   UNL     1      48.291   5.243  16.579  0.00  0.00    +0.000 A 
ENDBRANCH  12  13
ENDBRANCH   4  12
TORSDOF 5
ENDMDL
MODEL 8
REMARK VINA RESULT:    -4.995      3.250      5.395
REMARK INTER + INTRA:          -6.892
REMARK INTER:                  -6.434
REMARK INTRA:                  -0.458
REMARK UNBOUND:                -0.582
REMARK  Name = 
REMARK  5 active torsions:
REMARK  status: ('A' for Active; 'I' for Inactive)
REMARK    1  A    between atoms: N_1  and  C_2
REMARK    2  A    between atoms: C_2  and  C_3
REMARK    3  A    between atoms: C_3  and  C_4
REMARK    4  A    between atoms: C_7  and  C_8
REMARK    5  A    between atoms: C_8  and  N_9
REMARK                            x       y       z     vdW  Elec       q    Type
REMARK                         _______ _______ _______ _____ _____    ______ ____
ROOT
ATOM      1  C   UNL     1      45.058   5.039  11.688  0.00  0.00    +0.000 A 
ATOM      2  C   UNL     1      45.708   6.148  11.134  0.00  0.00    +0.000 A 
ATOM      3  C   UNL     1      46.843   6.686  11.745  0.00  0.00    +0.000 A 
ATOM      4  C   UNL     1      47.354   6.122  12.926  0.00  0.00    +0.000 A 
ATOM      5  C   UNL     1      46.707   5.006  13.476  0.00  0.00    +0.000 A 
ATOM      6  C   UNL     1      45.577   4.465  12.854  0.00  0.00    +0.000 A 
ENDROOT
BRANCH   1   7
ATOM      7  C   UNL     1      43.810   4.479  11.046  0.00  0.00    +0.000 C 
BRANCH   7   8
ATOM      8  C   UNL     1      43.908   2.981  10.739  0.00  0.00    +0.000 C 
BRANCH   8   9
ATOM      9  N   UNL     1      43.060   2.213  11.651  0.00  0.00    +0.000 NA
ATOM     10  H   UNL     1      42.323   1.752  11.120  0.00  0.00    +0.000 HD
ATOM     11  H   UNL     1      42.591   2.846  12.297  0.00  0.00    +0.000 HD
ENDBRANCH   8   9
ENDBRANCH   7   8
ENDBRANCH   1   7
BRANCH   4  12
ATOM     12  C   UNL     1      48.610   6.664  13.558  0.00  0.00    +0.000 C 
BRANCH  12  13
ATOM     13  N   UNL     1      48.432   7.342  14.838  0.00  0.00    +0.000 N 
ATOM     14  C   UNL     1      48.415   8.699  15.027  0.00  0.00    +0.000 A 
ATOM     15  N   UNL     1      48.761   9.028  16.253  0.00  0.00    +0.000 NA
ATOM     16  C   UNL     1      48.980   7.836  16.895  0.00  0.00    +0.000 A 
ATOM     17  C   UNL     1      49.467   7.593  18.189  0.00  0.00    +0.000 A 
ATOM     18  C   UNL     1      49.611   6.269  18.621  0.00  0.00    +0.000 A 
ATOM     19  C   UNL     1      49.233   5.207  17.798  0.00  0.00    +0.000 A 
ATOM     20  C   UNL     1      48.756   5.427  16.500  0.00  0.00    +0.000 A 
ATOM     21  C   UNL     1      48.682   6.757  16.065  0.00  0.00    +0.000 A 
ENDBRANCH  12  13
ENDBRANCH   4  12
TORSDOF 5
ENDMDL
MODEL 9
REMARK VINA RESULT:    -4.937      3.300      5.861
REMARK INTER + INTRA:          -6.819
REMARK INTER:                  -6.301
REMARK INTRA:                  -0.518
REMARK UNBOUND:                -0.582
REMARK  Name = 
REMARK  5 active torsions:
REMARK  status: ('A' for Active; 'I' for Inactive)
REMARK    1  A    between atoms: N_1  and  C_2
REMARK    2  A    between atoms: C_2  and  C_3
REMARK    3  A    between atoms: C_3  and  C_4
REMARK    4  A    between atoms: C_7  and  C_8
REMARK    5  A    between atoms: C_8  and  N_9
REMARK                            x       y       z     vdW  Elec       q    Type
REMARK                         _______ _______ _______ _____ _____    ______ ____
ROOT
ATOM      1  C   UNL     1      50.501   7.967  11.936  0.00  0.00    +0.000 A 
ATOM      2  C   UNL     1      49.478   7.636  11.038  0.00  0.00    +0.000 A 
ATOM      3  C   UNL     1      48.177   7.412  11.493  0.00  0.00    +0.000 A 
ATOM      4  C   UNL     1      47.870   7.515  12.861  0.00  0.00    +0.000 A 
ATOM      5  C   UNL     1      48.893   7.854  13.758  0.00  0.00    +0.000 A 
ATOM      6  C   UNL     1      50.192   8.088  13.295  0.00  0.00    +0.000 A 
ENDROOT
BRANCH   1   7
ATOM      7  C   UNL     1      51.915   8.175  11.448  0.00  0.00    +0.000 C 
BRANCH   7   8
ATOM      8  C   UNL     1      52.214   7.453  10.130  0.00  0.00    +0.000 C 
BRANCH   8   9
ATOM      9  N   UNL     1      52.980   6.232  10.376  0.00  0.00    +0.000 NA
ATOM     10  H   UNL     1      53.106   6.107  11.379  0.00  0.00    +0.000 HD
ATOM     11  H   UNL     1      53.916   6.331   9.983  0.00  0.00    +0.000 HD
ENDBRANCH   8   9
ENDBRANCH   7   8
ENDBRANCH   1   7
BRANCH   4  12
ATOM     12  C   UNL     1      46.456   7.328  13.349  0.00  0.00    +0.000 C 
BRANCH  12  13
ATOM     13  N   UNL     1      45.980   5.950  13.390  0.00  0.00    +0.000 N 
ATOM     14  C   UNL     1      46.656   4.886  13.927  0.00  0.00    +0.000 A 
ATOM     15  N   UNL     1      46.281   3.745  13.390  0.00  0.00    +0.000 NA
ATOM     16  C   UNL     1      45.299   4.076  12.492  0.00  0.00    +0.000 A 
ATOM     17  C   UNL     1      44.619   3.266  11.570  0.00  0.00    +0.000 A 
ATOM     18  C   UNL     1      43.648   3.847  10.745  0.00  0.00    +0.000 A 
ATOM     19  C   UNL     1      43.327   5.199  10.867  0.00  0.00    +0.000 A 
ATOM     20  C   UNL     1      44.001   6.027  11.772  0.00  0.00    +0.000 A 
ATOM     21  C   UNL     1      45.014   5.440  12.543  0.00  0.00    +0.000 A 
ENDBRANCH  12  13
ENDBRANCH   4  12
TORSDOF 5
ENDMDL
