MODEL 1
REMARK VINA RESULT:    -8.213      0.000      0.000
REMARK INTER + INTRA:         -12.429
REMARK INTER:                 -11.334
REMARK INTRA:                  -1.095
REMARK UNBOUND:                -1.095
REMARK  Name = 
REMARK  8 active torsions:
REMARK  status: ('A' for Active; 'I' for Inactive)
REMARK    1  A    between atoms: C_1  and  C_2
REMARK    2  A    between atoms: C_2  and  C_3
REMARK    3  A    between atoms: C_7  and  C_8
REMARK    4  A    between atoms: C_8  and  C_9
REMARK    5  A    between atoms: C_9  and  N_10
REMARK    6  A    between atoms: N_10  and  C_11
REMARK    7  A    between atoms: C_14  and  C_15
REMARK    8  A    between atoms: C_23  and  O_24
REMARK                            x       y       z     vdW  Elec       q    Type
REMARK                         _______ _______ _______ _____ _____    ______ ____
ROOT
ATOM      1  C   UNL     1      46.846   6.606  12.923  0.00  0.00    +0.000 A 
ATOM      2  C   UNL     1      47.502   5.499  13.485  0.00  0.00    +0.000 A 
ATOM      3  C   UNL     1      46.834   4.285  13.680  0.00  0.00    +0.000 A 
ATOM      4  C   UNL     1      45.490   4.147  13.325  0.00  0.00    +0.000 A 
ATOM      5  C   UNL     1      44.802   5.220  12.755  0.00  0.00    +0.000 A 
ATOM      6  C   UNL     1      45.506   6.422  12.547  0.00  0.00    +0.000 A 
ENDROOT
BRANCH   1   8
ATOM      7  C   UNL     1      46.440   8.995  12.381  0.00  0.00    +0.000 C 
ATOM      8  C   UNL     1      47.537   7.989  12.808  0.00  0.00    +0.000 C 
ATOM      9  C   UNL     1      48.155   8.393  14.172  0.00  0.00    +0.000 C 
ATOM     10  C   UNL     1      48.970   9.692  14.129  0.00  0.00    +0.000 C 
ATOM     11  C   UNL     1      50.040   9.700  13.041  0.00  0.00    +0.000 C 
ATOM     12  C   UNL     1      49.474   9.312  11.679  0.00  0.00    +0.000 C 
ATOM     13  C   UNL     1      48.673   8.012  11.736  0.00  0.00    +0.000 C 
BRANCH  11  14
ATOM     14  O   UNL     1      51.107   8.823  13.390  0.00  0.00    +0.000 OA
ATOM     15  H   UNL     1      51.951   9.288  13.276  0.00  0.00    +0.000 HD
ENDBRANCH  11  14
ENDBRANCH   1   8
BRANCH   5  16
ATOM     16  C   UNL     1      43.323   5.082  12.418  0.00  0.00    +0.000 C 
BRANCH  16  17
ATOM     17  C   UNL     1      43.066   4.301  11.120  0.00  0.00    +0.000 C 
BRANCH  17  18
ATOM     18  N   UNL     1      43.726   4.865   9.943  0.00  0.00    +0.000 N 
ATOM     19  H   UNL     1      44.242   5.716  10.164  0.00  0.00    +0.000 HD
BRANCH  18  20
ATOM     20  C   UNL     1      44.533   3.952   9.227  0.00  0.00    +0.000 A 
ATOM     21  C   UNL     1      45.496   4.349   8.288  0.00  0.00    +0.000 A 
ATOM     22  C   UNL     1      46.319   3.413   7.664  0.00  0.00    +0.000 A 
ATOM     23  C   UNL     1      46.183   2.084   8.021  0.00  0.00    +0.000 A 
ATOM     24  N   UNL     1      45.293   1.637   8.949  0.00  0.00    +0.000 NA
ATOM     25  C   UNL     1      44.513   2.586   9.530  0.00  0.00    +0.000 A 
BRANCH  23  26
ATOM     26  C   UNL     1      47.076   1.061   7.390  0.00  0.00    +0.000 C 
ATOM     27  N   UNL     1      46.770  -0.239   7.677  0.00  0.00    +0.000 N 
ATOM     28  O   UNL     1      48.021   1.357   6.671  0.00  0.00    +0.000 OA
ATOM     29  H   UNL     1      45.995  -0.442   8.300  0.00  0.00    +0.000 HD
ATOM     30  H   UNL     1      47.351  -0.980   7.316  0.00  0.00    +0.000 HD
ENDBRANCH  23  26
ENDBRANCH  18  20
ENDBRANCH  17  18
ENDBRANCH  16  17
ENDBRANCH   5  16
TORSDOF 7
ENDMDL
MODEL 2
REMARK VINA RESULT:    -7.699      1.309      2.212
REMARK INTER + INTRA:         -11.720
REMARK INTER:                 -10.848
REMARK INTRA:                  -0.872
REMARK UNBOUND:                -1.095
REMARK  Name = 
REMARK  8 active torsions:
REMARK  status: ('A' for Active; 'I' for Inactive)
REMARK    1  A    between atoms: C_1  and  C_2
REMARK    2  A    between atoms: C_2  and  C_3
REMARK    3  A    between atoms: C_7  and  C_8
REMARK    4  A    between atoms: C_8  and  C_9
REMARK    5  A    between atoms: C_9  and  N_10
REMARK    6  A    between atoms: N_10  and  C_11
REMARK    7  A    between atoms: C_14  and  C_15
REMARK    8  A    between atoms: C_23  and  O_24
REMARK                            x       y       z     vdW  Elec       q    Type
REMARK                         _______ _______ _______ _____ _____    ______ ____
ROOT
ATOM      1  C   UNL     1      47.509   8.604  12.120  0.00  0.00    +0.000 A 
ATOM      2  C   UNL     1      46.428   9.500  12.137  0.00  0.00    +0.000 A 
ATOM      3  C   UNL     1      45.110   9.047  12.003  0.00  0.00    +0.000 A 
ATOM      4  C   UNL     1      44.839   7.687  11.838  0.00  0.00    +0.000 A 
ATOM      5  C   UNL     1      45.884   6.761  11.825  0.00  0.00    +0.000 A 
ATOM      6  C   UNL     1      47.197   7.242  11.988  0.00  0.00    +0.000 A 
ENDROOT
BRANCH   1   8
ATOM      7  C   UNL     1      49.048  10.326  11.210  0.00  0.00    +0.000 C 
ATOM      8  C   UNL     1      48.977   9.100  12.152  0.00  0.00    +0.000 C 
ATOM      9  C   UNL     1      49.377   9.493  13.599  0.00  0.00    +0.000 C 
ATOM     10  C   UNL     1      50.853   9.880  13.756  0.00  0.00    +0.000 C 
ATOM     11  C   UNL     1      51.816   8.830  13.208  0.00  0.00    +0.000 C 
ATOM     12  C   UNL     1      51.462   8.417  11.784  0.00  0.00    +0.000 C 
ATOM     13  C   UNL     1      49.991   8.025  11.645  0.00  0.00    +0.000 C 
BRANCH  11  14
ATOM     14  O   UNL     1      51.833   7.684  14.055  0.00  0.00    +0.000 OA
ATOM     15  H   UNL     1      51.877   6.885  13.507  0.00  0.00    +0.000 HD
ENDBRANCH  11  14
ENDBRANCH   1   8
BRANCH   5  16
ATOM     16  C   UNL     1      45.587   5.285  11.594  0.00  0.00    +0.000 C 
BRANCH  16  17
ATOM     17  C   UNL     1      44.103   4.999  11.319  0.00  0.00    +0.000 C 
BRANCH  17  18
ATOM     18  N   UNL     1      43.768   4.893   9.899  0.00  0.00    +0.000 N 
ATOM     19  H   UNL     1      43.724   5.805   9.447  0.00  0.00    +0.000 HD
BRANCH  18  20
ATOM     20  C   UNL     1      44.585   4.000   9.167  0.00  0.00    +0.000 A 
ATOM     21  C   UNL     1      45.560   4.425   8.254  0.00  0.00    +0.000 A 
ATOM     22  C   UNL     1      46.392   3.507   7.613  0.00  0.00    +0.000 A 
ATOM     23  C   UNL     1      46.251   2.168   7.929  0.00  0.00    +0.000 A 
ATOM     24  N   UNL     1      45.347   1.694   8.832  0.00  0.00    +0.000 NA
ATOM     25  C   UNL     1      44.560   2.626   9.430  0.00  0.00    +0.000 A 
BRANCH  23  26
ATOM     26  C   UNL     1      47.152   1.164   7.280  0.00  0.00    +0.000 C 
ATOM     27  N   UNL     1      48.172   1.688   6.537  0.00  0.00    +0.000 N 
ATOM     28  O   UNL     1      46.992  -0.044   7.394  0.00  0.00    +0.000 OA
ATOM     29  H   UNL     1      48.254   2.695   6.446  0.00  0.00    +0.000 HD
ATOM     30  H   UNL     1      48.797   1.070   6.042  0.00  0.00    +0.000 HD
ENDBRANCH  23  26
ENDBRANCH  18  20
ENDBRANCH  17  18
ENDBRANCH  16  17
ENDBRANCH   5  16
TORSDOF 7
ENDMDL
MODEL 3
REMARK VINA RESULT:    -7.526      2.978      4.101
REMARK INTER + INTRA:         -11.481
REMARK INTER:                 -10.544
REMARK INTRA:                  -0.937
REMARK UNBOUND:                -1.095
REMARK  Name = 
REMARK  8 active torsions:
REMARK  status: ('A' for Active; 'I' for Inactive)
REMARK    1  A    between atoms: C_1  and  C_2
REMARK    2  A    between atoms: C_2  and  C_3
REMARK    3  A    between atoms: C_7  and  C_8
REMARK    4  A    between atoms: C_8  and  C_9
REMARK    5  A    between atoms: C_9  and  N_10
REMARK    6  A    between atoms: N_10  and  C_11
REMARK    7  A    between atoms: C_14  and  C_15
REMARK    8  A    between atoms: C_23  and  O_24
REMARK                            x       y       z     vdW  Elec       q    Type
REMARK                         _______ _______ _______ _____ _____    ______ ____
ROOT
ATOM      1  C   UNL     1      47.655   5.197  15.266  0.00  0.00    +0.000 A 
ATOM      2  C   UNL     1      48.059   6.378  14.623  0.00  0.00    +0.000 A 
ATOM      3  C   UNL     1      47.601   6.696  13.339  0.00  0.00    +0.000 A 
ATOM      4  C   UNL     1      46.733   5.837  12.660  0.00  0.00    +0.000 A 
ATOM      5  C   UNL     1      46.300   4.656  13.268  0.00  0.00    +0.000 A 
ATOM      6  C   UNL     1      46.756   4.375  14.570  0.00  0.00    +0.000 A 
ENDROOT
BRANCH   1   8
ATOM      7  C   UNL     1      47.131   5.023  17.687  0.00  0.00    +0.000 C 
ATOM      8  C   UNL     1      48.242   4.776  16.637  0.00  0.00    +0.000 C 
ATOM      9  C   UNL     1      48.649   3.280  16.607  0.00  0.00    +0.000 C 
ATOM     10  C   UNL     1      49.356   2.798  17.881  0.00  0.00    +0.000 C 
ATOM     11  C   UNL     1      50.551   3.663  18.274  0.00  0.00    +0.000 C 
ATOM     12  C   UNL     1      50.195   5.144  18.320  0.00  0.00    +0.000 C 
ATOM     13  C   UNL     1      49.500   5.611  17.041  0.00  0.00    +0.000 C 
BRANCH  11  14
ATOM     14  O   UNL     1      51.632   3.452  17.370  0.00  0.00    +0.000 OA
ATOM     15  H   UNL     1      52.289   2.874  17.789  0.00  0.00    +0.000 HD
ENDBRANCH  11  14
ENDBRANCH   1   8
BRANCH   5  16
ATOM     16  C   UNL     1      45.395   3.698  12.504  0.00  0.00    +0.000 C 
BRANCH  16  17
ATOM     17  C   UNL     1      44.319   4.411  11.671  0.00  0.00    +0.000 C 
BRANCH  17  18
ATOM     18  N   UNL     1      43.764   3.597  10.590  0.00  0.00    +0.000 N 
ATOM     19  H   UNL     1      42.880   3.969  10.246  0.00  0.00    +0.000 HD
BRANCH  18  20
ATOM     20  C   UNL     1      44.658   3.343   9.525  0.00  0.00    +0.000 A 
ATOM     21  C   UNL     1      45.295   4.359   8.798  0.00  0.00    +0.000 A 
ATOM     22  C   UNL     1      46.228   4.056   7.807  0.00  0.00    +0.000 A 
ATOM     23  C   UNL     1      46.532   2.726   7.583  0.00  0.00    +0.000 A 
ATOM     24  N   UNL     1      45.975   1.695   8.276  0.00  0.00    +0.000 NA
ATOM     25  C   UNL     1      45.074   2.039   9.231  0.00  0.00    +0.000 A 
BRANCH  23  26
ATOM     26  C   UNL     1      47.553   2.373   6.546  0.00  0.00    +0.000 C 
ATOM     27  N   UNL     1      47.434   3.039   5.358  0.00  0.00    +0.000 N 
ATOM     28  O   UNL     1      48.433   1.544   6.735  0.00  0.00    +0.000 OA
ATOM     29  H   UNL     1      46.674   3.699   5.232  0.00  0.00    +0.000 HD
ATOM     30  H   UNL     1      48.065   2.825   4.601  0.00  0.00    +0.000 HD
ENDBRANCH  23  26
ENDBRANCH  18  20
ENDBRANCH  17  18
ENDBRANCH  16  17
ENDBRANCH   5  16
TORSDOF 7
ENDMDL
MODEL 4
REMARK VINA RESULT:    -7.356      1.683      2.286
REMARK INTER + INTRA:         -11.247
REMARK INTER:                 -10.354
REMARK INTRA:                  -0.893
REMARK UNBOUND:                -1.095
REMARK  Name = 
REMARK  8 active torsions:
REMARK  status: ('A' for Active; 'I' for Inactive)
REMARK    1  A    between atoms: C_1  and  C_2
REMARK    2  A    between atoms: C_2  and  C_3
REMARK    3  A    between atoms: C_7  and  C_8
REMARK    4  A    between atoms: C_8  and  C_9
REMARK    5  A    between atoms: C_9  and  N_10
REMARK    6  A    between atoms: N_10  and  C_11
REMARK    7  A    between atoms: C_14  and  C_15
REMARK    8  A    between atoms: C_23  and  O_24
REMARK                            x       y       z     vdW  Elec       q    Type
REMARK                         _______ _______ _______ _____ _____    ______ ____
ROOT
ATOM      1  C   UNL     1      45.900   7.741  12.336  0.00  0.00    +0.000 A 
ATOM      2  C   UNL     1      45.009   8.441  11.508  0.00  0.00    +0.000 A 
ATOM      3  C   UNL     1      43.778   7.887  11.137  0.00  0.00    +0.000 A 
ATOM      4  C   UNL     1      43.409   6.613  11.577  0.00  0.00    +0.000 A 
ATOM      5  C   UNL     1      44.263   5.886  12.410  0.00  0.00    +0.000 A 
ATOM      6  C   UNL     1      45.483   6.479  12.788  0.00  0.00    +0.000 A 
ENDROOT
BRANCH   1   8
ATOM      7  C   UNL     1      47.414   9.674  11.973  0.00  0.00    +0.000 C 
ATOM      8  C   UNL     1      47.312   8.291  12.661  0.00  0.00    +0.000 C 
ATOM      9  C   UNL     1      47.493   8.425  14.196  0.00  0.00    +0.000 C 
ATOM     10  C   UNL     1      48.904   8.846  14.625  0.00  0.00    +0.000 C 
ATOM     11  C   UNL     1      50.003   7.964  14.038  0.00  0.00    +0.000 C 
ATOM     12  C   UNL     1      49.867   7.809  12.527  0.00  0.00    +0.000 C 
ATOM     13  C   UNL     1      48.458   7.381  12.116  0.00  0.00    +0.000 C 
BRANCH  11  14
ATOM     14  O   UNL     1      49.995   6.683  14.660  0.00  0.00    +0.000 OA
ATOM     15  H   UNL     1      49.972   6.797  15.623  0.00  0.00    +0.000 HD
ENDBRANCH  11  14
ENDBRANCH   1   8
BRANCH   5  16
ATOM     16  C   UNL     1      43.879   4.478  12.845  0.00  0.00    +0.000 C 
BRANCH  16  17
ATOM     17  C   UNL     1      44.430   3.384  11.918  0.00  0.00    +0.000 C 
BRANCH  17  18
ATOM     18  N   UNL     1      43.893   3.427  10.558  0.00  0.00    +0.000 N 
ATOM     19  H   UNL     1      43.409   4.304  10.365  0.00  0.00    +0.000 HD
BRANCH  18  20
ATOM     20  C   UNL     1      44.833   3.131   9.544  0.00  0.00    +0.000 A 
ATOM     21  C   UNL     1      45.177   1.824   9.173  0.00  0.00    +0.000 A 
ATOM     22  C   UNL     1      46.053   1.584   8.115  0.00  0.00    +0.000 A 
ATOM     23  C   UNL     1      46.547   2.672   7.419  0.00  0.00    +0.000 A 
ATOM     24  N   UNL     1      46.226   3.964   7.707  0.00  0.00    +0.000 NA
ATOM     25  C   UNL     1      45.370   4.147   8.745  0.00  0.00    +0.000 A 
BRANCH  23  26
ATOM     26  C   UNL     1      47.465   2.443   6.259  0.00  0.00    +0.000 C 
ATOM     27  N   UNL     1      47.236   3.232   5.167  0.00  0.00    +0.000 N 
ATOM     28  O   UNL     1      48.357   1.605   6.272  0.00  0.00    +0.000 OA
ATOM     29  H   UNL     1      46.469   3.896   5.186  0.00  0.00    +0.000 HD
ATOM     30  H   UNL     1      47.792   3.107   4.336  0.00  0.00    +0.000 HD
ENDBRANCH  23  26
ENDBRANCH  18  20
ENDBRANCH  17  18
ENDBRANCH  16  17
ENDBRANCH   5  16
TORSDOF 7
ENDMDL
MODEL 5
REMARK VINA RESULT:    -7.254      2.277      3.187
REMARK INTER + INTRA:         -11.105
REMARK INTER:                 -10.086
REMARK INTRA:                  -1.019
REMARK UNBOUND:                -1.095
REMARK  Name = 
REMARK  8 active torsions:
REMARK  status: ('A' for Active; 'I' for Inactive)
REMARK    1  A    between atoms: C_1  and  C_2
REMARK    2  A    between atoms: C_2  and  C_3
REMARK    3  A    between atoms: C_7  and  C_8
REMARK    4  A    between atoms: C_8  and  C_9
REMARK    5  A    between atoms: C_9  and  N_10
REMARK    6  A    between atoms: N_10  and  C_11
REMARK    7  A    between atoms: C_14  and  C_15
REMARK    8  A    between atoms: C_23  and  O_24
REMARK                            x       y       z     vdW  Elec       q    Type
REMARK                         _______ _______ _______ _____ _____    ______ ____
ROOT
ATOM      1  C   UNL     1      48.303   7.380  13.825  0.00  0.00    +0.000 A 
ATOM      2  C   UNL     1      48.971   7.770  12.654  0.00  0.00    +0.000 A 
ATOM      3  C   UNL     1      48.435   7.497  11.390  0.00  0.00    +0.000 A 
ATOM      4  C   UNL     1      47.220   6.818  11.264  0.00  0.00    +0.000 A 
ATOM      5  C   UNL     1      46.519   6.420  12.404  0.00  0.00    +0.000 A 
ATOM      6  C   UNL     1      47.069   6.730  13.662  0.00  0.00    +0.000 A 
ENDROOT
BRANCH   1   8
ATOM      7  C   UNL     1      50.448   7.820  14.995  0.00  0.00    +0.000 C 
ATOM      8  C   UNL     1      48.937   7.572  15.226  0.00  0.00    +0.000 C 
ATOM      9  C   UNL     1      48.285   8.781  15.947  0.00  0.00    +0.000 C 
ATOM     10  C   UNL     1      48.760   8.979  17.392  0.00  0.00    +0.000 C 
ATOM     11  C   UNL     1      48.632   7.721  18.248  0.00  0.00    +0.000 C 
ATOM     12  C   UNL     1      49.265   6.506  17.579  0.00  0.00    +0.000 C 
ATOM     13  C   UNL     1      48.776   6.318  16.143  0.00  0.00    +0.000 C 
BRANCH  11  14
ATOM     14  O   UNL     1      47.262   7.457  18.537  0.00  0.00    +0.000 OA
ATOM     15  H   UNL     1      46.846   7.053  17.759  0.00  0.00    +0.000 HD
ENDBRANCH  11  14
ENDBRANCH   1   8
BRANCH   5  16
ATOM     16  C   UNL     1      45.221   5.634  12.261  0.00  0.00    +0.000 C 
BRANCH  16  17
ATOM     17  C   UNL     1      44.556   5.805  10.887  0.00  0.00    +0.000 C 
BRANCH  17  18
ATOM     18  N   UNL     1      43.968   4.577  10.352  0.00  0.00    +0.000 N 
ATOM     19  H   UNL     1      43.026   4.729   9.993  0.00  0.00    +0.000 HD
BRANCH  18  20
ATOM     20  C   UNL     1      44.772   3.904   9.403  0.00  0.00    +0.000 A 
ATOM     21  C   UNL     1      45.595   4.569   8.484  0.00  0.00    +0.000 A 
ATOM     22  C   UNL     1      46.427   3.859   7.619  0.00  0.00    +0.000 A 
ATOM     23  C   UNL     1      46.443   2.479   7.718  0.00  0.00    +0.000 A 
ATOM     24  N   UNL     1      45.695   1.775   8.612  0.00  0.00    +0.000 NA
ATOM     25  C   UNL     1      44.901   2.511   9.432  0.00  0.00    +0.000 A 
BRANCH  23  26
ATOM     26  C   UNL     1      47.351   1.693   6.824  0.00  0.00    +0.000 C 
ATOM     27  N   UNL     1      48.366   2.405   6.248  0.00  0.00    +0.000 N 
ATOM     28  O   UNL     1      47.200   0.497   6.610  0.00  0.00    +0.000 OA
ATOM     29  H   UNL     1      48.439   3.400   6.430  0.00  0.00    +0.000 HD
ATOM     30  H   UNL     1      48.994   1.947   5.606  0.00  0.00    +0.000 HD
ENDBRANCH  23  26
ENDBRANCH  18  20
ENDBRANCH  17  18
ENDBRANCH  16  17
ENDBRANCH   5  16
TORSDOF 7
ENDMDL
MODEL 6
REMARK VINA RESULT:    -7.124      4.521      7.641
REMARK INTER + INTRA:         -10.926
REMARK INTER:                  -9.339
REMARK INTRA:                  -1.587
REMARK UNBOUND:                -1.095
REMARK  Name = 
REMARK  8 active torsions:
REMARK  status: ('A' for Active; 'I' for Inactive)
REMARK    1  A    between atoms: C_1  and  C_2
REMARK    2  A    between atoms: C_2  and  C_3
REMARK    3  A    between atoms: C_7  and  C_8
REMARK    4  A    between atoms: C_8  and  C_9
REMARK    5  A    between atoms: C_9  and  N_10
REMARK    6  A    between atoms: N_10  and  C_11
REMARK    7  A    between atoms: C_14  and  C_15
REMARK    8  A    between atoms: C_23  and  O_24
REMARK                            x       y       z     vdW  Elec       q    Type
REMARK                         _______ _______ _______ _____ _____    ______ ____
ROOT
ATOM      1  C   UNL     1      45.804   7.214  11.662  0.00  0.00    +0.000 A 
ATOM      2  C   UNL     1      44.971   8.338  11.784  0.00  0.00    +0.000 A 
ATOM      3  C   UNL     1      45.490   9.589  12.136  0.00  0.00    +0.000 A 
ATOM      4  C   UNL     1      46.856   9.749  12.384  0.00  0.00    +0.000 A 
ATOM      5  C   UNL     1      47.721   8.659  12.265  0.00  0.00    +0.000 A 
ATOM      6  C   UNL     1      47.175   7.418  11.884  0.00  0.00    +0.000 A 
ENDROOT
BRANCH   1   8
ATOM      7  C   UNL     1      45.619   5.444   9.931  0.00  0.00    +0.000 C 
ATOM      8  C   UNL     1      45.230   5.801  11.387  0.00  0.00    +0.000 C 
ATOM      9  C   UNL     1      45.830   4.777  12.384  0.00  0.00    +0.000 C 
ATOM     10  C   UNL     1      45.230   3.369  12.273  0.00  0.00    +0.000 C 
ATOM     11  C   UNL     1      43.706   3.354  12.352  0.00  0.00    +0.000 C 
ATOM     12  C   UNL     1      43.072   4.345  11.382  0.00  0.00    +0.000 C 
ATOM     13  C   UNL     1      43.674   5.744  11.512  0.00  0.00    +0.000 C 
BRANCH  11  14
ATOM     14  O   UNL     1      43.276   3.634  13.681  0.00  0.00    +0.000 OA
ATOM     15  H   UNL     1      43.592   4.515  13.938  0.00  0.00    +0.000 HD
ENDBRANCH  11  14
ENDBRANCH   1   8
BRANCH   5  16
ATOM     16  C   UNL     1      49.200   8.827  12.586  0.00  0.00    +0.000 C 
BRANCH  16  17
ATOM     17  C   UNL     1      49.793   7.639  13.358  0.00  0.00    +0.000 C 
BRANCH  17  18
ATOM     18  N   UNL     1      49.800   7.813  14.811  0.00  0.00    +0.000 N 
ATOM     19  H   UNL     1      49.437   8.724  15.088  0.00  0.00    +0.000 HD
BRANCH  18  20
ATOM     20  C   UNL     1      49.170   6.773  15.531  0.00  0.00    +0.000 A 
ATOM     21  C   UNL     1      48.134   5.990  15.003  0.00  0.00    +0.000 A 
ATOM     22  C   UNL     1      47.597   4.926  15.727  0.00  0.00    +0.000 A 
ATOM     23  C   UNL     1      48.138   4.643  16.968  0.00  0.00    +0.000 A 
ATOM     24  N   UNL     1      49.166   5.343  17.523  0.00  0.00    +0.000 NA
ATOM     25  C   UNL     1      49.656   6.369  16.781  0.00  0.00    +0.000 A 
BRANCH  23  26
ATOM     26  C   UNL     1      47.602   3.486  17.753  0.00  0.00    +0.000 C 
ATOM     27  N   UNL     1      48.319   3.154  18.869  0.00  0.00    +0.000 N 
ATOM     28  O   UNL     1      46.597   2.869  17.425  0.00  0.00    +0.000 OA
ATOM     29  H   UNL     1      49.162   3.674  19.090  0.00  0.00    +0.000 HD
ATOM     30  H   UNL     1      48.037   2.363  19.425  0.00  0.00    +0.000 HD
ENDBRANCH  23  26
ENDBRANCH  18  20
ENDBRANCH  17  18
ENDBRANCH  16  17
ENDBRANCH   5  16
TORSDOF 7
ENDMDL
MODEL 7
REMARK VINA RESULT:    -7.121      3.510      7.652
REMARK INTER + INTRA:         -10.922
REMARK INTER:                 -10.130
REMARK INTRA:                  -0.791
REMARK UNBOUND:                -1.095
REMARK  Name = 
REMARK  8 active torsions:
REMARK  status: ('A' for Active; 'I' for Inactive)
REMARK    1  A    between atoms: C_1  and  C_2
REMARK    2  A    between atoms: C_2  and  C_3
REMARK    3  A    between atoms: C_7  and  C_8
REMARK    4  A    between atoms: C_8  and  C_9
REMARK    5  A    between atoms: C_9  and  N_10
REMARK    6  A    between atoms: N_10  and  C_11
REMARK    7  A    between atoms: C_14  and  C_15
REMARK    8  A    between atoms: C_23  and  O_24
REMARK                            x       y       z     vdW  Elec       q    Type
REMARK                         _______ _______ _______ _____ _____    ______ ____
ROOT
ATOM      1  C   UNL     1      45.205   3.798   9.501  0.00  0.00    +0.000 A 
ATOM      2  C   UNL     1      44.512   3.130  10.523  0.00  0.00    +0.000 A 
ATOM      3  C   UNL     1      44.301   3.733  11.769  0.00  0.00    +0.000 A 
ATOM      4  C   UNL     1      44.785   5.018  12.029  0.00  0.00    +0.000 A 
ATOM      5  C   UNL     1      45.472   5.721  11.036  0.00  0.00    +0.000 A 
ATOM      6  C   UNL     1      45.647   5.099   9.785  0.00  0.00    +0.000 A 
ENDROOT
BRANCH   1   8
ATOM      7  C   UNL     1      44.197   2.833   7.448  0.00  0.00    +0.000 C 
ATOM      8  C   UNL     1      45.546   3.101   8.159  0.00  0.00    +0.000 C 
ATOM      9  C   UNL     1      46.451   4.019   7.296  0.00  0.00    +0.000 C 
ATOM     10  C   UNL     1      46.945   3.367   5.998  0.00  0.00    +0.000 C 
ATOM     11  C   UNL     1      47.619   2.015   6.219  0.00  0.00    +0.000 C 
ATOM     12  C   UNL     1      46.760   1.078   7.060  0.00  0.00    +0.000 C 
ATOM     13  C   UNL     1      46.283   1.738   8.354  0.00  0.00    +0.000 C 
BRANCH  11  14
ATOM     14  O   UNL     1      48.892   2.191   6.835  0.00  0.00    +0.000 OA
ATOM     15  H   UNL     1      48.914   3.055   7.276  0.00  0.00    +0.000 HD
ENDBRANCH  11  14
ENDBRANCH   1   8
BRANCH   5  16
ATOM     16  C   UNL     1      46.043   7.100  11.341  0.00  0.00    +0.000 C 
BRANCH  16  17
ATOM     17  C   UNL     1      46.498   7.261  12.799  0.00  0.00    +0.000 C 
BRANCH  17  18
ATOM     18  N   UNL     1      47.789   6.637  13.094  0.00  0.00    +0.000 N 
ATOM     19  H   UNL     1      48.547   7.318  13.113  0.00  0.00    +0.000 HD
BRANCH  18  20
ATOM     20  C   UNL     1      47.801   5.829  14.254  0.00  0.00    +0.000 A 
ATOM     21  C   UNL     1      48.412   6.217  15.454  0.00  0.00    +0.000 A 
ATOM     22  C   UNL     1      48.331   5.416  16.593  0.00  0.00    +0.000 A 
ATOM     23  C   UNL     1      47.600   4.245  16.515  0.00  0.00    +0.000 A 
ATOM     24  N   UNL     1      46.955   3.828  15.391  0.00  0.00    +0.000 NA
ATOM     25  C   UNL     1      47.063   4.641  14.308  0.00  0.00    +0.000 A 
BRANCH  23  26
ATOM     26  C   UNL     1      47.470   3.382  17.732  0.00  0.00    +0.000 C 
ATOM     27  N   UNL     1      48.278   3.722  18.780  0.00  0.00    +0.000 N 
ATOM     28  O   UNL     1      46.702   2.431  17.792  0.00  0.00    +0.000 OA
ATOM     29  H   UNL     1      48.920   4.501  18.680  0.00  0.00    +0.000 HD
ATOM     30  H   UNL     1      48.269   3.163  19.618  0.00  0.00    +0.000 HD
ENDBRANCH  23  26
ENDBRANCH  18  20
ENDBRANCH  17  18
ENDBRANCH  16  17
ENDBRANCH   5  16
TORSDOF 7
ENDMDL
MODEL 8
REMARK VINA RESULT:    -6.841      4.664      7.986
REMARK INTER + INTRA:         -10.536
REMARK INTER:                  -9.654
REMARK INTRA:                  -0.881
REMARK UNBOUND:                -1.095
REMARK  Name = 
REMARK  8 active torsions:
REMARK  status: ('A' for Active; 'I' for Inactive)
REMARK    1  A    between atoms: C_1  and  C_2
REMARK    2  A    between atoms: C_2  and  C_3
REMARK    3  A    between atoms: C_7  and  C_8
REMARK    4  A    between atoms: C_8  and  C_9
REMARK    5  A    between atoms: C_9  and  N_10
REMARK    6  A    between atoms: N_10  and  C_11
REMARK    7  A    between atoms: C_14  and  C_15
REMARK    8  A    between atoms: C_23  and  O_24
REMARK                            x       y       z     vdW  Elec       q    Type
REMARK                         _______ _______ _______ _____ _____    ______ ____
ROOT
ATOM      1  C   UNL     1      45.657   6.064  11.709  0.00  0.00    +0.000 A 
ATOM      2  C   UNL     1      45.407   7.445  11.700  0.00  0.00    +0.000 A 
ATOM      3  C   UNL     1      46.133   8.317  12.520  0.00  0.00    +0.000 A 
ATOM      4  C   UNL     1      47.123   7.830  13.377  0.00  0.00    +0.000 A 
ATOM      5  C   UNL     1      47.409   6.464  13.411  0.00  0.00    +0.000 A 
ATOM      6  C   UNL     1      46.681   5.613  12.557  0.00  0.00    +0.000 A 
ENDROOT
BRANCH   1   8
ATOM      7  C   UNL     1      43.327   5.580  11.004  0.00  0.00    +0.000 C 
ATOM      8  C   UNL     1      44.786   5.074  10.894  0.00  0.00    +0.000 C 
ATOM      9  C   UNL     1      45.250   5.047   9.415  0.00  0.00    +0.000 C 
ATOM     10  C   UNL     1      44.529   4.004   8.552  0.00  0.00    +0.000 C 
ATOM     11  C   UNL     1      44.568   2.597   9.144  0.00  0.00    +0.000 C 
ATOM     12  C   UNL     1      44.114   2.576  10.599  0.00  0.00    +0.000 C 
ATOM     13  C   UNL     1      44.848   3.614  11.447  0.00  0.00    +0.000 C 
BRANCH  11  14
ATOM     14  O   UNL     1      45.879   2.052   9.037  0.00  0.00    +0.000 OA
ATOM     15  H   UNL     1      46.361   2.219   9.863  0.00  0.00    +0.000 HD
ENDBRANCH  11  14
ENDBRANCH   1   8
BRANCH   5  16
ATOM     16  C   UNL     1      48.452   5.931  14.385  0.00  0.00    +0.000 C 
BRANCH  16  17
ATOM     17  C   UNL     1      48.180   6.326  15.844  0.00  0.00    +0.000 C 
BRANCH  17  18
ATOM     18  N   UNL     1      47.732   5.219  16.689  0.00  0.00    +0.000 N 
ATOM     19  H   UNL     1      46.893   4.773  16.321  0.00  0.00    +0.000 HD
BRANCH  18  20
ATOM     20  C   UNL     1      48.730   4.262  16.983  0.00  0.00    +0.000 A 
ATOM     21  C   UNL     1      48.595   2.897  16.695  0.00  0.00    +0.000 A 
ATOM     22  C   UNL     1      49.640   2.006  16.936  0.00  0.00    +0.000 A 
ATOM     23  C   UNL     1      50.826   2.511  17.436  0.00  0.00    +0.000 A 
ATOM     24  N   UNL     1      51.033   3.830  17.705  0.00  0.00    +0.000 NA
ATOM     25  C   UNL     1      49.988   4.659  17.454  0.00  0.00    +0.000 A 
BRANCH  23  26
ATOM     26  C   UNL     1      51.975   1.581  17.674  0.00  0.00    +0.000 C 
ATOM     27  N   UNL     1      51.634   0.323  18.084  0.00  0.00    +0.000 N 
ATOM     28  O   UNL     1      53.143   1.915  17.523  0.00  0.00    +0.000 OA
ATOM     29  H   UNL     1      50.655   0.094  18.223  0.00  0.00    +0.000 HD
ATOM     30  H   UNL     1      52.358  -0.345  18.298  0.00  0.00    +0.000 HD
ENDBRANCH  23  26
ENDBRANCH  18  20
ENDBRANCH  17  18
ENDBRANCH  16  17
ENDBRANCH   5  16
TORSDOF 7
ENDMDL
MODEL 9
REMARK VINA RESULT:    -6.750      3.403      5.764
REMARK INTER + INTRA:         -10.411
REMARK INTER:                  -9.146
REMARK INTRA:                  -1.264
REMARK UNBOUND:                -1.095
REMARK  Name = 
REMARK  8 active torsions:
REMARK  status: ('A' for Active; 'I' for Inactive)
REMARK    1  A    between atoms: C_1  and  C_2
REMARK    2  A    between atoms: C_2  and  C_3
REMARK    3  A    between atoms: C_7  and  C_8
REMARK    4  A    between atoms: C_8  and  C_9
REMARK    5  A    between atoms: C_9  and  N_10
REMARK    6  A    between atoms: N_10  and  C_11
REMARK    7  A    between atoms: C_14  and  C_15
REMARK    8  A    between atoms: C_23  and  O_24
REMARK                            x       y       z     vdW  Elec       q    Type
REMARK                         _______ _______ _______ _____ _____    ______ ____
ROOT
ATOM      1  C   UNL     1      49.119   6.728  16.099  0.00  0.00    +0.000 A 
ATOM      2  C   UNL     1      49.621   7.920  16.646  0.00  0.00    +0.000 A 
ATOM      3  C   UNL     1      49.875   9.036  15.840  0.00  0.00    +0.000 A 
ATOM      4  C   UNL     1      49.643   8.987  14.463  0.00  0.00    +0.000 A 
ATOM      5  C   UNL     1      49.136   7.824  13.880  0.00  0.00    +0.000 A 
ATOM      6  C   UNL     1      48.866   6.726  14.718  0.00  0.00    +0.000 A 
ENDROOT
BRANCH   1   8
ATOM      7  C   UNL     1      48.531   5.924  18.373  0.00  0.00    +0.000 C 
ATOM      8  C   UNL     1      48.942   5.450  16.957  0.00  0.00    +0.000 C 
ATOM      9  C   UNL     1      47.847   4.541  16.341  0.00  0.00    +0.000 C 
ATOM     10  C   UNL     1      47.683   3.190  17.051  0.00  0.00    +0.000 C 
ATOM     11  C   UNL     1      48.992   2.419  17.193  0.00  0.00    +0.000 C 
ATOM     12  C   UNL     1      50.098   3.275  17.800  0.00  0.00    +0.000 C 
ATOM     13  C   UNL     1      50.255   4.612  17.077  0.00  0.00    +0.000 C 
BRANCH  11  14
ATOM     14  O   UNL     1      49.409   1.914  15.927  0.00  0.00    +0.000 OA
ATOM     15  H   UNL     1      49.269   0.954  15.906  0.00  0.00    +0.000 HD
ENDBRANCH  11  14
ENDBRANCH   1   8
BRANCH   5  16
ATOM     16  C   UNL     1      48.934   7.758  12.371  0.00  0.00    +0.000 C 
BRANCH  16  17
ATOM     17  C   UNL     1      47.532   8.200  11.926  0.00  0.00    +0.000 C 
BRANCH  17  18
ATOM     18  N   UNL     1      46.451   7.700  12.776  0.00  0.00    +0.000 N 
ATOM     19  H   UNL     1      45.715   8.393  12.906  0.00  0.00    +0.000 HD
BRANCH  18  20
ATOM     20  C   UNL     1      45.914   6.455  12.375  0.00  0.00    +0.000 A 
ATOM     21  C   UNL     1      45.724   5.380  13.254  0.00  0.00    +0.000 A 
ATOM     22  C   UNL     1      45.120   4.199  12.825  0.00  0.00    +0.000 A 
ATOM     23  C   UNL     1      44.682   4.130  11.515  0.00  0.00    +0.000 A 
ATOM     24  N   UNL     1      44.804   5.149  10.621  0.00  0.00    +0.000 NA
ATOM     25  C   UNL     1      45.398   6.279  11.085  0.00  0.00    +0.000 A 
BRANCH  23  26
ATOM     26  C   UNL     1      44.001   2.885  11.037  0.00  0.00    +0.000 C 
ATOM     27  N   UNL     1      44.615   2.246   9.995  0.00  0.00    +0.000 N 
ATOM     28  O   UNL     1      42.964   2.463  11.530  0.00  0.00    +0.000 OA
ATOM     29  H   UNL     1      45.459   2.644   9.597  0.00  0.00    +0.000 HD
ATOM     30  H   UNL     1      44.192   1.422   9.598  0.00  0.00    +0.000 HD
ENDBRANCH  23  26
ENDBRANCH  18  20
ENDBRANCH  17  18
ENDBRANCH  16  17
ENDBRANCH   5  16
TORSDOF 7
ENDMDL
