MODEL 1
REMARK VINA RESULT:    -7.944      0.000      0.000
REMARK INTER + INTRA:         -10.283
REMARK INTER:                  -9.801
REMARK INTRA:                  -0.482
REMARK UNBOUND:                -0.482
REMARK  Name = 
REMARK  5 active torsions:
REMARK  status: ('A' for Active; 'I' for Inactive)
REMARK    1  A    between atoms: C_1  and  C_2
REMARK    2  A    between atoms: C_4  and  C_5
REMARK    3  A    between atoms: N_10  and  C_11
REMARK    4  A    between atoms: C_11  and  C_12
REMARK    5  A    between atoms: C_16  and  N_17
REMARK                            x       y       z     vdW  Elec       q    Type
REMARK                         _______ _______ _______ _____ _____    ______ ____
ROOT
ATOM      1  C   UNL     1      47.597   5.672  19.409  0.00  0.00    +0.000 C 
ATOM      2  C   UNL     1      47.834   4.813  18.206  0.00  0.00    +0.000 A 
ATOM      3  C   UNL     1      48.854   3.896  18.179  0.00  0.00    +0.000 A 
ATOM      4  C   UNL     1      48.953   3.167  17.016  0.00  0.00    +0.000 A 
ATOM      5  N   UNL     1      48.120   3.295  15.950  0.00  0.00    +0.000 NA
ATOM      6  C   UNL     1      47.141   4.196  16.082  0.00  0.00    +0.000 A 
ATOM      7  N   UNL     1      46.168   4.349  15.111  0.00  0.00    +0.000 N 
ATOM      8  N   UNL     1      46.988   4.972  17.165  0.00  0.00    +0.000 NA
ATOM      9  H   UNL     1      45.697   5.229  15.285  0.00  0.00    +0.000 HD
ENDROOT
BRANCH   4  10
ATOM     10  C   UNL     1      50.039   2.140  16.911  0.00  0.00    +0.000 C 
ATOM     11  N   UNL     1      50.849   2.023  18.009  0.00  0.00    +0.000 N 
ATOM     12  O   UNL     1      50.200   1.449  15.917  0.00  0.00    +0.000 OA
ATOM     13  H   UNL     1      50.713   2.632  18.805  0.00  0.00    +0.000 HD
ATOM     14  H   UNL     1      51.618   1.370  17.987  0.00  0.00    +0.000 HD
ENDBRANCH   4  10
BRANCH   7  15
ATOM     15  C   UNL     1      46.561   4.108  13.743  0.00  0.00    +0.000 C 
BRANCH  15  16
ATOM     16  C   UNL     1      45.359   4.207  12.824  0.00  0.00    +0.000 A 
ATOM     17  C   UNL     1      44.202   4.893  13.205  0.00  0.00    +0.000 A 
ATOM     18  C   UNL     1      43.145   5.030  12.303  0.00  0.00    +0.000 A 
ATOM     19  C   UNL     1      43.245   4.489  11.020  0.00  0.00    +0.000 A 
ATOM     20  C   UNL     1      44.376   3.774  10.605  0.00  0.00    +0.000 A 
ATOM     21  C   UNL     1      45.410   3.622  11.544  0.00  0.00    +0.000 A 
BRANCH  20  22
ATOM     22  N   UNL     1      44.445   3.237   9.333  0.00  0.00    +0.000 N 
ATOM     23  C   UNL     1      44.661   1.804   9.088  0.00  0.00    +0.000 C 
ATOM     24  C   UNL     1      46.033   1.554   8.451  0.00  0.00    +0.000 C 
ATOM     25  O   UNL     1      46.212   2.340   7.261  0.00  0.00    +0.000 OA
ATOM     26  C   UNL     1      46.121   3.739   7.579  0.00  0.00    +0.000 C 
ATOM     27  C   UNL     1      44.753   4.106   8.181  0.00  0.00    +0.000 C 
ENDBRANCH  20  22
ENDBRANCH  15  16
ENDBRANCH   7  15
TORSDOF 4
ENDMDL
MODEL 2
REMARK VINA RESULT:    -7.898      2.265      3.315
REMARK INTER + INTRA:         -10.227
REMARK INTER:                  -9.571
REMARK INTRA:                  -0.656
REMARK UNBOUND:                -0.482
REMARK  Name = 
REMARK  5 active torsions:
REMARK  status: ('A' for Active; 'I' for Inactive)
REMARK    1  A    between atoms: C_1  and  C_2
REMARK    2  A    between atoms: C_4  and  C_5
REMARK    3  A    between atoms: N_10  and  C_11
REMARK    4  A    between atoms: C_11  and  C_12
REMARK    5  A    between atoms: C_16  and  N_17
REMARK                            x       y       z     vdW  Elec       q    Type
REMARK                         _______ _______ _______ _____ _____    ______ ____
ROOT
ATOM      1  C   UNL     1      48.274   5.271  20.653  0.00  0.00    +0.000 C 
ATOM      2  C   UNL     1      48.595   4.970  19.221  0.00  0.00    +0.000 A 
ATOM      3  C   UNL     1      49.084   3.744  18.848  0.00  0.00    +0.000 A 
ATOM      4  C   UNL     1      49.328   3.599  17.501  0.00  0.00    +0.000 A 
ATOM      5  N   UNL     1      49.103   4.560  16.567  0.00  0.00    +0.000 NA
ATOM      6  C   UNL     1      48.601   5.711  17.025  0.00  0.00    +0.000 A 
ATOM      7  N   UNL     1      48.233   6.730  16.165  0.00  0.00    +0.000 N 
ATOM      8  N   UNL     1      48.363   5.952  18.323  0.00  0.00    +0.000 NA
ATOM      9  H   UNL     1      48.127   7.573  16.717  0.00  0.00    +0.000 HD
ENDROOT
BRANCH   4  10
ATOM     10  C   UNL     1      49.858   2.286  17.012  0.00  0.00    +0.000 C 
ATOM     11  N   UNL     1      50.861   1.736  17.766  0.00  0.00    +0.000 N 
ATOM     12  O   UNL     1      49.432   1.734  16.009  0.00  0.00    +0.000 OA
ATOM     13  H   UNL     1      51.216   2.231  18.572  0.00  0.00    +0.000 HD
ATOM     14  H   UNL     1      51.280   0.867  17.470  0.00  0.00    +0.000 HD
ENDBRANCH   4  10
BRANCH   7  15
ATOM     15  C   UNL     1      48.995   6.868  14.948  0.00  0.00    +0.000 C 
BRANCH  15  16
ATOM     16  C   UNL     1      48.090   6.720  13.740  0.00  0.00    +0.000 A 
ATOM     17  C   UNL     1      48.337   7.412  12.551  0.00  0.00    +0.000 A 
ATOM     18  C   UNL     1      47.527   7.192  11.436  0.00  0.00    +0.000 A 
ATOM     19  C   UNL     1      46.475   6.278  11.504  0.00  0.00    +0.000 A 
ATOM     20  C   UNL     1      46.177   5.580  12.681  0.00  0.00    +0.000 A 
ATOM     21  C   UNL     1      46.987   5.846  13.798  0.00  0.00    +0.000 A 
BRANCH  20  22
ATOM     22  N   UNL     1      45.121   4.688  12.726  0.00  0.00    +0.000 N 
ATOM     23  C   UNL     1      45.206   3.330  12.172  0.00  0.00    +0.000 C 
ATOM     24  C   UNL     1      44.299   3.177  10.945  0.00  0.00    +0.000 C 
ATOM     25  O   UNL     1      42.945   3.558  11.242  0.00  0.00    +0.000 OA
ATOM     26  C   UNL     1      42.902   4.935  11.654  0.00  0.00    +0.000 C 
ATOM     27  C   UNL     1      43.746   5.185  12.917  0.00  0.00    +0.000 C 
ENDBRANCH  20  22
ENDBRANCH  15  16
ENDBRANCH   7  15
TORSDOF 4
ENDMDL
MODEL 3
REMARK VINA RESULT:    -7.285      2.699      3.125
REMARK INTER + INTRA:          -9.470
REMARK INTER:                  -8.788
REMARK INTRA:                  -0.682
REMARK UNBOUND:                -0.482
REMARK  Name = 
REMARK  5 active torsions:
REMARK  status: ('A' for Active; 'I' for Inactive)
REMARK    1  A    between atoms: C_1  and  C_2
REMARK    2  A    between atoms: C_4  and  C_5
REMARK    3  A    between atoms: N_10  and  C_11
REMARK    4  A    between atoms: C_11  and  C_12
REMARK    5  A    between atoms: C_16  and  N_17
REMARK                            x       y       z     vdW  Elec       q    Type
REMARK                         _______ _______ _______ _____ _____    ______ ____
ROOT
ATOM      1  C   UNL     1      50.465   6.974  18.633  0.00  0.00    +0.000 C 
ATOM      2  C   UNL     1      49.640   6.290  17.586  0.00  0.00    +0.000 A 
ATOM      3  C   UNL     1      49.108   5.045  17.805  0.00  0.00    +0.000 A 
ATOM      4  C   UNL     1      48.364   4.537  16.764  0.00  0.00    +0.000 A 
ATOM      5  N   UNL     1      48.130   5.185  15.593  0.00  0.00    +0.000 NA
ATOM      6  C   UNL     1      48.669   6.404  15.484  0.00  0.00    +0.000 A 
ATOM      7  N   UNL     1      48.421   7.206  14.385  0.00  0.00    +0.000 N 
ATOM      8  N   UNL     1      49.434   6.964  16.434  0.00  0.00    +0.000 NA
ATOM      9  H   UNL     1      49.109   7.949  14.387  0.00  0.00    +0.000 HD
ENDROOT
BRANCH   4  10
ATOM     10  C   UNL     1      47.743   3.183  16.928  0.00  0.00    +0.000 C 
ATOM     11  N   UNL     1      48.497   2.130  16.482  0.00  0.00    +0.000 N 
ATOM     12  O   UNL     1      46.640   3.019  17.425  0.00  0.00    +0.000 OA
ATOM     13  H   UNL     1      49.392   2.299  16.045  0.00  0.00    +0.000 HD
ATOM     14  H   UNL     1      48.120   1.196  16.537  0.00  0.00    +0.000 HD
ENDBRANCH   4  10
BRANCH   7  15
ATOM     15  C   UNL     1      48.217   6.542  13.121  0.00  0.00    +0.000 C 
BRANCH  15  16
ATOM     16  C   UNL     1      46.860   6.904  12.549  0.00  0.00    +0.000 A 
ATOM     17  C   UNL     1      46.425   8.231  12.481  0.00  0.00    +0.000 A 
ATOM     18  C   UNL     1      45.203   8.534  11.877  0.00  0.00    +0.000 A 
ATOM     19  C   UNL     1      44.418   7.515  11.335  0.00  0.00    +0.000 A 
ATOM     20  C   UNL     1      44.805   6.170  11.401  0.00  0.00    +0.000 A 
ATOM     21  C   UNL     1      46.022   5.890  12.045  0.00  0.00    +0.000 A 
BRANCH  20  22
ATOM     22  N   UNL     1      44.003   5.177  10.868  0.00  0.00    +0.000 N 
ATOM     23  C   UNL     1      42.983   4.472  11.658  0.00  0.00    +0.000 C 
ATOM     24  C   UNL     1      43.367   3.002  11.867  0.00  0.00    +0.000 C 
ATOM     25  O   UNL     1      43.635   2.345  10.616  0.00  0.00    +0.000 OA
ATOM     26  C   UNL     1      44.727   2.996   9.944  0.00  0.00    +0.000 C 
ATOM     27  C   UNL     1      44.420   4.473   9.641  0.00  0.00    +0.000 C 
ENDBRANCH  20  22
ENDBRANCH  15  16
ENDBRANCH   7  15
TORSDOF 4
ENDMDL
MODEL 4
REMARK VINA RESULT:    -6.866      4.067      5.660
REMARK INTER + INTRA:          -8.953
REMARK INTER:                  -8.307
REMARK INTRA:                  -0.646
REMARK UNBOUND:                -0.482
REMARK  Name = 
REMARK  5 active torsions:
REMARK  status: ('A' for Active; 'I' for Inactive)
REMARK    1  A    between atoms: C_1  and  C_2
REMARK    2  A    between atoms: C_4  and  C_5
REMARK    3  A    between atoms: N_10  and  C_11
REMARK    4  A    between atoms: C_11  and  C_12
REMARK    5  A    between atoms: C_16  and  N_17
REMARK                            x       y       z     vdW  Elec       q    Type
REMARK                         _______ _______ _______ _____ _____    ______ ____
ROOT
ATOM      1  C   UNL     1      50.501   9.244  11.513  0.00  0.00    +0.000 C 
ATOM      2  C   UNL     1      49.090   8.876  11.854  0.00  0.00    +0.000 A 
ATOM      3  C   UNL     1      48.091   9.816  11.845  0.00  0.00    +0.000 A 
ATOM      4  C   UNL     1      46.840   9.341  12.168  0.00  0.00    +0.000 A 
ATOM      5  N   UNL     1      46.558   8.045  12.466  0.00  0.00    +0.000 NA
ATOM      6  C   UNL     1      47.593   7.200  12.423  0.00  0.00    +0.000 A 
ATOM      7  N   UNL     1      47.421   5.840  12.606  0.00  0.00    +0.000 N 
ATOM      8  N   UNL     1      48.851   7.580  12.149  0.00  0.00    +0.000 NA
ATOM      9  H   UNL     1      48.333   5.437  12.785  0.00  0.00    +0.000 HD
ENDROOT
BRANCH   4  10
ATOM     10  C   UNL     1      45.693  10.305  12.175  0.00  0.00    +0.000 C 
ATOM     11  N   UNL     1      44.481   9.779  12.535  0.00  0.00    +0.000 N 
ATOM     12  O   UNL     1      45.820  11.484  11.880  0.00  0.00    +0.000 OA
ATOM     13  H   UNL     1      44.400   8.792  12.741  0.00  0.00    +0.000 HD
ATOM     14  H   UNL     1      43.664  10.371  12.528  0.00  0.00    +0.000 HD
ENDBRANCH   4  10
BRANCH   7  15
ATOM     15  C   UNL     1      46.365   5.427  13.499  0.00  0.00    +0.000 C 
BRANCH  15  16
ATOM     16  C   UNL     1      45.120   5.068  12.711  0.00  0.00    +0.000 A 
ATOM     17  C   UNL     1      43.844   5.420  13.159  0.00  0.00    +0.000 A 
ATOM     18  C   UNL     1      42.726   5.142  12.370  0.00  0.00    +0.000 A 
ATOM     19  C   UNL     1      42.882   4.518  11.131  0.00  0.00    +0.000 A 
ATOM     20  C   UNL     1      44.140   4.127  10.653  0.00  0.00    +0.000 A 
ATOM     21  C   UNL     1      45.243   4.389  11.483  0.00  0.00    +0.000 A 
BRANCH  20  22
ATOM     22  N   UNL     1      44.266   3.499   9.428  0.00  0.00    +0.000 N 
ATOM     23  C   UNL     1      44.394   2.041   9.294  0.00  0.00    +0.000 C 
ATOM     24  C   UNL     1      45.790   1.655   8.787  0.00  0.00    +0.000 C 
ATOM     25  O   UNL     1      46.116   2.343   7.568  0.00  0.00    +0.000 OA
ATOM     26  C   UNL     1      46.104   3.763   7.787  0.00  0.00    +0.000 C 
ATOM     27  C   UNL     1      44.724   4.263   8.252  0.00  0.00    +0.000 C 
ENDBRANCH  20  22
ENDBRANCH  15  16
ENDBRANCH   7  15
TORSDOF 4
ENDMDL
MODEL 5
REMARK VINA RESULT:    -6.808      3.071      8.104
REMARK INTER + INTRA:          -8.881
REMARK INTER:                  -8.181
REMARK INTRA:                  -0.700
REMARK UNBOUND:                -0.482
REMARK  Name = 
REMARK  5 active torsions:
REMARK  status: ('A' for Active; 'I' for Inactive)
REMARK    1  A    between atoms: C_1  and  C_2
REMARK    2  A    between atoms: C_4  and  C_5
REMARK    3  A    between atoms: N_10  and  C_11
REMARK    4  A    between atoms: C_11  and  C_12
REMARK    5  A    between atoms: C_16  and  N_17
REMARK                            x       y       z     vdW  Elec       q    Type
REMARK                         _______ _______ _______ _____ _____    ______ ____
ROOT
ATOM      1  C   UNL     1      45.339   3.623   7.445  0.00  0.00    +0.000 C 
ATOM      2  C   UNL     1      45.149   4.013   8.879  0.00  0.00    +0.000 A 
ATOM      3  C   UNL     1      44.373   3.258   9.721  0.00  0.00    +0.000 A 
ATOM      4  C   UNL     1      44.291   3.725  11.014  0.00  0.00    +0.000 A 
ATOM      5  N   UNL     1      44.923   4.836  11.476  0.00  0.00    +0.000 NA
ATOM      6  C   UNL     1      45.676   5.489  10.586  0.00  0.00    +0.000 A 
ATOM      7  N   UNL     1      46.450   6.575  10.956  0.00  0.00    +0.000 N 
ATOM      8  N   UNL     1      45.789   5.125   9.300  0.00  0.00    +0.000 NA
ATOM      9  H   UNL     1      46.724   7.058  10.109  0.00  0.00    +0.000 HD
ENDROOT
BRANCH   4  10
ATOM     10  C   UNL     1      43.467   2.952  11.998  0.00  0.00    +0.000 C 
ATOM     11  N   UNL     1      43.437   3.459  13.271  0.00  0.00    +0.000 N 
ATOM     12  O   UNL     1      42.859   1.936  11.696  0.00  0.00    +0.000 OA
ATOM     13  H   UNL     1      43.977   4.282  13.499  0.00  0.00    +0.000 HD
ATOM     14  H   UNL     1      42.925   2.965  13.986  0.00  0.00    +0.000 HD
ENDBRANCH   4  10
BRANCH   7  15
ATOM     15  C   UNL     1      45.945   7.408  12.020  0.00  0.00    +0.000 C 
BRANCH  15  16
ATOM     16  C   UNL     1      47.009   7.608  13.082  0.00  0.00    +0.000 A 
ATOM     17  C   UNL     1      47.616   8.851  13.285  0.00  0.00    +0.000 A 
ATOM     18  C   UNL     1      48.534   9.016  14.323  0.00  0.00    +0.000 A 
ATOM     19  C   UNL     1      48.842   7.945  15.163  0.00  0.00    +0.000 A 
ATOM     20  C   UNL     1      48.275   6.677  14.982  0.00  0.00    +0.000 A 
ATOM     21  C   UNL     1      47.380   6.530  13.909  0.00  0.00    +0.000 A 
BRANCH  20  22
ATOM     22  N   UNL     1      48.606   5.628  15.820  0.00  0.00    +0.000 N 
ATOM     23  C   UNL     1      47.739   4.456  16.005  0.00  0.00    +0.000 C 
ATOM     24  C   UNL     1      47.159   4.417  17.424  0.00  0.00    +0.000 C 
ATOM     25  O   UNL     1      48.196   4.486  18.418  0.00  0.00    +0.000 OA
ATOM     26  C   UNL     1      48.931   5.713  18.275  0.00  0.00    +0.000 C 
ATOM     27  C   UNL     1      49.599   5.828  16.892  0.00  0.00    +0.000 C 
ENDBRANCH  20  22
ENDBRANCH  15  16
ENDBRANCH   7  15
TORSDOF 4
ENDMDL
MODEL 6
REMARK VINA RESULT:    -6.786      4.684      6.007
REMARK INTER + INTRA:          -8.855
REMARK INTER:                  -8.311
REMARK INTRA:                  -0.544
REMARK UNBOUND:                -0.482
REMARK  Name = 
REMARK  5 active torsions:
REMARK  status: ('A' for Active; 'I' for Inactive)
REMARK    1  A    between atoms: C_1  and  C_2
REMARK    2  A    between atoms: C_4  and  C_5
REMARK    3  A    between atoms: N_10  and  C_11
REMARK    4  A    between atoms: C_11  and  C_12
REMARK    5  A    between atoms: C_16  and  N_17
REMARK                            x       y       z     vdW  Elec       q    Type
REMARK                         _______ _______ _______ _____ _____    ______ ____
ROOT
ATOM      1  C   UNL     1      43.788  11.250  10.321  0.00  0.00    +0.000 C 
ATOM      2  C   UNL     1      44.763  10.410  11.088  0.00  0.00    +0.000 A 
ATOM      3  C   UNL     1      46.012  10.882  11.400  0.00  0.00    +0.000 A 
ATOM      4  C   UNL     1      46.803  10.011  12.116  0.00  0.00    +0.000 A 
ATOM      5  N   UNL     1      46.417   8.772  12.521  0.00  0.00    +0.000 NA
ATOM      6  C   UNL     1      45.172   8.413  12.191  0.00  0.00    +0.000 A 
ATOM      7  N   UNL     1      44.626   7.221  12.630  0.00  0.00    +0.000 N 
ATOM      8  N   UNL     1      44.345   9.184  11.469  0.00  0.00    +0.000 NA
ATOM      9  H   UNL     1      43.802   7.037  12.070  0.00  0.00    +0.000 HD
ENDROOT
BRANCH   4  10
ATOM     10  C   UNL     1      48.181  10.454  12.502  0.00  0.00    +0.000 C 
ATOM     11  N   UNL     1      48.335  10.833  13.809  0.00  0.00    +0.000 N 
ATOM     12  O   UNL     1      49.111  10.481  11.711  0.00  0.00    +0.000 OA
ATOM     13  H   UNL     1      47.539  10.833  14.432  0.00  0.00    +0.000 HD
ATOM     14  H   UNL     1      49.233  11.172  14.121  0.00  0.00    +0.000 HD
ENDBRANCH   4  10
BRANCH   7  15
ATOM     15  C   UNL     1      45.530   6.109  12.802  0.00  0.00    +0.000 C 
BRANCH  15  16
ATOM     16  C   UNL     1      44.894   4.830  12.291  0.00  0.00    +0.000 A 
ATOM     17  C   UNL     1      44.066   4.050  13.102  0.00  0.00    +0.000 A 
ATOM     18  C   UNL     1      43.437   2.921  12.574  0.00  0.00    +0.000 A 
ATOM     19  C   UNL     1      43.629   2.574  11.236  0.00  0.00    +0.000 A 
ATOM     20  C   UNL     1      44.469   3.314  10.394  0.00  0.00    +0.000 A 
ATOM     21  C   UNL     1      45.116   4.425  10.960  0.00  0.00    +0.000 A 
BRANCH  20  22
ATOM     22  N   UNL     1      44.653   2.942   9.075  0.00  0.00    +0.000 N 
ATOM     23  C   UNL     1      44.982   1.565   8.678  0.00  0.00    +0.000 C 
ATOM     24  C   UNL     1      46.406   1.481   8.113  0.00  0.00    +0.000 C 
ATOM     25  O   UNL     1      46.602   2.417   7.039  0.00  0.00    +0.000 OA
ATOM     26  C   UNL     1      46.394   3.758   7.513  0.00  0.00    +0.000 C 
ATOM     27  C   UNL     1      44.969   3.963   8.058  0.00  0.00    +0.000 C 
ENDBRANCH  20  22
ENDBRANCH  15  16
ENDBRANCH   7  15
TORSDOF 4
ENDMDL
MODEL 7
REMARK VINA RESULT:    -6.437      3.045      9.152
REMARK INTER + INTRA:          -8.424
REMARK INTER:                  -7.952
REMARK INTRA:                  -0.473
REMARK UNBOUND:                -0.482
REMARK  Name = 
REMARK  5 active torsions:
REMARK  status: ('A' for Active; 'I' for Inactive)
REMARK    1  A    between atoms: C_1  and  C_2
REMARK    2  A    between atoms: C_4  and  C_5
REMARK    3  A    between atoms: N_10  and  C_11
REMARK    4  A    between atoms: C_11  and  C_12
REMARK    5  A    between atoms: C_16  and  N_17
REMARK                            x       y       z     vdW  Elec       q    Type
REMARK                         _______ _______ _______ _____ _____    ______ ____
ROOT
ATOM      1  C   UNL     1      44.180   2.660  10.213  0.00  0.00    +0.000 C 
ATOM      2  C   UNL     1      44.590   3.794  11.101  0.00  0.00    +0.000 A 
ATOM      3  C   UNL     1      44.246   5.088  10.802  0.00  0.00    +0.000 A 
ATOM      4  C   UNL     1      44.679   6.031  11.706  0.00  0.00    +0.000 A 
ATOM      5  N   UNL     1      45.384   5.753  12.834  0.00  0.00    +0.000 NA
ATOM      6  C   UNL     1      45.649   4.461  13.052  0.00  0.00    +0.000 A 
ATOM      7  N   UNL     1      46.269   4.038  14.214  0.00  0.00    +0.000 N 
ATOM      8  N   UNL     1      45.294   3.479  12.210  0.00  0.00    +0.000 NA
ATOM      9  H   UNL     1      46.594   3.091  14.060  0.00  0.00    +0.000 HD
ENDROOT
BRANCH   4  10
ATOM     10  C   UNL     1      44.338   7.468  11.454  0.00  0.00    +0.000 C 
ATOM     11  N   UNL     1      43.055   7.706  11.037  0.00  0.00    +0.000 N 
ATOM     12  O   UNL     1      45.143   8.374  11.606  0.00  0.00    +0.000 OA
ATOM     13  H   UNL     1      42.421   6.933  10.888  0.00  0.00    +0.000 HD
ATOM     14  H   UNL     1      42.774   8.650  10.821  0.00  0.00    +0.000 HD
ENDBRANCH   4  10
BRANCH   7  15
ATOM     15  C   UNL     1      47.223   4.940  14.813  0.00  0.00    +0.000 C 
BRANCH  15  16
ATOM     16  C   UNL     1      47.711   4.386  16.138  0.00  0.00    +0.000 A 
ATOM     17  C   UNL     1      47.966   3.023  16.312  0.00  0.00    +0.000 A 
ATOM     18  C   UNL     1      48.488   2.561  17.521  0.00  0.00    +0.000 A 
ATOM     19  C   UNL     1      48.760   3.458  18.555  0.00  0.00    +0.000 A 
ATOM     20  C   UNL     1      48.498   4.829  18.432  0.00  0.00    +0.000 A 
ATOM     21  C   UNL     1      47.941   5.262  17.217  0.00  0.00    +0.000 A 
BRANCH  20  22
ATOM     22  N   UNL     1      48.765   5.695  19.476  0.00  0.00    +0.000 N 
ATOM     23  C   UNL     1      47.706   6.276  20.315  0.00  0.00    +0.000 C 
ATOM     24  C   UNL     1      47.588   7.788  20.086  0.00  0.00    +0.000 C 
ATOM     25  O   UNL     1      48.852   8.448  20.272  0.00  0.00    +0.000 OA
ATOM     26  C   UNL     1      49.816   7.934  19.338  0.00  0.00    +0.000 C 
ATOM     27  C   UNL     1      50.047   6.423  19.520  0.00  0.00    +0.000 C 
ENDBRANCH  20  22
ENDBRANCH  15  16
ENDBRANCH   7  15
TORSDOF 4
ENDMDL
MODEL 8
REMARK VINA RESULT:    -6.237      3.021      8.922
REMARK INTER + INTRA:          -8.177
REMARK INTER:                  -7.693
REMARK INTRA:                  -0.484
REMARK UNBOUND:                -0.482
REMARK  Name = 
REMARK  5 active torsions:
REMARK  status: ('A' for Active; 'I' for Inactive)
REMARK    1  A    between atoms: C_1  and  C_2
REMARK    2  A    between atoms: C_4  and  C_5
REMARK    3  A    between atoms: N_10  and  C_11
REMARK    4  A    between atoms: C_11  and  C_12
REMARK    5  A    between atoms: C_16  and  N_17
REMARK                            x       y       z     vdW  Elec       q    Type
REMARK                         _______ _______ _______ _____ _____    ______ ____
ROOT
ATOM      1  C   UNL     1      44.222   2.546  10.273  0.00  0.00    +0.000 C 
ATOM      2  C   UNL     1      44.590   3.716  11.133  0.00  0.00    +0.000 A 
ATOM      3  C   UNL     1      44.177   4.985  10.816  0.00  0.00    +0.000 A 
ATOM      4  C   UNL     1      44.577   5.965  11.697  0.00  0.00    +0.000 A 
ATOM      5  N   UNL     1      45.314   5.744  12.817  0.00  0.00    +0.000 NA
ATOM      6  C   UNL     1      45.645   4.471  13.053  0.00  0.00    +0.000 A 
ATOM      7  N   UNL     1      46.305   4.101  14.211  0.00  0.00    +0.000 N 
ATOM      8  N   UNL     1      45.326   3.456  12.235  0.00  0.00    +0.000 NA
ATOM      9  H   UNL     1      46.674   3.168  14.069  0.00  0.00    +0.000 HD
ENDROOT
BRANCH   4  10
ATOM     10  C   UNL     1      44.161   7.378  11.424  0.00  0.00    +0.000 C 
ATOM     11  N   UNL     1      42.858   7.546  11.034  0.00  0.00    +0.000 N 
ATOM     12  O   UNL     1      44.924   8.325  11.538  0.00  0.00    +0.000 OA
ATOM     13  H   UNL     1      42.259   6.740  10.915  0.00  0.00    +0.000 HD
ATOM     14  H   UNL     1      42.527   8.471  10.806  0.00  0.00    +0.000 HD
ENDBRANCH   4  10
BRANCH   7  15
ATOM     15  C   UNL     1      47.223   5.060  14.778  0.00  0.00    +0.000 C 
BRANCH  15  16
ATOM     16  C   UNL     1      47.756   4.557  16.106  0.00  0.00    +0.000 A 
ATOM     17  C   UNL     1      47.129   3.519  16.801  0.00  0.00    +0.000 A 
ATOM     18  C   UNL     1      47.692   3.031  17.981  0.00  0.00    +0.000 A 
ATOM     19  C   UNL     1      48.883   3.574  18.466  0.00  0.00    +0.000 A 
ATOM     20  C   UNL     1      49.533   4.630  17.814  0.00  0.00    +0.000 A 
ATOM     21  C   UNL     1      48.926   5.125  16.647  0.00  0.00    +0.000 A 
BRANCH  20  22
ATOM     22  N   UNL     1      50.705   5.159  18.322  0.00  0.00    +0.000 N 
ATOM     23  C   UNL     1      51.319   6.384  17.789  0.00  0.00    +0.000 C 
ATOM     24  C   UNL     1      52.648   6.075  17.088  0.00  0.00    +0.000 C 
ATOM     25  O   UNL     1      53.541   5.351  17.951  0.00  0.00    +0.000 OA
ATOM     26  C   UNL     1      52.946   4.102  18.338  0.00  0.00    +0.000 C 
ATOM     27  C   UNL     1      51.623   4.305  19.099  0.00  0.00    +0.000 C 
ENDBRANCH  20  22
ENDBRANCH  15  16
ENDBRANCH   7  15
TORSDOF 4
ENDMDL
MODEL 9
REMARK VINA RESULT:    -6.207      3.182      4.204
REMARK INTER + INTRA:          -8.140
REMARK INTER:                  -7.529
REMARK INTRA:                  -0.611
REMARK UNBOUND:                -0.482
REMARK  Name = 
REMARK  5 active torsions:
REMARK  status: ('A' for Active; 'I' for Inactive)
REMARK    1  A    between atoms: C_1  and  C_2
REMARK    2  A    between atoms: C_4  and  C_5
REMARK    3  A    between atoms: N_10  and  C_11
REMARK    4  A    between atoms: C_11  and  C_12
REMARK    5  A    between atoms: C_16  and  N_17
REMARK                            x       y       z     vdW  Elec       q    Type
REMARK                         _______ _______ _______ _____ _____    ______ ____
ROOT
ATOM      1  C   UNL     1      48.682   2.922  17.545  0.00  0.00    +0.000 C 
ATOM      2  C   UNL     1      48.664   4.416  17.436  0.00  0.00    +0.000 A 
ATOM      3  C   UNL     1      48.622   5.207  18.555  0.00  0.00    +0.000 A 
ATOM      4  C   UNL     1      48.619   6.562  18.311  0.00  0.00    +0.000 A 
ATOM      5  N   UNL     1      48.669   7.126  17.076  0.00  0.00    +0.000 NA
ATOM      6  C   UNL     1      48.734   6.271  16.049  0.00  0.00    +0.000 A 
ATOM      7  N   UNL     1      48.891   6.718  14.750  0.00  0.00    +0.000 N 
ATOM      8  N   UNL     1      48.710   4.938  16.191  0.00  0.00    +0.000 NA
ATOM      9  H   UNL     1      48.663   5.948  14.132  0.00  0.00    +0.000 HD
ENDROOT
BRANCH   4  10
ATOM     10  C   UNL     1      48.580   7.495  19.483  0.00  0.00    +0.000 C 
ATOM     11  N   UNL     1      47.519   7.331  20.334  0.00  0.00    +0.000 N 
ATOM     12  O   UNL     1      49.432   8.349  19.676  0.00  0.00    +0.000 OA
ATOM     13  H   UNL     1      46.812   6.638  20.131  0.00  0.00    +0.000 HD
ATOM     14  H   UNL     1      47.421   7.950  21.125  0.00  0.00    +0.000 HD
ENDBRANCH   4  10
BRANCH   7  15
ATOM     15  C   UNL     1      48.296   7.989  14.416  0.00  0.00    +0.000 C 
BRANCH  15  16
ATOM     16  C   UNL     1      47.100   7.788  13.506  0.00  0.00    +0.000 A 
ATOM     17  C   UNL     1      46.305   8.862  13.094  0.00  0.00    +0.000 A 
ATOM     18  C   UNL     1      45.259   8.649  12.195  0.00  0.00    +0.000 A 
ATOM     19  C   UNL     1      45.009   7.367  11.701  0.00  0.00    +0.000 A 
ATOM     20  C   UNL     1      45.766   6.260  12.105  0.00  0.00    +0.000 A 
ATOM     21  C   UNL     1      46.790   6.497  13.037  0.00  0.00    +0.000 A 
BRANCH  20  22
ATOM     22  N   UNL     1      45.489   4.998  11.612  0.00  0.00    +0.000 N 
ATOM     23  C   UNL     1      45.188   4.749  10.195  0.00  0.00    +0.000 C 
ATOM     24  C   UNL     1      43.728   4.318  10.009  0.00  0.00    +0.000 C 
ATOM     25  O   UNL     1      43.403   3.190  10.839  0.00  0.00    +0.000 OA
ATOM     26  C   UNL     1      43.591   3.529  12.223  0.00  0.00    +0.000 C 
ATOM     27  C   UNL     1      45.046   3.930  12.527  0.00  0.00    +0.000 C 
ENDBRANCH  20  22
ENDBRANCH  15  16
ENDBRANCH   7  15
TORSDOF 4
ENDMDL
