MODEL 1
REMARK VINA RESULT:    -9.096      0.000      0.000
REMARK INTER + INTRA:         -11.843
REMARK INTER:                 -11.223
REMARK INTRA:                  -0.620
REMARK UNBOUND:                -0.620
REMARK  Name = 
REMARK  4 active torsions:
REMARK  status: ('A' for Active; 'I' for Inactive)
REMARK    1  A    between atoms: C_2  and  C_4
REMARK    2  A    between atoms: N_8  and  C_9
REMARK    3  A    between atoms: C_9  and  C_10
REMARK    4  A    between atoms: C_12  and  C_13
REMARK                            x       y       z     vdW  Elec       q    Type
REMARK                         _______ _______ _______ _____ _____    ______ ____
ROOT
ATOM      1  C   UNL     1      43.913   4.849  11.375  0.00  0.00    +0.000 C 
ATOM      2  C   UNL     1      42.607   5.146  12.107  0.00  0.00    +0.000 C 
ATOM      3  C   UNL     1      43.077   6.069  11.031  0.00  0.00    +0.000 C 
ENDROOT
BRANCH   1   8
ATOM      4  C   UNL     1      46.472   2.644   7.510  0.00  0.00    +0.000 A 
ATOM      5  C   UNL     1      45.916   1.718   8.359  0.00  0.00    +0.000 A 
ATOM      6  N   UNL     1      45.116   2.044   9.395  0.00  0.00    +0.000 NA
ATOM      7  C   UNL     1      44.887   3.351   9.609  0.00  0.00    +0.000 A 
ATOM      8  N   UNL     1      43.914   3.624  10.563  0.00  0.00    +0.000 N 
ATOM      9  N   UNL     1      45.466   4.331   8.895  0.00  0.00    +0.000 NA
ATOM     10  C   UNL     1      46.247   3.956   7.851  0.00  0.00    +0.000 A 
ATOM     11  H   UNL     1      43.734   2.757  11.059  0.00  0.00    +0.000 HD
BRANCH   4  13
ATOM     12  N   UNL     1      47.168   3.131   5.239  0.00  0.00    +0.000 N 
ATOM     13  C   UNL     1      47.237   2.281   6.307  0.00  0.00    +0.000 C 
ATOM     14  O   UNL     1      47.950   1.285   6.293  0.00  0.00    +0.000 OA
ATOM     15  H   UNL     1      47.800   2.938   4.469  0.00  0.00    +0.000 HD
ATOM     16  H   UNL     1      46.808   4.076   5.305  0.00  0.00    +0.000 HD
ENDBRANCH   4  13
ENDBRANCH   1   8
BRANCH   1  17
ATOM     17  C   UNL     1      45.212   5.099  12.148  0.00  0.00    +0.000 A 
ATOM     18  C   UNL     1      46.071   6.130  11.759  0.00  0.00    +0.000 A 
ATOM     19  C   UNL     1      47.164   6.501  12.556  0.00  0.00    +0.000 A 
ATOM     20  C   UNL     1      47.374   5.749  13.716  0.00  0.00    +0.000 A 
ATOM     21  C   UNL     1      46.531   4.689  14.006  0.00  0.00    +0.000 A 
ATOM     22  N   UNL     1      45.469   4.351  13.251  0.00  0.00    +0.000 NA
BRANCH  19  23
ATOM     23  C   UNL     1      48.020   7.661  12.207  0.00  0.00    +0.000 A 
ATOM     24  C   UNL     1      49.384   7.498  11.885  0.00  0.00    +0.000 A 
ATOM     25  C   UNL     1      50.188   8.586  11.532  0.00  0.00    +0.000 A 
ATOM     26  C   UNL     1      49.636   9.856  11.484  0.00  0.00    +0.000 A 
ATOM     27  F   UNL     1      50.400  10.897  11.131  0.00  0.00    +0.000 F 
ATOM     28  C   UNL     1      48.301  10.060  11.793  0.00  0.00    +0.000 A 
ATOM     29  C   UNL     1      47.503   8.972  12.161  0.00  0.00    +0.000 A 
ENDBRANCH  19  23
ENDBRANCH   1  17
TORSDOF 4
ENDMDL
MODEL 2
REMARK VINA RESULT:    -8.293      2.647      3.955
REMARK INTER + INTRA:         -10.852
REMARK INTER:                 -10.499
REMARK INTRA:                  -0.352
REMARK UNBOUND:                -0.620
REMARK  Name = 
REMARK  4 active torsions:
REMARK  status: ('A' for Active; 'I' for Inactive)
REMARK    1  A    between atoms: C_2  and  C_4
REMARK    2  A    between atoms: N_8  and  C_9
REMARK    3  A    between atoms: C_9  and  C_10
REMARK    4  A    between atoms: C_12  and  C_13
REMARK                            x       y       z     vdW  Elec       q    Type
REMARK                         _______ _______ _______ _____ _____    ______ ____
ROOT
ATOM      1  C   UNL     1      43.877   5.101  11.504  0.00  0.00    +0.000 C 
ATOM      2  C   UNL     1      42.643   5.331  12.372  0.00  0.00    +0.000 C 
ATOM      3  C   UNL     1      42.858   6.172  11.157  0.00  0.00    +0.000 C 
ENDROOT
BRANCH   1   8
ATOM      4  C   UNL     1      46.260   2.749   7.613  0.00  0.00    +0.000 A 
ATOM      5  C   UNL     1      45.903   1.873   8.608  0.00  0.00    +0.000 A 
ATOM      6  N   UNL     1      45.181   2.229   9.691  0.00  0.00    +0.000 NA
ATOM      7  C   UNL     1      44.828   3.522   9.798  0.00  0.00    +0.000 A 
ATOM      8  N   UNL     1      43.934   3.799  10.825  0.00  0.00    +0.000 N 
ATOM      9  N   UNL     1      45.216   4.470   8.927  0.00  0.00    +0.000 NA
ATOM     10  C   UNL     1      45.923   4.061   7.844  0.00  0.00    +0.000 A 
ATOM     11  H   UNL     1      43.905   2.980  11.421  0.00  0.00    +0.000 HD
BRANCH   4  13
ATOM     12  N   UNL     1      47.056   3.267   5.382  0.00  0.00    +0.000 N 
ATOM     13  C   UNL     1      46.934   2.333   6.373  0.00  0.00    +0.000 C 
ATOM     14  O   UNL     1      47.413   1.211   6.265  0.00  0.00    +0.000 OA
ATOM     15  H   UNL     1      47.635   3.007   4.590  0.00  0.00    +0.000 HD
ATOM     16  H   UNL     1      46.910   4.257   5.533  0.00  0.00    +0.000 HD
ENDBRANCH   4  13
ENDBRANCH   1   8
BRANCH   1  17
ATOM     17  C   UNL     1      45.218   5.582  12.066  0.00  0.00    +0.000 A 
ATOM     18  C   UNL     1      45.673   5.107  13.299  0.00  0.00    +0.000 A 
ATOM     19  C   UNL     1      46.973   5.382  13.746  0.00  0.00    +0.000 A 
ATOM     20  C   UNL     1      47.757   6.199  12.923  0.00  0.00    +0.000 A 
ATOM     21  C   UNL     1      47.221   6.700  11.749  0.00  0.00    +0.000 A 
ATOM     22  N   UNL     1      45.980   6.416  11.312  0.00  0.00    +0.000 NA
BRANCH  19  23
ATOM     23  C   UNL     1      47.502   4.797  15.002  0.00  0.00    +0.000 A 
ATOM     24  C   UNL     1      47.458   3.407  15.242  0.00  0.00    +0.000 A 
ATOM     25  C   UNL     1      47.978   2.849  16.413  0.00  0.00    +0.000 A 
ATOM     26  C   UNL     1      48.562   3.673  17.361  0.00  0.00    +0.000 A 
ATOM     27  F   UNL     1      49.075   3.139  18.477  0.00  0.00    +0.000 F 
ATOM     28  C   UNL     1      48.626   5.043  17.165  0.00  0.00    +0.000 A 
ATOM     29  C   UNL     1      48.092   5.601  15.999  0.00  0.00    +0.000 A 
ENDBRANCH  19  23
ENDBRANCH   1  17
TORSDOF 4
ENDMDL
MODEL 3
REMARK VINA RESULT:    -7.309      4.454      7.734
REMARK INTER + INTRA:          -9.638
REMARK INTER:                  -9.863
REMARK INTRA:                   0.224
REMARK UNBOUND:                -0.620
REMARK  Name = 
REMARK  4 active torsions:
REMARK  status: ('A' for Active; 'I' for Inactive)
REMARK    1  A    between atoms: C_2  and  C_4
REMARK    2  A    between atoms: N_8  and  C_9
REMARK    3  A    between atoms: C_9  and  C_10
REMARK    4  A    between atoms: C_12  and  C_13
REMARK                            x       y       z     vdW  Elec       q    Type
REMARK                         _______ _______ _______ _____ _____    ______ ____
ROOT
ATOM      1  C   UNL     1      48.598   7.969  12.815  0.00  0.00    +0.000 C 
ATOM      2  C   UNL     1      49.766   7.282  12.113  0.00  0.00    +0.000 C 
ATOM      3  C   UNL     1      49.612   8.764  12.011  0.00  0.00    +0.000 C 
ENDROOT
BRANCH   1   8
ATOM      4  C   UNL     1      47.924   4.615  16.643  0.00  0.00    +0.000 A 
ATOM      5  C   UNL     1      48.795   5.621  16.982  0.00  0.00    +0.000 A 
ATOM      6  N   UNL     1      49.063   6.675  16.183  0.00  0.00    +0.000 NA
ATOM      7  C   UNL     1      48.457   6.709  14.984  0.00  0.00    +0.000 A 
ATOM      8  N   UNL     1      48.618   7.898  14.283  0.00  0.00    +0.000 N 
ATOM      9  N   UNL     1      47.669   5.722  14.525  0.00  0.00    +0.000 NA
ATOM     10  C   UNL     1      47.413   4.692  15.370  0.00  0.00    +0.000 A 
ATOM     11  H   UNL     1      49.354   8.418  14.747  0.00  0.00    +0.000 HD
BRANCH   4  13
ATOM     12  N   UNL     1      48.348   3.309  18.642  0.00  0.00    +0.000 N 
ATOM     13  C   UNL     1      47.536   3.536  17.565  0.00  0.00    +0.000 C 
ATOM     14  O   UNL     1      46.496   2.911  17.398  0.00  0.00    +0.000 OA
ATOM     15  H   UNL     1      48.000   2.655  19.336  0.00  0.00    +0.000 HD
ATOM     16  H   UNL     1      49.057   3.963  18.949  0.00  0.00    +0.000 HD
ENDBRANCH   4  13
ENDBRANCH   1   8
BRANCH   1  17
ATOM     17  C   UNL     1      47.212   7.788  12.190  0.00  0.00    +0.000 A 
ATOM     18  C   UNL     1      46.897   6.608  11.512  0.00  0.00    +0.000 A 
ATOM     19  C   UNL     1      45.585   6.339  11.096  0.00  0.00    +0.000 A 
ATOM     20  C   UNL     1      44.635   7.336  11.345  0.00  0.00    +0.000 A 
ATOM     21  C   UNL     1      45.027   8.516  11.954  0.00  0.00    +0.000 A 
ATOM     22  N   UNL     1      46.283   8.761  12.372  0.00  0.00    +0.000 NA
BRANCH  19  23
ATOM     23  C   UNL     1      45.218   5.046  10.470  0.00  0.00    +0.000 A 
ATOM     24  C   UNL     1      45.562   4.753   9.133  0.00  0.00    +0.000 A 
ATOM     25  C   UNL     1      45.239   3.525   8.547  0.00  0.00    +0.000 A 
ATOM     26  C   UNL     1      44.578   2.564   9.294  0.00  0.00    +0.000 A 
ATOM     27  F   UNL     1      44.282   1.382   8.739  0.00  0.00    +0.000 F 
ATOM     28  C   UNL     1      44.222   2.812  10.610  0.00  0.00    +0.000 A 
ATOM     29  C   UNL     1      44.532   4.047  11.189  0.00  0.00    +0.000 A 
ENDBRANCH  19  23
ENDBRANCH   1  17
TORSDOF 4
ENDMDL
MODEL 4
REMARK VINA RESULT:    -7.069      5.730      8.500
REMARK INTER + INTRA:          -9.342
REMARK INTER:                  -8.754
REMARK INTRA:                  -0.587
REMARK UNBOUND:                -0.620
REMARK  Name = 
REMARK  4 active torsions:
REMARK  status: ('A' for Active; 'I' for Inactive)
REMARK    1  A    between atoms: C_2  and  C_4
REMARK    2  A    between atoms: N_8  and  C_9
REMARK    3  A    between atoms: C_9  and  C_10
REMARK    4  A    between atoms: C_12  and  C_13
REMARK                            x       y       z     vdW  Elec       q    Type
REMARK                         _______ _______ _______ _____ _____    ______ ____
ROOT
ATOM      1  C   UNL     1      48.292   4.759  17.329  0.00  0.00    +0.000 C 
ATOM      2  C   UNL     1      47.106   5.150  18.205  0.00  0.00    +0.000 C 
ATOM      3  C   UNL     1      47.133   3.805  17.558  0.00  0.00    +0.000 C 
ENDROOT
BRANCH   1   8
ATOM      4  C   UNL     1      52.372   1.661  17.648  0.00  0.00    +0.000 A 
ATOM      5  C   UNL     1      52.692   2.968  17.918  0.00  0.00    +0.000 A 
ATOM      6  N   UNL     1      51.778   3.959  17.992  0.00  0.00    +0.000 NA
ATOM      7  C   UNL     1      50.496   3.632  17.758  0.00  0.00    +0.000 A 
ATOM      8  N   UNL     1      49.579   4.640  18.029  0.00  0.00    +0.000 N 
ATOM      9  N   UNL     1      50.100   2.401  17.389  0.00  0.00    +0.000 NA
ATOM     10  C   UNL     1      51.051   1.434  17.347  0.00  0.00    +0.000 A 
ATOM     11  H   UNL     1      50.107   5.497  18.146  0.00  0.00    +0.000 HD
BRANCH   4  13
ATOM     12  N   UNL     1      53.029  -0.533  18.447  0.00  0.00    +0.000 N 
ATOM     13  C   UNL     1      53.351   0.563  17.695  0.00  0.00    +0.000 C 
ATOM     14  O   UNL     1      54.382   0.613  17.037  0.00  0.00    +0.000 OA
ATOM     15  H   UNL     1      53.650  -1.331  18.365  0.00  0.00    +0.000 HD
ATOM     16  H   UNL     1      52.093  -0.718  18.785  0.00  0.00    +0.000 HD
ENDBRANCH   4  13
ENDBRANCH   1   8
BRANCH   1  17
ATOM     17  C   UNL     1      48.380   5.417  15.949  0.00  0.00    +0.000 A 
ATOM     18  C   UNL     1      47.506   5.029  14.930  0.00  0.00    +0.000 A 
ATOM     19  C   UNL     1      47.438   5.741  13.724  0.00  0.00    +0.000 A 
ATOM     20  C   UNL     1      48.327   6.811  13.580  0.00  0.00    +0.000 A 
ATOM     21  C   UNL     1      49.222   7.098  14.596  0.00  0.00    +0.000 A 
ATOM     22  N   UNL     1      49.268   6.427  15.762  0.00  0.00    +0.000 NA
BRANCH  19  23
ATOM     23  C   UNL     1      46.441   5.403  12.678  0.00  0.00    +0.000 A 
ATOM     24  C   UNL     1      46.262   6.220  11.542  0.00  0.00    +0.000 A 
ATOM     25  C   UNL     1      45.341   5.891  10.542  0.00  0.00    +0.000 A 
ATOM     26  C   UNL     1      44.592   4.732  10.658  0.00  0.00    +0.000 A 
ATOM     27  F   UNL     1      43.721   4.407   9.694  0.00  0.00    +0.000 F 
ATOM     28  C   UNL     1      44.737   3.902  11.758  0.00  0.00    +0.000 A 
ATOM     29  C   UNL     1      45.648   4.240  12.764  0.00  0.00    +0.000 A 
ENDBRANCH  19  23
ENDBRANCH   1  17
TORSDOF 4
ENDMDL
MODEL 5
REMARK VINA RESULT:    -6.592      3.743      6.904
REMARK INTER + INTRA:          -8.753
REMARK INTER:                  -9.386
REMARK INTRA:                   0.633
REMARK UNBOUND:                -0.620
REMARK  Name = 
REMARK  4 active torsions:
REMARK  status: ('A' for Active; 'I' for Inactive)
REMARK    1  A    between atoms: C_2  and  C_4
REMARK    2  A    between atoms: N_8  and  C_9
REMARK    3  A    between atoms: C_9  and  C_10
REMARK    4  A    between atoms: C_12  and  C_13
REMARK                            x       y       z     vdW  Elec       q    Type
REMARK                         _______ _______ _______ _____ _____    ______ ____
ROOT
ATOM      1  C   UNL     1      45.106   5.619  12.314  0.00  0.00    +0.000 C 
ATOM      2  C   UNL     1      44.801   7.029  11.815  0.00  0.00    +0.000 C 
ATOM      3  C   UNL     1      43.976   6.440  12.912  0.00  0.00    +0.000 C 
ENDROOT
BRANCH   1   8
ATOM      4  C   UNL     1      49.716   7.856  12.617  0.00  0.00    +0.000 A 
ATOM      5  C   UNL     1      49.392   7.179  13.767  0.00  0.00    +0.000 A 
ATOM      6  N   UNL     1      48.277   6.431  13.901  0.00  0.00    +0.000 NA
ATOM      7  C   UNL     1      47.439   6.381  12.852  0.00  0.00    +0.000 A 
ATOM      8  N   UNL     1      46.410   5.454  12.971  0.00  0.00    +0.000 N 
ATOM      9  N   UNL     1      47.621   7.088  11.724  0.00  0.00    +0.000 NA
ATOM     10  C   UNL     1      48.765   7.812  11.627  0.00  0.00    +0.000 A 
ATOM     11  H   UNL     1      46.390   5.158  13.941  0.00  0.00    +0.000 HD
BRANCH   4  13
ATOM     12  N   UNL     1      52.063   7.828  12.008  0.00  0.00    +0.000 N 
ATOM     13  C   UNL     1      50.992   8.566  12.429  0.00  0.00    +0.000 C 
ATOM     14  O   UNL     1      51.066   9.777  12.590  0.00  0.00    +0.000 OA
ATOM     15  H   UNL     1      52.897   8.351  11.758  0.00  0.00    +0.000 HD
ATOM     16  H   UNL     1      51.978   6.896  11.621  0.00  0.00    +0.000 HD
ENDBRANCH   4  13
ENDBRANCH   1   8
BRANCH   1  17
ATOM     17  C   UNL     1      44.705   4.458  11.399  0.00  0.00    +0.000 A 
ATOM     18  C   UNL     1      45.380   4.252  10.193  0.00  0.00    +0.000 A 
ATOM     19  C   UNL     1      45.163   3.095   9.431  0.00  0.00    +0.000 A 
ATOM     20  C   UNL     1      44.202   2.201   9.914  0.00  0.00    +0.000 A 
ATOM     21  C   UNL     1      43.513   2.500  11.077  0.00  0.00    +0.000 A 
ATOM     22  N   UNL     1      43.740   3.601  11.818  0.00  0.00    +0.000 NA
BRANCH  19  23
ATOM     23  C   UNL     1      45.949   2.814   8.204  0.00  0.00    +0.000 A 
ATOM     24  C   UNL     1      46.497   1.538   7.958  0.00  0.00    +0.000 A 
ATOM     25  C   UNL     1      47.217   1.263   6.791  0.00  0.00    +0.000 A 
ATOM     26  C   UNL     1      47.390   2.260   5.845  0.00  0.00    +0.000 A 
ATOM     27  F   UNL     1      48.065   1.995   4.719  0.00  0.00    +0.000 F 
ATOM     28  C   UNL     1      46.867   3.528   6.048  0.00  0.00    +0.000 A 
ATOM     29  C   UNL     1      46.161   3.804   7.223  0.00  0.00    +0.000 A 
ENDBRANCH  19  23
ENDBRANCH   1  17
TORSDOF 4
ENDMDL
MODEL 6
REMARK VINA RESULT:    -6.362      5.137      8.439
REMARK INTER + INTRA:          -8.469
REMARK INTER:                  -7.775
REMARK INTRA:                  -0.694
REMARK UNBOUND:                -0.620
REMARK  Name = 
REMARK  4 active torsions:
REMARK  status: ('A' for Active; 'I' for Inactive)
REMARK    1  A    between atoms: C_2  and  C_4
REMARK    2  A    between atoms: N_8  and  C_9
REMARK    3  A    between atoms: C_9  and  C_10
REMARK    4  A    between atoms: C_12  and  C_13
REMARK                            x       y       z     vdW  Elec       q    Type
REMARK                         _______ _______ _______ _____ _____    ______ ____
ROOT
ATOM      1  C   UNL     1      49.755   8.272  12.472  0.00  0.00    +0.000 C 
ATOM      2  C   UNL     1      50.731   8.365  11.302  0.00  0.00    +0.000 C 
ATOM      3  C   UNL     1      50.487   9.565  12.157  0.00  0.00    +0.000 C 
ENDROOT
BRANCH   1   8
ATOM      4  C   UNL     1      48.703   7.244  17.390  0.00  0.00    +0.000 A 
ATOM      5  C   UNL     1      49.141   6.134  16.710  0.00  0.00    +0.000 A 
ATOM      6  N   UNL     1      49.571   6.165  15.432  0.00  0.00    +0.000 NA
ATOM      7  C   UNL     1      49.534   7.350  14.798  0.00  0.00    +0.000 A 
ATOM      8  N   UNL     1      50.159   7.367  13.557  0.00  0.00    +0.000 N 
ATOM      9  N   UNL     1      49.029   8.468  15.347  0.00  0.00    +0.000 NA
ATOM     10  C   UNL     1      48.627   8.393  16.641  0.00  0.00    +0.000 A 
ATOM     11  H   UNL     1      50.327   6.401  13.297  0.00  0.00    +0.000 HD
BRANCH   4  13
ATOM     12  N   UNL     1      47.031   7.317  19.145  0.00  0.00    +0.000 N 
ATOM     13  C   UNL     1      48.356   7.232  18.820  0.00  0.00    +0.000 C 
ATOM     14  O   UNL     1      49.222   7.093  19.674  0.00  0.00    +0.000 OA
ATOM     15  H   UNL     1      46.799   7.176  20.123  0.00  0.00    +0.000 HD
ATOM     16  H   UNL     1      46.285   7.171  18.475  0.00  0.00    +0.000 HD
ENDBRANCH   4  13
ENDBRANCH   1   8
BRANCH   1  17
ATOM     17  C   UNL     1      48.263   8.223  12.127  0.00  0.00    +0.000 A 
ATOM     18  C   UNL     1      47.685   7.030  11.685  0.00  0.00    +0.000 A 
ATOM     19  C   UNL     1      46.295   6.908  11.544  0.00  0.00    +0.000 A 
ATOM     20  C   UNL     1      45.538   8.053  11.813  0.00  0.00    +0.000 A 
ATOM     21  C   UNL     1      46.178   9.226  12.174  0.00  0.00    +0.000 A 
ATOM     22  N   UNL     1      47.510   9.334  12.330  0.00  0.00    +0.000 NA
BRANCH  19  23
ATOM     23  C   UNL     1      45.662   5.617  11.177  0.00  0.00    +0.000 A 
ATOM     24  C   UNL     1      45.393   5.287   9.832  0.00  0.00    +0.000 A 
ATOM     25  C   UNL     1      44.819   4.061   9.481  0.00  0.00    +0.000 A 
ATOM     26  C   UNL     1      44.517   3.140  10.470  0.00  0.00    +0.000 A 
ATOM     27  F   UNL     1      43.983   1.959  10.134  0.00  0.00    +0.000 F 
ATOM     28  C   UNL     1      44.766   3.425  11.803  0.00  0.00    +0.000 A 
ATOM     29  C   UNL     1      45.326   4.658  12.153  0.00  0.00    +0.000 A 
ENDBRANCH  19  23
ENDBRANCH   1  17
TORSDOF 4
ENDMDL
MODEL 7
REMARK VINA RESULT:    -6.233      4.143      6.300
REMARK INTER + INTRA:          -8.311
REMARK INTER:                  -8.122
REMARK INTRA:                  -0.189
REMARK UNBOUND:                -0.620
REMARK  Name = 
REMARK  4 active torsions:
REMARK  status: ('A' for Active; 'I' for Inactive)
REMARK    1  A    between atoms: C_2  and  C_4
REMARK    2  A    between atoms: N_8  and  C_9
REMARK    3  A    between atoms: C_9  and  C_10
REMARK    4  A    between atoms: C_12  and  C_13
REMARK                            x       y       z     vdW  Elec       q    Type
REMARK                         _______ _______ _______ _____ _____    ______ ____
ROOT
ATOM      1  C   UNL     1      47.880   8.528  13.094  0.00  0.00    +0.000 C 
ATOM      2  C   UNL     1      47.899  10.007  12.718  0.00  0.00    +0.000 C 
ATOM      3  C   UNL     1      48.411   8.993  11.749  0.00  0.00    +0.000 C 
ENDROOT
BRANCH   1   8
ATOM      4  C   UNL     1      44.797   4.982  11.027  0.00  0.00    +0.000 A 
ATOM      5  C   UNL     1      44.564   5.153  12.370  0.00  0.00    +0.000 A 
ATOM      6  N   UNL     1      45.178   6.093  13.118  0.00  0.00    +0.000 NA
ATOM      7  C   UNL     1      46.083   6.875  12.505  0.00  0.00    +0.000 A 
ATOM      8  N   UNL     1      46.544   7.941  13.268  0.00  0.00    +0.000 N 
ATOM      9  N   UNL     1      46.449   6.717  11.222  0.00  0.00    +0.000 NA
ATOM     10  C   UNL     1      45.792   5.773  10.503  0.00  0.00    +0.000 A 
ATOM     11  H   UNL     1      46.250   7.771  14.223  0.00  0.00    +0.000 HD
BRANCH   4  13
ATOM     12  N   UNL     1      44.017   4.282   8.841  0.00  0.00    +0.000 N 
ATOM     13  C   UNL     1      44.035   4.045  10.187  0.00  0.00    +0.000 C 
ATOM     14  O   UNL     1      43.490   3.064  10.677  0.00  0.00    +0.000 OA
ATOM     15  H   UNL     1      43.600   3.558   8.263  0.00  0.00    +0.000 HD
ATOM     16  H   UNL     1      44.658   4.917   8.381  0.00  0.00    +0.000 HD
ENDBRANCH   4  13
ENDBRANCH   1   8
BRANCH   1  17
ATOM     17  C   UNL     1      48.917   8.062  14.121  0.00  0.00    +0.000 A 
ATOM     18  C   UNL     1      48.560   7.139  15.108  0.00  0.00    +0.000 A 
ATOM     19  C   UNL     1      49.528   6.554  15.937  0.00  0.00    +0.000 A 
ATOM     20  C   UNL     1      50.846   6.989  15.759  0.00  0.00    +0.000 A 
ATOM     21  C   UNL     1      51.123   7.962  14.815  0.00  0.00    +0.000 A 
ATOM     22  N   UNL     1      50.195   8.504  14.005  0.00  0.00    +0.000 NA
BRANCH  19  23
ATOM     23  C   UNL     1      49.175   5.497  16.916  0.00  0.00    +0.000 A 
ATOM     24  C   UNL     1      49.921   5.313  18.100  0.00  0.00    +0.000 A 
ATOM     25  C   UNL     1      49.577   4.334  19.037  0.00  0.00    +0.000 A 
ATOM     26  C   UNL     1      48.472   3.530  18.810  0.00  0.00    +0.000 A 
ATOM     27  F   UNL     1      48.132   2.603  19.714  0.00  0.00    +0.000 F 
ATOM     28  C   UNL     1      47.713   3.678  17.660  0.00  0.00    +0.000 A 
ATOM     29  C   UNL     1      48.068   4.648  16.717  0.00  0.00    +0.000 A 
ENDBRANCH  19  23
ENDBRANCH   1  17
TORSDOF 4
ENDMDL
MODEL 8
REMARK VINA RESULT:    -6.151      5.617      8.591
REMARK INTER + INTRA:          -8.209
REMARK INTER:                  -7.439
REMARK INTRA:                  -0.770
REMARK UNBOUND:                -0.620
REMARK  Name = 
REMARK  4 active torsions:
REMARK  status: ('A' for Active; 'I' for Inactive)
REMARK    1  A    between atoms: C_2  and  C_4
REMARK    2  A    between atoms: N_8  and  C_9
REMARK    3  A    between atoms: C_9  and  C_10
REMARK    4  A    between atoms: C_12  and  C_13
REMARK                            x       y       z     vdW  Elec       q    Type
REMARK                         _______ _______ _______ _____ _____    ______ ____
ROOT
ATOM      1  C   UNL     1      49.542   7.479  16.732  0.00  0.00    +0.000 C 
ATOM      2  C   UNL     1      49.076   8.815  17.305  0.00  0.00    +0.000 C 
ATOM      3  C   UNL     1      48.248   7.591  17.519  0.00  0.00    +0.000 C 
ENDROOT
BRANCH   1   8
ATOM      4  C   UNL     1      51.888   3.016  17.695  0.00  0.00    +0.000 A 
ATOM      5  C   UNL     1      52.782   4.035  17.475  0.00  0.00    +0.000 A 
ATOM      6  N   UNL     1      52.416   5.321  17.295  0.00  0.00    +0.000 NA
ATOM      7  C   UNL     1      51.100   5.595  17.307  0.00  0.00    +0.000 A 
ATOM      8  N   UNL     1      50.786   6.948  17.307  0.00  0.00    +0.000 N 
ATOM      9  N   UNL     1      50.149   4.651  17.416  0.00  0.00    +0.000 NA
ATOM     10  C   UNL     1      50.564   3.375  17.614  0.00  0.00    +0.000 A 
ATOM     11  H   UNL     1      51.637   7.450  17.076  0.00  0.00    +0.000 HD
BRANCH   4  13
ATOM     12  N   UNL     1      51.419   0.637  17.705  0.00  0.00    +0.000 N 
ATOM     13  C   UNL     1      52.295   1.640  18.018  0.00  0.00    +0.000 C 
ATOM     14  O   UNL     1      53.398   1.407  18.494  0.00  0.00    +0.000 OA
ATOM     15  H   UNL     1      51.766  -0.311  17.811  0.00  0.00    +0.000 HD
ATOM     16  H   UNL     1      50.629   0.765  17.085  0.00  0.00    +0.000 HD
ENDBRANCH   4  13
ENDBRANCH   1   8
BRANCH   1  17
ATOM     17  C   UNL     1      49.414   7.293  15.217  0.00  0.00    +0.000 A 
ATOM     18  C   UNL     1      48.303   6.634  14.684  0.00  0.00    +0.000 A 
ATOM     19  C   UNL     1      48.066   6.615  13.301  0.00  0.00    +0.000 A 
ATOM     20  C   UNL     1      49.027   7.237  12.496  0.00  0.00    +0.000 A 
ATOM     21  C   UNL     1      50.144   7.807  13.081  0.00  0.00    +0.000 A 
ATOM     22  N   UNL     1      50.357   7.842  14.410  0.00  0.00    +0.000 NA
BRANCH  19  23
ATOM     23  C   UNL     1      46.838   6.010  12.732  0.00  0.00    +0.000 A 
ATOM     24  C   UNL     1      46.026   5.142  13.492  0.00  0.00    +0.000 A 
ATOM     25  C   UNL     1      44.854   4.589  12.967  0.00  0.00    +0.000 A 
ATOM     26  C   UNL     1      44.468   4.907  11.675  0.00  0.00    +0.000 A 
ATOM     27  F   UNL     1      43.338   4.391  11.176  0.00  0.00    +0.000 F 
ATOM     28  C   UNL     1      45.237   5.756  10.895  0.00  0.00    +0.000 A 
ATOM     29  C   UNL     1      46.417   6.295  11.417  0.00  0.00    +0.000 A 
ENDBRANCH  19  23
ENDBRANCH   1  17
TORSDOF 4
ENDMDL
