MODEL 1
REMARK VINA RESULT:    -7.491      0.000      0.000
REMARK INTER + INTRA:         -12.356
REMARK INTER:                 -11.214
REMARK INTRA:                  -1.143
REMARK UNBOUND:                -1.143
REMARK  Name = 
REMARK  10 active torsions:
REMARK  status: ('A' for Active; 'I' for Inactive)
REMARK    1  A    between atoms: C_1  and  C_2
REMARK    2  A    between atoms: C_2  and  N_3
REMARK    3  A    between atoms: C_2  and  C_19
REMARK    4  A    between atoms: N_3  and  C_4
REMARK    5  A    between atoms: C_4  and  C_5
REMARK    6  A    between atoms: C_8  and  C_9
REMARK    7  A    between atoms: C_9  and  O_10
REMARK    8  A    between atoms: C_9  and  C_11
REMARK    9  A    between atoms: C_11  and  N_12
REMARK   10  A    between atoms: C_19  and  C_21
REMARK                            x       y       z     vdW  Elec       q    Type
REMARK                         _______ _______ _______ _____ _____    ______ ____
ROOT
ATOM      1  N   UNL     1      48.784   5.443  15.773  0.00  0.00    +0.000 NA
ATOM      2  H   UNL     1      48.189   4.681  15.445  0.00  0.00    +0.000 HD
ENDROOT
BRANCH   1   4
ATOM      3  C   UNL     1      48.665   7.221  17.545  0.00  0.00    +0.000 C 
ATOM      4  C   UNL     1      48.404   5.758  17.179  0.00  0.00    +0.000 C 
BRANCH   4   5
ATOM      5  C   UNL     1      49.006   4.797  18.242  0.00  0.00    +0.000 C 
ATOM      6  O   UNL     1      48.291   4.307  19.118  0.00  0.00    +0.000 OA
BRANCH   5   7
ATOM      7  C   UNL     1      50.443   4.460  18.207  0.00  0.00    +0.000 A 
ATOM      8  C   UNL     1      51.444   5.290  18.678  0.00  0.00    +0.000 A 
ATOM      9  S   UNL     1      52.977   4.535  18.739  0.00  0.00    +0.000 S 
ATOM     10  C   UNL     1      52.356   3.093  18.091  0.00  0.00    +0.000 A 
ATOM     11  N   UNL     1      53.130   1.984  17.938  0.00  0.00    +0.000 NA
ATOM     12  C   UNL     1      52.503   0.961  17.456  0.00  0.00    +0.000 A 
ATOM     13  N   UNL     1      51.186   0.957  17.075  0.00  0.00    +0.000 N 
ATOM     14  C   UNL     1      50.431   2.119  17.019  0.00  0.00    +0.000 A 
ATOM     15  O   UNL     1      49.449   2.203  16.291  0.00  0.00    +0.000 OA
ATOM     16  C   UNL     1      51.019   3.218  17.744  0.00  0.00    +0.000 A 
ATOM     17  H   UNL     1      50.801   0.163  16.586  0.00  0.00    +0.000 HD
ENDBRANCH   5   7
ENDBRANCH   4   5
ENDBRANCH   1   4
BRANCH   1  18
ATOM     18  C   UNL     1      48.663   6.547  14.813  0.00  0.00    +0.000 C 
BRANCH  18  19
ATOM     19  C   UNL     1      47.599   6.246  13.765  0.00  0.00    +0.000 A 
ATOM     20  C   UNL     1      46.787   5.105  13.855  0.00  0.00    +0.000 A 
ATOM     21  C   UNL     1      45.858   4.790  12.846  0.00  0.00    +0.000 A 
ATOM     22  C   UNL     1      45.744   5.584  11.692  0.00  0.00    +0.000 A 
ATOM     23  C   UNL     1      46.519   6.753  11.636  0.00  0.00    +0.000 A 
ATOM     24  C   UNL     1      47.427   7.081  12.656  0.00  0.00    +0.000 A 
BRANCH  22  25
ATOM     25  C   UNL     1      44.955   5.068  10.482  0.00  0.00    +0.000 C 
BRANCH  25  26
ATOM     26  O   UNL     1      43.634   5.606  10.618  0.00  0.00    +0.000 OA
ATOM     27  H   UNL     1      43.672   6.300  11.300  0.00  0.00    +0.000 HD
ENDBRANCH  25  26
BRANCH  25  28
ATOM     28  C   UNL     1      44.890   3.507  10.362  0.00  0.00    +0.000 C 
BRANCH  28  29
ATOM     29  N   UNL     1      44.377   2.898   9.106  0.00  0.00    +0.000 NA
ATOM     30  C   UNL     1      44.937   3.611   7.940  0.00  0.00    +0.000 C 
ATOM     31  C   UNL     1      46.277   2.941   7.660  0.00  0.00    +0.000 C 
ATOM     32  O   UNL     1      46.216   1.657   8.289  0.00  0.00    +0.000 OA
ATOM     33  C   UNL     1      44.904   1.554   8.851  0.00  0.00    +0.000 C 
ENDBRANCH  28  29
ENDBRANCH  25  28
ENDBRANCH  22  25
ENDBRANCH  18  19
ENDBRANCH   1  18
TORSDOF 9
ENDMDL
MODEL 2
REMARK VINA RESULT:    -7.360      2.754      8.723
REMARK INTER + INTRA:         -12.159
REMARK INTER:                 -10.653
REMARK INTRA:                  -1.507
REMARK UNBOUND:                -1.143
REMARK  Name = 
REMARK  10 active torsions:
REMARK  status: ('A' for Active; 'I' for Inactive)
REMARK    1  A    between atoms: C_1  and  C_2
REMARK    2  A    between atoms: C_2  and  N_3
REMARK    3  A    between atoms: C_2  and  C_19
REMARK    4  A    between atoms: N_3  and  C_4
REMARK    5  A    between atoms: C_4  and  C_5
REMARK    6  A    between atoms: C_8  and  C_9
REMARK    7  A    between atoms: C_9  and  O_10
REMARK    8  A    between atoms: C_9  and  C_11
REMARK    9  A    between atoms: C_11  and  N_12
REMARK   10  A    between atoms: C_19  and  C_21
REMARK                            x       y       z     vdW  Elec       q    Type
REMARK                         _______ _______ _______ _____ _____    ______ ____
ROOT
ATOM      1  N   UNL     1      47.048   6.823  11.918  0.00  0.00    +0.000 NA
ATOM      2  H   UNL     1      47.608   6.797  11.064  0.00  0.00    +0.000 HD
ENDROOT
BRANCH   1   4
ATOM      3  C   UNL     1      45.827   8.815  12.844  0.00  0.00    +0.000 C 
ATOM      4  C   UNL     1      45.932   7.788  11.713  0.00  0.00    +0.000 C 
BRANCH   4   5
ATOM      5  C   UNL     1      44.554   7.131  11.422  0.00  0.00    +0.000 C 
ATOM      6  O   UNL     1      43.591   7.820  11.080  0.00  0.00    +0.000 OA
BRANCH   5   7
ATOM      7  C   UNL     1      44.389   5.669  11.550  0.00  0.00    +0.000 A 
ATOM      8  C   UNL     1      43.885   5.043  12.676  0.00  0.00    +0.000 A 
ATOM      9  S   UNL     1      43.574   3.377  12.441  0.00  0.00    +0.000 S 
ATOM     10  C   UNL     1      44.150   3.436  10.845  0.00  0.00    +0.000 A 
ATOM     11  N   UNL     1      44.105   2.349  10.027  0.00  0.00    +0.000 NA
ATOM     12  C   UNL     1      44.559   2.563   8.835  0.00  0.00    +0.000 A 
ATOM     13  N   UNL     1      45.088   3.749   8.398  0.00  0.00    +0.000 N 
ATOM     14  C   UNL     1      45.342   4.805   9.262  0.00  0.00    +0.000 A 
ATOM     15  O   UNL     1      46.185   5.654   8.995  0.00  0.00    +0.000 OA
ATOM     16  C   UNL     1      44.661   4.685  10.527  0.00  0.00    +0.000 A 
ATOM     17  H   UNL     1      45.541   3.804   7.498  0.00  0.00    +0.000 HD
ENDBRANCH   5   7
ENDBRANCH   4   5
ENDBRANCH   1   4
BRANCH   1  18
ATOM     18  C   UNL     1      47.955   7.118  13.035  0.00  0.00    +0.000 C 
BRANCH  18  19
ATOM     19  C   UNL     1      47.812   6.082  14.143  0.00  0.00    +0.000 A 
ATOM     20  C   UNL     1      48.357   6.296  15.418  0.00  0.00    +0.000 A 
ATOM     21  C   UNL     1      48.290   5.305  16.415  0.00  0.00    +0.000 A 
ATOM     22  C   UNL     1      47.714   4.050  16.153  0.00  0.00    +0.000 A 
ATOM     23  C   UNL     1      47.122   3.865  14.893  0.00  0.00    +0.000 A 
ATOM     24  C   UNL     1      47.166   4.865  13.907  0.00  0.00    +0.000 A 
BRANCH  22  25
ATOM     25  C   UNL     1      47.916   2.893  17.138  0.00  0.00    +0.000 C 
BRANCH  25  26
ATOM     26  O   UNL     1      46.884   3.033  18.122  0.00  0.00    +0.000 OA
ATOM     27  H   UNL     1      47.197   2.597  18.935  0.00  0.00    +0.000 HD
ENDBRANCH  25  26
BRANCH  25  28
ATOM     28  C   UNL     1      49.320   2.864  17.832  0.00  0.00    +0.000 C 
BRANCH  28  29
ATOM     29  N   UNL     1      50.544   2.819  16.989  0.00  0.00    +0.000 NA
ATOM     30  C   UNL     1      51.480   3.883  17.409  0.00  0.00    +0.000 C 
ATOM     31  C   UNL     1      52.298   3.278  18.543  0.00  0.00    +0.000 C 
ATOM     32  O   UNL     1      52.172   1.859  18.408  0.00  0.00    +0.000 OA
ATOM     33  C   UNL     1      51.382   1.641  17.236  0.00  0.00    +0.000 C 
ENDBRANCH  28  29
ENDBRANCH  25  28
ENDBRANCH  22  25
ENDBRANCH  18  19
ENDBRANCH   1  18
TORSDOF 9
ENDMDL
MODEL 3
REMARK VINA RESULT:    -6.782      1.824      2.278
REMARK INTER + INTRA:         -11.295
REMARK INTER:                 -10.039
REMARK INTRA:                  -1.256
REMARK UNBOUND:                -1.143
REMARK  Name = 
REMARK  10 active torsions:
REMARK  status: ('A' for Active; 'I' for Inactive)
REMARK    1  A    between atoms: C_1  and  C_2
REMARK    2  A    between atoms: C_2  and  N_3
REMARK    3  A    between atoms: C_2  and  C_19
REMARK    4  A    between atoms: N_3  and  C_4
REMARK    5  A    between atoms: C_4  and  C_5
REMARK    6  A    between atoms: C_8  and  C_9
REMARK    7  A    between atoms: C_9  and  O_10
REMARK    8  A    between atoms: C_9  and  C_11
REMARK    9  A    between atoms: C_11  and  N_12
REMARK   10  A    between atoms: C_19  and  C_21
REMARK                            x       y       z     vdW  Elec       q    Type
REMARK                         _______ _______ _______ _____ _____    ______ ____
ROOT
ATOM      1  N   UNL     1      49.693   6.666  15.380  0.00  0.00    +0.000 NA
ATOM      2  H   UNL     1      49.172   5.799  15.521  0.00  0.00    +0.000 HD
ENDROOT
BRANCH   1   4
ATOM      3  C   UNL     1      50.777   8.425  16.810  0.00  0.00    +0.000 C 
ATOM      4  C   UNL     1      49.587   7.480  16.623  0.00  0.00    +0.000 C 
BRANCH   4   5
ATOM      5  C   UNL     1      49.315   6.658  17.913  0.00  0.00    +0.000 C 
ATOM      6  O   UNL     1      49.436   7.177  19.024  0.00  0.00    +0.000 OA
BRANCH   5   7
ATOM      7  C   UNL     1      48.903   5.243  17.817  0.00  0.00    +0.000 A 
ATOM      8  C   UNL     1      47.588   4.825  17.714  0.00  0.00    +0.000 A 
ATOM      9  S   UNL     1      47.433   3.158  17.365  0.00  0.00    +0.000 S 
ATOM     10  C   UNL     1      49.117   2.938  17.392  0.00  0.00    +0.000 A 
ATOM     11  N   UNL     1      49.687   1.737  17.098  0.00  0.00    +0.000 NA
ATOM     12  C   UNL     1      50.980   1.739  17.137  0.00  0.00    +0.000 A 
ATOM     13  N   UNL     1      51.752   2.819  17.481  0.00  0.00    +0.000 N 
ATOM     14  C   UNL     1      51.202   3.987  17.987  0.00  0.00    +0.000 A 
ATOM     15  O   UNL     1      51.861   4.747  18.686  0.00  0.00    +0.000 OA
ATOM     16  C   UNL     1      49.783   4.098  17.755  0.00  0.00    +0.000 A 
ATOM     17  H   UNL     1      52.746   2.710  17.616  0.00  0.00    +0.000 HD
ENDBRANCH   5   7
ENDBRANCH   4   5
ENDBRANCH   1   4
BRANCH   1  18
ATOM     18  C   UNL     1      49.186   7.296  14.154  0.00  0.00    +0.000 C 
BRANCH  18  19
ATOM     19  C   UNL     1      47.915   6.608  13.672  0.00  0.00    +0.000 A 
ATOM     20  C   UNL     1      47.449   5.429  14.275  0.00  0.00    +0.000 A 
ATOM     21  C   UNL     1      46.317   4.756  13.778  0.00  0.00    +0.000 A 
ATOM     22  C   UNL     1      45.642   5.217  12.635  0.00  0.00    +0.000 A 
ATOM     23  C   UNL     1      46.081   6.426  12.072  0.00  0.00    +0.000 A 
ATOM     24  C   UNL     1      47.194   7.112  12.585  0.00  0.00    +0.000 A 
BRANCH  22  25
ATOM     25  C   UNL     1      44.612   4.319  11.939  0.00  0.00    +0.000 C 
BRANCH  25  26
ATOM     26  O   UNL     1      44.025   3.522  12.975  0.00  0.00    +0.000 OA
ATOM     27  H   UNL     1      43.060   3.544  12.846  0.00  0.00    +0.000 HD
ENDBRANCH  25  26
BRANCH  25  28
ATOM     28  C   UNL     1      45.201   3.396  10.818  0.00  0.00    +0.000 C 
BRANCH  28  29
ATOM     29  N   UNL     1      44.389   3.123   9.603  0.00  0.00    +0.000 NA
ATOM     30  C   UNL     1      44.902   3.920   8.470  0.00  0.00    +0.000 C 
ATOM     31  C   UNL     1      46.015   3.081   7.854  0.00  0.00    +0.000 C 
ATOM     32  O   UNL     1      45.784   1.738   8.291  0.00  0.00    +0.000 OA
ATOM     33  C   UNL     1      44.580   1.773   9.063  0.00  0.00    +0.000 C 
ENDBRANCH  28  29
ENDBRANCH  25  28
ENDBRANCH  22  25
ENDBRANCH  18  19
ENDBRANCH   1  18
TORSDOF 9
ENDMDL
MODEL 4
REMARK VINA RESULT:    -6.562      2.138      2.788
REMARK INTER + INTRA:         -10.966
REMARK INTER:                  -9.597
REMARK INTRA:                  -1.369
REMARK UNBOUND:                -1.143
REMARK  Name = 
REMARK  10 active torsions:
REMARK  status: ('A' for Active; 'I' for Inactive)
REMARK    1  A    between atoms: C_1  and  C_2
REMARK    2  A    between atoms: C_2  and  N_3
REMARK    3  A    between atoms: C_2  and  C_19
REMARK    4  A    between atoms: N_3  and  C_4
REMARK    5  A    between atoms: C_4  and  C_5
REMARK    6  A    between atoms: C_8  and  C_9
REMARK    7  A    between atoms: C_9  and  O_10
REMARK    8  A    between atoms: C_9  and  C_11
REMARK    9  A    between atoms: C_11  and  N_12
REMARK   10  A    between atoms: C_19  and  C_21
REMARK                            x       y       z     vdW  Elec       q    Type
REMARK                         _______ _______ _______ _____ _____    ______ ____
ROOT
ATOM      1  N   UNL     1      47.442   8.768  14.876  0.00  0.00    +0.000 NA
ATOM      2  H   UNL     1      46.920   9.487  15.379  0.00  0.00    +0.000 HD
ENDROOT
BRANCH   1   4
ATOM      3  C   UNL     1      49.809   7.959  14.637  0.00  0.00    +0.000 C 
ATOM      4  C   UNL     1      48.754   8.583  15.555  0.00  0.00    +0.000 C 
BRANCH   4   5
ATOM      5  C   UNL     1      48.679   7.834  16.914  0.00  0.00    +0.000 C 
ATOM      6  O   UNL     1      48.018   8.294  17.847  0.00  0.00    +0.000 OA
BRANCH   5   7
ATOM      7  C   UNL     1      49.397   6.557  17.097  0.00  0.00    +0.000 A 
ATOM      8  C   UNL     1      50.622   6.442  17.729  0.00  0.00    +0.000 A 
ATOM      9  S   UNL     1      51.087   4.821  18.016  0.00  0.00    +0.000 S 
ATOM     10  C   UNL     1      49.688   4.226  17.258  0.00  0.00    +0.000 A 
ATOM     11  N   UNL     1      49.410   2.895  17.211  0.00  0.00    +0.000 NA
ATOM     12  C   UNL     1      48.295   2.605  16.623  0.00  0.00    +0.000 A 
ATOM     13  N   UNL     1      47.454   3.520  16.043  0.00  0.00    +0.000 N 
ATOM     14  C   UNL     1      47.809   4.853  15.887  0.00  0.00    +0.000 A 
ATOM     15  O   UNL     1      47.297   5.547  15.017  0.00  0.00    +0.000 OA
ATOM     16  C   UNL     1      48.925   5.247  16.711  0.00  0.00    +0.000 A 
ATOM     17  H   UNL     1      46.670   3.210  15.489  0.00  0.00    +0.000 HD
ENDBRANCH   5   7
ENDBRANCH   4   5
ENDBRANCH   1   4
BRANCH   1  18
ATOM     18  C   UNL     1      47.500   9.168  13.464  0.00  0.00    +0.000 C 
BRANCH  18  19
ATOM     19  C   UNL     1      46.731   8.189  12.586  0.00  0.00    +0.000 A 
ATOM     20  C   UNL     1      45.329   8.200  12.534  0.00  0.00    +0.000 A 
ATOM     21  C   UNL     1      44.620   7.244  11.781  0.00  0.00    +0.000 A 
ATOM     22  C   UNL     1      45.292   6.220  11.092  0.00  0.00    +0.000 A 
ATOM     23  C   UNL     1      46.696   6.250  11.104  0.00  0.00    +0.000 A 
ATOM     24  C   UNL     1      47.403   7.220  11.833  0.00  0.00    +0.000 A 
BRANCH  22  25
ATOM     25  C   UNL     1      44.505   5.028  10.534  0.00  0.00    +0.000 C 
BRANCH  25  26
ATOM     26  O   UNL     1      43.878   4.410  11.665  0.00  0.00    +0.000 OA
ATOM     27  H   UNL     1      44.519   3.785  12.047  0.00  0.00    +0.000 HD
ENDBRANCH  25  26
BRANCH  25  28
ATOM     28  C   UNL     1      45.372   3.978   9.760  0.00  0.00    +0.000 C 
BRANCH  28  29
ATOM     29  N   UNL     1      44.757   3.212   8.644  0.00  0.00    +0.000 NA
ATOM     30  C   UNL     1      45.634   3.266   7.457  0.00  0.00    +0.000 C 
ATOM     31  C   UNL     1      46.624   2.122   7.631  0.00  0.00    +0.000 C 
ATOM     32  O   UNL     1      46.023   1.217   8.564  0.00  0.00    +0.000 OA
ATOM     33  C   UNL     1      44.737   1.763   8.871  0.00  0.00    +0.000 C 
ENDBRANCH  28  29
ENDBRANCH  25  28
ENDBRANCH  22  25
ENDBRANCH  18  19
ENDBRANCH   1  18
TORSDOF 9
ENDMDL
MODEL 5
REMARK VINA RESULT:    -6.559      2.164      3.153
REMARK INTER + INTRA:         -10.960
REMARK INTER:                  -9.893
REMARK INTRA:                  -1.068
REMARK UNBOUND:                -1.143
REMARK  Name = 
REMARK  10 active torsions:
REMARK  status: ('A' for Active; 'I' for Inactive)
REMARK    1  A    between atoms: C_1  and  C_2
REMARK    2  A    between atoms: C_2  and  N_3
REMARK    3  A    between atoms: C_2  and  C_19
REMARK    4  A    between atoms: N_3  and  C_4
REMARK    5  A    between atoms: C_4  and  C_5
REMARK    6  A    between atoms: C_8  and  C_9
REMARK    7  A    between atoms: C_9  and  O_10
REMARK    8  A    between atoms: C_9  and  C_11
REMARK    9  A    between atoms: C_11  and  N_12
REMARK   10  A    between atoms: C_19  and  C_21
REMARK                            x       y       z     vdW  Elec       q    Type
REMARK                         _______ _______ _______ _____ _____    ______ ____
ROOT
ATOM      1  N   UNL     1      48.035   5.765  13.855  0.00  0.00    +0.000 NA
ATOM      2  H   UNL     1      48.464   5.255  14.629  0.00  0.00    +0.000 HD
ENDROOT
BRANCH   1   4
ATOM      3  C   UNL     1      49.537   7.442  12.738  0.00  0.00    +0.000 C 
ATOM      4  C   UNL     1      48.552   7.163  13.877  0.00  0.00    +0.000 C 
BRANCH   4   5
ATOM      5  C   UNL     1      49.132   7.616  15.245  0.00  0.00    +0.000 C 
ATOM      6  O   UNL     1      48.524   8.429  15.944  0.00  0.00    +0.000 OA
BRANCH   5   7
ATOM      7  C   UNL     1      50.418   7.070  15.723  0.00  0.00    +0.000 A 
ATOM      8  C   UNL     1      51.653   7.599  15.394  0.00  0.00    +0.000 A 
ATOM      9  S   UNL     1      52.941   6.920  16.291  0.00  0.00    +0.000 S 
ATOM     10  C   UNL     1      51.891   5.865  17.108  0.00  0.00    +0.000 A 
ATOM     11  N   UNL     1      52.333   5.033  18.090  0.00  0.00    +0.000 NA
ATOM     12  C   UNL     1      51.406   4.311  18.632  0.00  0.00    +0.000 A 
ATOM     13  N   UNL     1      50.087   4.316  18.255  0.00  0.00    +0.000 N 
ATOM     14  C   UNL     1      49.646   4.990  17.126  0.00  0.00    +0.000 A 
ATOM     15  O   UNL     1      48.619   4.654  16.548  0.00  0.00    +0.000 OA
ATOM     16  C   UNL     1      50.591   5.963  16.635  0.00  0.00    +0.000 A 
ATOM     17  H   UNL     1      49.448   3.633  18.633  0.00  0.00    +0.000 HD
ENDBRANCH   5   7
ENDBRANCH   4   5
ENDBRANCH   1   4
BRANCH   1  18
ATOM     18  C   UNL     1      46.579   5.617  13.976  0.00  0.00    +0.000 C 
BRANCH  18  19
ATOM     19  C   UNL     1      45.971   5.110  12.675  0.00  0.00    +0.000 A 
ATOM     20  C   UNL     1      45.384   3.839  12.589  0.00  0.00    +0.000 A 
ATOM     21  C   UNL     1      44.891   3.345  11.366  0.00  0.00    +0.000 A 
ATOM     22  C   UNL     1      45.013   4.090  10.181  0.00  0.00    +0.000 A 
ATOM     23  C   UNL     1      45.551   5.383  10.286  0.00  0.00    +0.000 A 
ATOM     24  C   UNL     1      46.017   5.886  11.512  0.00  0.00    +0.000 A 
BRANCH  22  25
ATOM     25  C   UNL     1      44.750   3.423   8.826  0.00  0.00    +0.000 C 
BRANCH  25  26
ATOM     26  O   UNL     1      44.271   2.105   9.125  0.00  0.00    +0.000 OA
ATOM     27  H   UNL     1      44.280   2.006  10.094  0.00  0.00    +0.000 HD
ENDBRANCH  25  26
BRANCH  25  28
ATOM     28  C   UNL     1      46.000   3.340   7.886  0.00  0.00    +0.000 C 
BRANCH  28  29
ATOM     29  N   UNL     1      46.065   2.265   6.860  0.00  0.00    +0.000 NA
ATOM     30  C   UNL     1      46.795   2.753   5.671  0.00  0.00    +0.000 C 
ATOM     31  C   UNL     1      48.267   2.493   5.965  0.00  0.00    +0.000 C 
ATOM     32  O   UNL     1      48.296   1.495   6.990  0.00  0.00    +0.000 OA
ATOM     33  C   UNL     1      46.931   1.145   7.240  0.00  0.00    +0.000 C 
ENDBRANCH  28  29
ENDBRANCH  25  28
ENDBRANCH  22  25
ENDBRANCH  18  19
ENDBRANCH   1  18
TORSDOF 9
ENDMDL
MODEL 6
REMARK VINA RESULT:    -6.483      1.932      2.571
REMARK INTER + INTRA:         -10.847
REMARK INTER:                  -9.774
REMARK INTRA:                  -1.072
REMARK UNBOUND:                -1.143
REMARK  Name = 
REMARK  10 active torsions:
REMARK  status: ('A' for Active; 'I' for Inactive)
REMARK    1  A    between atoms: C_1  and  C_2
REMARK    2  A    between atoms: C_2  and  N_3
REMARK    3  A    between atoms: C_2  and  C_19
REMARK    4  A    between atoms: N_3  and  C_4
REMARK    5  A    between atoms: C_4  and  C_5
REMARK    6  A    between atoms: C_8  and  C_9
REMARK    7  A    between atoms: C_9  and  O_10
REMARK    8  A    between atoms: C_9  and  C_11
REMARK    9  A    between atoms: C_11  and  N_12
REMARK   10  A    between atoms: C_19  and  C_21
REMARK                            x       y       z     vdW  Elec       q    Type
REMARK                         _______ _______ _______ _____ _____    ______ ____
ROOT
ATOM      1  N   UNL     1      47.769   5.755  15.975  0.00  0.00    +0.000 NA
ATOM      2  H   UNL     1      47.695   6.569  16.588  0.00  0.00    +0.000 HD
ENDROOT
BRANCH   1   4
ATOM      3  C   UNL     1      47.829   3.470  17.018  0.00  0.00    +0.000 C 
ATOM      4  C   UNL     1      48.613   4.735  16.658  0.00  0.00    +0.000 C 
BRANCH   4   5
ATOM      5  C   UNL     1      49.410   5.268  17.880  0.00  0.00    +0.000 C 
ATOM      6  O   UNL     1      48.826   5.807  18.822  0.00  0.00    +0.000 OA
BRANCH   5   7
ATOM      7  C   UNL     1      50.880   5.129  17.925  0.00  0.00    +0.000 A 
ATOM      8  C   UNL     1      51.547   4.221  18.728  0.00  0.00    +0.000 A 
ATOM      9  S   UNL     1      53.219   4.114  18.384  0.00  0.00    +0.000 S 
ATOM     10  C   UNL     1      53.107   5.313  17.187  0.00  0.00    +0.000 A 
ATOM     11  N   UNL     1      54.180   5.670  16.429  0.00  0.00    +0.000 NA
ATOM     12  C   UNL     1      53.926   6.579  15.544  0.00  0.00    +0.000 A 
ATOM     13  N   UNL     1      52.711   7.191  15.375  0.00  0.00    +0.000 N 
ATOM     14  C   UNL     1      51.662   7.005  16.264  0.00  0.00    +0.000 A 
ATOM     15  O   UNL     1      50.775   7.843  16.383  0.00  0.00    +0.000 OA
ATOM     16  C   UNL     1      51.833   5.855  17.117  0.00  0.00    +0.000 A 
ATOM     17  H   UNL     1      52.622   7.982  14.755  0.00  0.00    +0.000 HD
ENDBRANCH   5   7
ENDBRANCH   4   5
ENDBRANCH   1   4
BRANCH   1  18
ATOM     18  C   UNL     1      48.256   6.224  14.671  0.00  0.00    +0.000 C 
BRANCH  18  19
ATOM     19  C   UNL     1      47.229   5.961  13.578  0.00  0.00    +0.000 A 
ATOM     20  C   UNL     1      46.235   4.982  13.728  0.00  0.00    +0.000 A 
ATOM     21  C   UNL     1      45.336   4.690  12.686  0.00  0.00    +0.000 A 
ATOM     22  C   UNL     1      45.431   5.338  11.443  0.00  0.00    +0.000 A 
ATOM     23  C   UNL     1      46.392   6.356  11.319  0.00  0.00    +0.000 A 
ATOM     24  C   UNL     1      47.271   6.665  12.370  0.00  0.00    +0.000 A 
BRANCH  22  25
ATOM     25  C   UNL     1      44.650   4.802  10.237  0.00  0.00    +0.000 C 
BRANCH  25  26
ATOM     26  O   UNL     1      43.322   5.325  10.368  0.00  0.00    +0.000 OA
ATOM     27  H   UNL     1      42.872   4.805  11.056  0.00  0.00    +0.000 HD
ENDBRANCH  25  26
BRANCH  25  28
ATOM     28  C   UNL     1      44.605   3.240  10.131  0.00  0.00    +0.000 C 
BRANCH  28  29
ATOM     29  N   UNL     1      44.395   2.611   8.800  0.00  0.00    +0.000 NA
ATOM     30  C   UNL     1      44.926   3.494   7.740  0.00  0.00    +0.000 C 
ATOM     31  C   UNL     1      46.403   3.140   7.620  0.00  0.00    +0.000 C 
ATOM     32  O   UNL     1      46.546   1.838   8.196  0.00  0.00    +0.000 OA
ATOM     33  C   UNL     1      45.230   1.426   8.575  0.00  0.00    +0.000 C 
ENDBRANCH  28  29
ENDBRANCH  25  28
ENDBRANCH  22  25
ENDBRANCH  18  19
ENDBRANCH   1  18
TORSDOF 9
ENDMDL
MODEL 7
REMARK VINA RESULT:    -6.479      2.670      3.778
REMARK INTER + INTRA:         -10.841
REMARK INTER:                 -10.131
REMARK INTRA:                  -0.710
REMARK UNBOUND:                -1.143
REMARK  Name = 
REMARK  10 active torsions:
REMARK  status: ('A' for Active; 'I' for Inactive)
REMARK    1  A    between atoms: C_1  and  C_2
REMARK    2  A    between atoms: C_2  and  N_3
REMARK    3  A    between atoms: C_2  and  C_19
REMARK    4  A    between atoms: N_3  and  C_4
REMARK    5  A    between atoms: C_4  and  C_5
REMARK    6  A    between atoms: C_8  and  C_9
REMARK    7  A    between atoms: C_9  and  O_10
REMARK    8  A    between atoms: C_9  and  C_11
REMARK    9  A    between atoms: C_11  and  N_12
REMARK   10  A    between atoms: C_19  and  C_21
REMARK                            x       y       z     vdW  Elec       q    Type
REMARK                         _______ _______ _______ _____ _____    ______ ____
ROOT
ATOM      1  N   UNL     1      47.912   5.480  14.187  0.00  0.00    +0.000 NA
ATOM      2  H   UNL     1      48.465   4.633  14.043  0.00  0.00    +0.000 HD
ENDROOT
BRANCH   1   4
ATOM      3  C   UNL     1      49.488   7.235  15.051  0.00  0.00    +0.000 C 
ATOM      4  C   UNL     1      48.436   6.177  15.395  0.00  0.00    +0.000 C 
BRANCH   4   5
ATOM      5  C   UNL     1      48.937   5.231  16.521  0.00  0.00    +0.000 C 
ATOM      6  O   UNL     1      48.745   4.016  16.449  0.00  0.00    +0.000 OA
BRANCH   5   7
ATOM      7  C   UNL     1      49.655   5.783  17.688  0.00  0.00    +0.000 A 
ATOM      8  C   UNL     1      51.031   5.769  17.828  0.00  0.00    +0.000 A 
ATOM      9  S   UNL     1      51.586   6.698  19.152  0.00  0.00    +0.000 S 
ATOM     10  C   UNL     1      50.000   7.103  19.605  0.00  0.00    +0.000 A 
ATOM     11  N   UNL     1      49.746   7.950  20.640  0.00  0.00    +0.000 NA
ATOM     12  C   UNL     1      48.489   8.179  20.842  0.00  0.00    +0.000 A 
ATOM     13  N   UNL     1      47.464   7.609  20.132  0.00  0.00    +0.000 N 
ATOM     14  C   UNL     1      47.680   6.587  19.219  0.00  0.00    +0.000 A 
ATOM     15  O   UNL     1      46.788   5.798  18.928  0.00  0.00    +0.000 OA
ATOM     16  C   UNL     1      49.058   6.463  18.815  0.00  0.00    +0.000 A 
ATOM     17  H   UNL     1      46.508   7.732  20.431  0.00  0.00    +0.000 HD
ENDBRANCH   5   7
ENDBRANCH   4   5
ENDBRANCH   1   4
BRANCH   1  18
ATOM     18  C   UNL     1      46.499   5.084  14.236  0.00  0.00    +0.000 C 
BRANCH  18  19
ATOM     19  C   UNL     1      45.940   4.877  12.834  0.00  0.00    +0.000 A 
ATOM     20  C   UNL     1      45.345   3.663  12.457  0.00  0.00    +0.000 A 
ATOM     21  C   UNL     1      44.899   3.449  11.139  0.00  0.00    +0.000 A 
ATOM     22  C   UNL     1      45.076   4.427  10.145  0.00  0.00    +0.000 A 
ATOM     23  C   UNL     1      45.622   5.658  10.544  0.00  0.00    +0.000 A 
ATOM     24  C   UNL     1      46.041   5.881  11.866  0.00  0.00    +0.000 A 
BRANCH  22  25
ATOM     25  C   UNL     1      44.864   4.067   8.670  0.00  0.00    +0.000 C 
BRANCH  25  26
ATOM     26  O   UNL     1      43.870   3.035   8.658  0.00  0.00    +0.000 OA
ATOM     27  H   UNL     1      43.553   2.927   9.572  0.00  0.00    +0.000 HD
ENDBRANCH  25  26
BRANCH  25  28
ATOM     28  C   UNL     1      46.153   3.582   7.924  0.00  0.00    +0.000 C 
BRANCH  28  29
ATOM     29  N   UNL     1      46.058   2.429   6.989  0.00  0.00    +0.000 NA
ATOM     30  C   UNL     1      46.726   2.763   5.715  0.00  0.00    +0.000 C 
ATOM     31  C   UNL     1      48.194   2.411   5.922  0.00  0.00    +0.000 C 
ATOM     32  O   UNL     1      48.230   1.496   7.022  0.00  0.00    +0.000 OA
ATOM     33  C   UNL     1      46.867   1.276   7.398  0.00  0.00    +0.000 C 
ENDBRANCH  28  29
ENDBRANCH  25  28
ENDBRANCH  22  25
ENDBRANCH  18  19
ENDBRANCH   1  18
TORSDOF 9
ENDMDL
MODEL 8
REMARK VINA RESULT:    -6.402      2.434      3.080
REMARK INTER + INTRA:         -10.726
REMARK INTER:                  -9.592
REMARK INTRA:                  -1.133
REMARK UNBOUND:                -1.143
REMARK  Name = 
REMARK  10 active torsions:
REMARK  status: ('A' for Active; 'I' for Inactive)
REMARK    1  A    between atoms: C_1  and  C_2
REMARK    2  A    between atoms: C_2  and  N_3
REMARK    3  A    between atoms: C_2  and  C_19
REMARK    4  A    between atoms: N_3  and  C_4
REMARK    5  A    between atoms: C_4  and  C_5
REMARK    6  A    between atoms: C_8  and  C_9
REMARK    7  A    between atoms: C_9  and  O_10
REMARK    8  A    between atoms: C_9  and  C_11
REMARK    9  A    between atoms: C_11  and  N_12
REMARK   10  A    between atoms: C_19  and  C_21
REMARK                            x       y       z     vdW  Elec       q    Type
REMARK                         _______ _______ _______ _____ _____    ______ ____
ROOT
ATOM      1  N   UNL     1      50.399   6.814  15.123  0.00  0.00    +0.000 NA
ATOM      2  H   UNL     1      49.545   6.273  15.268  0.00  0.00    +0.000 HD
ENDROOT
BRANCH   1   4
ATOM      3  C   UNL     1      52.544   6.709  16.428  0.00  0.00    +0.000 C 
ATOM      4  C   UNL     1      51.046   7.027  16.448  0.00  0.00    +0.000 C 
BRANCH   4   5
ATOM      5  C   UNL     1      50.337   6.316  17.634  0.00  0.00    +0.000 C 
ATOM      6  O   UNL     1      50.161   6.905  18.702  0.00  0.00    +0.000 OA
BRANCH   5   7
ATOM      7  C   UNL     1      49.863   4.925  17.489  0.00  0.00    +0.000 A 
ATOM      8  C   UNL     1      48.586   4.581  17.084  0.00  0.00    +0.000 A 
ATOM      9  S   UNL     1      48.404   2.910  16.764  0.00  0.00    +0.000 S 
ATOM     10  C   UNL     1      50.013   2.593  17.206  0.00  0.00    +0.000 A 
ATOM     11  N   UNL     1      50.552   1.347  17.099  0.00  0.00    +0.000 NA
ATOM     12  C   UNL     1      51.795   1.275  17.450  0.00  0.00    +0.000 A 
ATOM     13  N   UNL     1      52.536   2.323  17.935  0.00  0.00    +0.000 N 
ATOM     14  C   UNL     1      51.962   3.545  18.253  0.00  0.00    +0.000 A 
ATOM     15  O   UNL     1      52.486   4.299  19.066  0.00  0.00    +0.000 OA
ATOM     16  C   UNL     1      50.651   3.729  17.680  0.00  0.00    +0.000 A 
ATOM     17  H   UNL     1      53.458   2.163  18.310  0.00  0.00    +0.000 HD
ENDBRANCH   5   7
ENDBRANCH   4   5
ENDBRANCH   1   4
BRANCH   1  18
ATOM     18  C   UNL     1      50.035   8.030  14.384  0.00  0.00    +0.000 C 
BRANCH  18  19
ATOM     19  C   UNL     1      48.746   7.827  13.599  0.00  0.00    +0.000 A 
ATOM     20  C   UNL     1      47.672   8.723  13.713  0.00  0.00    +0.000 A 
ATOM     21  C   UNL     1      46.455   8.491  13.045  0.00  0.00    +0.000 A 
ATOM     22  C   UNL     1      46.259   7.330  12.277  0.00  0.00    +0.000 A 
ATOM     23  C   UNL     1      47.356   6.467  12.123  0.00  0.00    +0.000 A 
ATOM     24  C   UNL     1      48.579   6.714  12.768  0.00  0.00    +0.000 A 
BRANCH  22  25
ATOM     25  C   UNL     1      44.848   6.948  11.812  0.00  0.00    +0.000 C 
BRANCH  25  26
ATOM     26  O   UNL     1      44.123   8.180  11.713  0.00  0.00    +0.000 OA
ATOM     27  H   UNL     1      43.178   7.955  11.639  0.00  0.00    +0.000 HD
ENDBRANCH  25  26
BRANCH  25  28
ATOM     28  C   UNL     1      44.094   5.955  12.759  0.00  0.00    +0.000 C 
BRANCH  28  29
ATOM     29  N   UNL     1      43.267   4.872  12.163  0.00  0.00    +0.000 NA
ATOM     30  C   UNL     1      43.839   4.466  10.862  0.00  0.00    +0.000 C 
ATOM     31  C   UNL     1      44.890   3.414  11.192  0.00  0.00    +0.000 C 
ATOM     32  O   UNL     1      44.563   2.923  12.496  0.00  0.00    +0.000 OA
ATOM     33  C   UNL     1      43.363   3.599  12.884  0.00  0.00    +0.000 C 
ENDBRANCH  28  29
ENDBRANCH  25  28
ENDBRANCH  22  25
ENDBRANCH  18  19
ENDBRANCH   1  18
TORSDOF 9
ENDMDL
MODEL 9
REMARK VINA RESULT:    -6.276      2.969      3.640
REMARK INTER + INTRA:         -10.538
REMARK INTER:                  -9.447
REMARK INTRA:                  -1.091
REMARK UNBOUND:                -1.143
REMARK  Name = 
REMARK  10 active torsions:
REMARK  status: ('A' for Active; 'I' for Inactive)
REMARK    1  A    between atoms: C_1  and  C_2
REMARK    2  A    between atoms: C_2  and  N_3
REMARK    3  A    between atoms: C_2  and  C_19
REMARK    4  A    between atoms: N_3  and  C_4
REMARK    5  A    between atoms: C_4  and  C_5
REMARK    6  A    between atoms: C_8  and  C_9
REMARK    7  A    between atoms: C_9  and  O_10
REMARK    8  A    between atoms: C_9  and  C_11
REMARK    9  A    between atoms: C_11  and  N_12
REMARK   10  A    between atoms: C_19  and  C_21
REMARK                            x       y       z     vdW  Elec       q    Type
REMARK                         _______ _______ _______ _____ _____    ______ ____
ROOT
ATOM      1  N   UNL     1      48.066   8.144  14.598  0.00  0.00    +0.000 NA
ATOM      2  H   UNL     1      47.549   8.588  15.358  0.00  0.00    +0.000 HD
ENDROOT
BRANCH   1   4
ATOM      3  C   UNL     1      50.207   8.576  13.355  0.00  0.00    +0.000 C 
ATOM      4  C   UNL     1      49.496   8.544  14.711  0.00  0.00    +0.000 C 
BRANCH   4   5
ATOM      5  C   UNL     1      50.314   7.733  15.755  0.00  0.00    +0.000 C 
ATOM      6  O   UNL     1      51.347   7.149  15.424  0.00  0.00    +0.000 OA
BRANCH   5   7
ATOM      7  C   UNL     1      49.859   7.659  17.158  0.00  0.00    +0.000 A 
ATOM      8  C   UNL     1      50.275   8.524  18.153  0.00  0.00    +0.000 A 
ATOM      9  S   UNL     1      49.393   8.356  19.609  0.00  0.00    +0.000 S 
ATOM     10  C   UNL     1      48.465   7.088  18.966  0.00  0.00    +0.000 A 
ATOM     11  N   UNL     1      47.451   6.514  19.671  0.00  0.00    +0.000 NA
ATOM     12  C   UNL     1      46.823   5.580  19.033  0.00  0.00    +0.000 A 
ATOM     13  N   UNL     1      47.141   5.140  17.774  0.00  0.00    +0.000 N 
ATOM     14  C   UNL     1      48.291   5.553  17.118  0.00  0.00    +0.000 A 
ATOM     15  O   UNL     1      48.800   4.868  16.238  0.00  0.00    +0.000 OA
ATOM     16  C   UNL     1      48.885   6.735  17.693  0.00  0.00    +0.000 A 
ATOM     17  H   UNL     1      46.692   4.321  17.393  0.00  0.00    +0.000 HD
ENDBRANCH   5   7
ENDBRANCH   4   5
ENDBRANCH   1   4
BRANCH   1  18
ATOM     18  C   UNL     1      47.397   8.499  13.339  0.00  0.00    +0.000 C 
BRANCH  18  19
ATOM     19  C   UNL     1      46.425   7.408  12.910  0.00  0.00    +0.000 A 
ATOM     20  C   UNL     1      46.689   6.053  13.162  0.00  0.00    +0.000 A 
ATOM     21  C   UNL     1      45.826   5.044  12.697  0.00  0.00    +0.000 A 
ATOM     22  C   UNL     1      44.693   5.356  11.926  0.00  0.00    +0.000 A 
ATOM     23  C   UNL     1      44.406   6.717  11.726  0.00  0.00    +0.000 A 
ATOM     24  C   UNL     1      45.254   7.724  12.214  0.00  0.00    +0.000 A 
BRANCH  22  25
ATOM     25  C   UNL     1      43.942   4.245  11.182  0.00  0.00    +0.000 C 
BRANCH  25  26
ATOM     26  O   UNL     1      43.160   3.570  12.175  0.00  0.00    +0.000 OA
ATOM     27  H   UNL     1      42.440   4.170  12.436  0.00  0.00    +0.000 HD
ENDBRANCH  25  26
BRANCH  25  28
ATOM     28  C   UNL     1      44.862   3.222  10.434  0.00  0.00    +0.000 C 
BRANCH  28  29
ATOM     29  N   UNL     1      44.420   2.674   9.124  0.00  0.00    +0.000 NA
ATOM     30  C   UNL     1      44.772   3.618   8.043  0.00  0.00    +0.000 C 
ATOM     31  C   UNL     1      46.202   3.271   7.651  0.00  0.00    +0.000 C 
ATOM     32  O   UNL     1      46.427   1.936   8.116  0.00  0.00    +0.000 OA
ATOM     33  C   UNL     1      45.191   1.503   8.691  0.00  0.00    +0.000 C 
ENDBRANCH  28  29
ENDBRANCH  25  28
ENDBRANCH  22  25
ENDBRANCH  18  19
ENDBRANCH   1  18
TORSDOF 9
ENDMDL
