MODEL 1
REMARK VINA RESULT:    -8.651      0.000      0.000
REMARK INTER + INTRA:         -12.228
REMARK INTER:                 -11.180
REMARK INTRA:                  -1.048
REMARK UNBOUND:                -1.048
REMARK  Name = 
REMARK  5 active torsions:
REMARK  status: ('A' for Active; 'I' for Inactive)
REMARK    1  A    between atoms: C_2  and  C_4
REMARK    2  A    between atoms: C_7  and  N_8
REMARK    3  A    between atoms: N_8  and  C_9
REMARK    4  A    between atoms: C_9  and  C_10
REMARK    5  A    between atoms: C_14  and  C_15
REMARK                            x       y       z     vdW  Elec       q    Type
REMARK                         _______ _______ _______ _____ _____    ______ ____
ROOT
ATOM      1  N   UNL     1      43.768   4.908   9.870  0.00  0.00    +0.000 N 
ATOM      2  H   UNL     1      42.921   5.190   9.387  0.00  0.00    +0.000 HD
ENDROOT
BRANCH   1   6
ATOM      3  C   UNL     1      46.346   2.260   7.823  0.00  0.00    +0.000 A 
ATOM      4  C   UNL     1      45.384   1.748   8.693  0.00  0.00    +0.000 A 
ATOM      5  C   UNL     1      44.511   2.614   9.352  0.00  0.00    +0.000 A 
ATOM      6  C   UNL     1      44.547   4.001   9.145  0.00  0.00    +0.000 A 
ATOM      7  C   UNL     1      45.517   4.496   8.262  0.00  0.00    +0.000 A 
ATOM      8  C   UNL     1      46.414   3.639   7.611  0.00  0.00    +0.000 A 
BRANCH   3  10
ATOM      9  N   UNL     1      48.398   1.969   6.541  0.00  0.00    +0.000 N 
ATOM     10  C   UNL     1      47.342   1.373   7.172  0.00  0.00    +0.000 C 
ATOM     11  O   UNL     1      47.240   0.153   7.211  0.00  0.00    +0.000 OA
ATOM     12  H   UNL     1      49.106   1.352   6.163  0.00  0.00    +0.000 HD
ATOM     13  H   UNL     1      48.646   2.936   6.695  0.00  0.00    +0.000 HD
ENDBRANCH   3  10
ENDBRANCH   1   6
BRANCH   1  14
ATOM     14  C   UNL     1      43.604   4.697  11.301  0.00  0.00    +0.000 C 
BRANCH  14  15
ATOM     15  C   UNL     1      44.838   5.060  12.084  0.00  0.00    +0.000 A 
ATOM     16  C   UNL     1      45.430   4.127  12.939  0.00  0.00    +0.000 A 
ATOM     17  C   UNL     1      46.642   4.413  13.556  0.00  0.00    +0.000 A 
ATOM     18  C   UNL     1      47.280   5.633  13.315  0.00  0.00    +0.000 A 
ATOM     19  C   UNL     1      46.719   6.599  12.458  0.00  0.00    +0.000 A 
ATOM     20  C   UNL     1      45.476   6.295  11.871  0.00  0.00    +0.000 A 
BRANCH  19  21
ATOM     21  C   UNL     1      47.429   7.858  12.152  0.00  0.00    +0.000 A 
ATOM     22  C   UNL     1      48.779   7.889  11.777  0.00  0.00    +0.000 A 
ATOM     23  C   UNL     1      49.417   9.099  11.507  0.00  0.00    +0.000 A 
ATOM     24  C   UNL     1      48.687  10.265  11.617  0.00  0.00    +0.000 A 
ATOM     25  N   UNL     1      47.389  10.301  11.982  0.00  0.00    +0.000 NA
ATOM     26  C   UNL     1      46.804   9.106  12.246  0.00  0.00    +0.000 A 
ENDBRANCH  19  21
ENDBRANCH  14  15
ENDBRANCH   1  14
TORSDOF 5
ENDMDL
MODEL 2
REMARK VINA RESULT:    -8.493      2.374      3.675
REMARK INTER + INTRA:         -12.024
REMARK INTER:                 -11.134
REMARK INTRA:                  -0.890
REMARK UNBOUND:                -1.048
REMARK  Name = 
REMARK  5 active torsions:
REMARK  status: ('A' for Active; 'I' for Inactive)
REMARK    1  A    between atoms: C_2  and  C_4
REMARK    2  A    between atoms: C_7  and  N_8
REMARK    3  A    between atoms: N_8  and  C_9
REMARK    4  A    between atoms: C_9  and  C_10
REMARK    5  A    between atoms: C_14  and  C_15
REMARK                            x       y       z     vdW  Elec       q    Type
REMARK                         _______ _______ _______ _____ _____    ______ ____
ROOT
ATOM      1  N   UNL     1      43.982   5.090   9.878  0.00  0.00    +0.000 N 
ATOM      2  H   UNL     1      43.077   5.325   9.481  0.00  0.00    +0.000 HD
ENDROOT
BRANCH   1   6
ATOM      3  C   UNL     1      46.195   2.040   7.968  0.00  0.00    +0.000 A 
ATOM      4  C   UNL     1      45.229   1.700   8.914  0.00  0.00    +0.000 A 
ATOM      5  C   UNL     1      44.475   2.700   9.530  0.00  0.00    +0.000 A 
ATOM      6  C   UNL     1      44.636   4.054   9.204  0.00  0.00    +0.000 A 
ATOM      7  C   UNL     1      45.607   4.377   8.246  0.00  0.00    +0.000 A 
ATOM      8  C   UNL     1      46.385   3.384   7.636  0.00  0.00    +0.000 A 
BRANCH   3  10
ATOM      9  N   UNL     1      46.799  -0.299   7.649  0.00  0.00    +0.000 N 
ATOM     10  C   UNL     1      47.069   1.009   7.357  0.00  0.00    +0.000 C 
ATOM     11  O   UNL     1      47.986   1.307   6.601  0.00  0.00    +0.000 OA
ATOM     12  H   UNL     1      47.357  -0.995   7.171  0.00  0.00    +0.000 HD
ATOM     13  H   UNL     1      45.923  -0.594   8.058  0.00  0.00    +0.000 HD
ENDBRANCH   3  10
ENDBRANCH   1   6
BRANCH   1  14
ATOM     14  C   UNL     1      44.026   5.111  11.333  0.00  0.00    +0.000 C 
BRANCH  14  15
ATOM     15  C   UNL     1      45.376   5.511  11.866  0.00  0.00    +0.000 A 
ATOM     16  C   UNL     1      46.126   6.496  11.218  0.00  0.00    +0.000 A 
ATOM     17  C   UNL     1      47.307   6.962  11.783  0.00  0.00    +0.000 A 
ATOM     18  C   UNL     1      47.745   6.453  13.009  0.00  0.00    +0.000 A 
ATOM     19  C   UNL     1      47.017   5.462  13.696  0.00  0.00    +0.000 A 
ATOM     20  C   UNL     1      45.841   4.987  13.085  0.00  0.00    +0.000 A 
BRANCH  19  21
ATOM     21  C   UNL     1      47.448   4.977  15.023  0.00  0.00    +0.000 A 
ATOM     22  C   UNL     1      48.288   5.722  15.862  0.00  0.00    +0.000 A 
ATOM     23  C   UNL     1      48.681   5.224  17.103  0.00  0.00    +0.000 A 
ATOM     24  C   UNL     1      48.222   3.981  17.488  0.00  0.00    +0.000 A 
ATOM     25  N   UNL     1      47.418   3.213  16.723  0.00  0.00    +0.000 NA
ATOM     26  C   UNL     1      47.065   3.725  15.517  0.00  0.00    +0.000 A 
ENDBRANCH  19  21
ENDBRANCH  14  15
ENDBRANCH   1  14
TORSDOF 5
ENDMDL
MODEL 3
REMARK VINA RESULT:    -7.830      1.703      2.602
REMARK INTER + INTRA:         -11.168
REMARK INTER:                 -10.331
REMARK INTRA:                  -0.836
REMARK UNBOUND:                -1.048
REMARK  Name = 
REMARK  5 active torsions:
REMARK  status: ('A' for Active; 'I' for Inactive)
REMARK    1  A    between atoms: C_2  and  C_4
REMARK    2  A    between atoms: C_7  and  N_8
REMARK    3  A    between atoms: N_8  and  C_9
REMARK    4  A    between atoms: C_9  and  C_10
REMARK    5  A    between atoms: C_14  and  C_15
REMARK                            x       y       z     vdW  Elec       q    Type
REMARK                         _______ _______ _______ _____ _____    ______ ____
ROOT
ATOM      1  N   UNL     1      43.808   4.728  10.050  0.00  0.00    +0.000 N 
ATOM      2  H   UNL     1      42.862   4.422   9.845  0.00  0.00    +0.000 HD
ENDROOT
BRANCH   1   6
ATOM      3  C   UNL     1      46.560   2.522   7.726  0.00  0.00    +0.000 A 
ATOM      4  C   UNL     1      46.543   3.913   7.635  0.00  0.00    +0.000 A 
ATOM      5  C   UNL     1      45.656   4.651   8.419  0.00  0.00    +0.000 A 
ATOM      6  C   UNL     1      44.788   4.035   9.332  0.00  0.00    +0.000 A 
ATOM      7  C   UNL     1      44.824   2.636   9.415  0.00  0.00    +0.000 A 
ATOM      8  C   UNL     1      45.695   1.882   8.616  0.00  0.00    +0.000 A 
BRANCH   3  10
ATOM      9  N   UNL     1      48.511   2.323   6.279  0.00  0.00    +0.000 N 
ATOM     10  C   UNL     1      47.432   1.705   6.846  0.00  0.00    +0.000 C 
ATOM     11  O   UNL     1      47.213   0.516   6.647  0.00  0.00    +0.000 OA
ATOM     12  H   UNL     1      49.137   1.738   5.739  0.00  0.00    +0.000 HD
ATOM     13  H   UNL     1      48.860   3.214   6.606  0.00  0.00    +0.000 HD
ENDBRANCH   3  10
ENDBRANCH   1   6
BRANCH   1  14
ATOM     14  C   UNL     1      44.054   5.026  11.454  0.00  0.00    +0.000 C 
BRANCH  14  15
ATOM     15  C   UNL     1      44.824   6.306  11.647  0.00  0.00    +0.000 A 
ATOM     16  C   UNL     1      44.252   7.532  11.298  0.00  0.00    +0.000 A 
ATOM     17  C   UNL     1      44.905   8.721  11.602  0.00  0.00    +0.000 A 
ATOM     18  C   UNL     1      46.134   8.695  12.268  0.00  0.00    +0.000 A 
ATOM     19  C   UNL     1      46.742   7.480  12.640  0.00  0.00    +0.000 A 
ATOM     20  C   UNL     1      46.073   6.292  12.293  0.00  0.00    +0.000 A 
BRANCH  19  21
ATOM     21  C   UNL     1      48.007   7.459  13.404  0.00  0.00    +0.000 A 
ATOM     22  C   UNL     1      49.088   8.296  13.095  0.00  0.00    +0.000 A 
ATOM     23  C   UNL     1      50.269   8.238  13.833  0.00  0.00    +0.000 A 
ATOM     24  C   UNL     1      50.349   7.339  14.876  0.00  0.00    +0.000 A 
ATOM     25  N   UNL     1      49.347   6.502  15.217  0.00  0.00    +0.000 NA
ATOM     26  C   UNL     1      48.217   6.578  14.470  0.00  0.00    +0.000 A 
ENDBRANCH  19  21
ENDBRANCH  14  15
ENDBRANCH   1  14
TORSDOF 5
ENDMDL
MODEL 4
REMARK VINA RESULT:    -7.475      2.599      6.722
REMARK INTER + INTRA:         -10.708
REMARK INTER:                  -9.805
REMARK INTRA:                  -0.903
REMARK UNBOUND:                -1.048
REMARK  Name = 
REMARK  5 active torsions:
REMARK  status: ('A' for Active; 'I' for Inactive)
REMARK    1  A    between atoms: C_2  and  C_4
REMARK    2  A    between atoms: C_7  and  N_8
REMARK    3  A    between atoms: N_8  and  C_9
REMARK    4  A    between atoms: C_9  and  C_10
REMARK    5  A    between atoms: C_14  and  C_15
REMARK                            x       y       z     vdW  Elec       q    Type
REMARK                         _______ _______ _______ _____ _____    ______ ____
ROOT
ATOM      1  N   UNL     1      44.477   7.003  12.597  0.00  0.00    +0.000 N 
ATOM      2  H   UNL     1      43.924   7.653  13.148  0.00  0.00    +0.000 HD
ENDROOT
BRANCH   1   6
ATOM      3  C   UNL     1      48.631   7.730  12.350  0.00  0.00    +0.000 A 
ATOM      4  C   UNL     1      47.734   8.756  12.054  0.00  0.00    +0.000 A 
ATOM      5  C   UNL     1      46.361   8.532  12.159  0.00  0.00    +0.000 A 
ATOM      6  C   UNL     1      45.843   7.301  12.588  0.00  0.00    +0.000 A 
ATOM      7  C   UNL     1      46.759   6.284  12.887  0.00  0.00    +0.000 A 
ATOM      8  C   UNL     1      48.140   6.490  12.764  0.00  0.00    +0.000 A 
BRANCH   3  10
ATOM      9  N   UNL     1      50.894   7.689  13.252  0.00  0.00    +0.000 N 
ATOM     10  C   UNL     1      50.092   7.911  12.168  0.00  0.00    +0.000 C 
ATOM     11  O   UNL     1      50.572   8.227  11.085  0.00  0.00    +0.000 OA
ATOM     12  H   UNL     1      51.893   7.746  13.095  0.00  0.00    +0.000 HD
ATOM     13  H   UNL     1      50.571   7.198  14.074  0.00  0.00    +0.000 HD
ENDBRANCH   3  10
ENDBRANCH   1   6
BRANCH   1  14
ATOM     14  C   UNL     1      43.848   6.581  11.354  0.00  0.00    +0.000 C 
BRANCH  14  15
ATOM     15  C   UNL     1      44.019   5.108  11.090  0.00  0.00    +0.000 A 
ATOM     16  C   UNL     1      43.279   4.172  11.815  0.00  0.00    +0.000 A 
ATOM     17  C   UNL     1      43.334   2.824  11.479  0.00  0.00    +0.000 A 
ATOM     18  C   UNL     1      44.125   2.401  10.407  0.00  0.00    +0.000 A 
ATOM     19  C   UNL     1      44.883   3.313   9.649  0.00  0.00    +0.000 A 
ATOM     20  C   UNL     1      44.832   4.667  10.030  0.00  0.00    +0.000 A 
BRANCH  19  21
ATOM     21  C   UNL     1      45.664   2.872   8.475  0.00  0.00    +0.000 A 
ATOM     22  C   UNL     1      45.980   3.731   7.414  0.00  0.00    +0.000 A 
ATOM     23  C   UNL     1      46.709   3.273   6.318  0.00  0.00    +0.000 A 
ATOM     24  C   UNL     1      47.114   1.955   6.302  0.00  0.00    +0.000 A 
ATOM     25  N   UNL     1      46.833   1.077   7.287  0.00  0.00    +0.000 NA
ATOM     26  C   UNL     1      46.113   1.554   8.333  0.00  0.00    +0.000 A 
ENDBRANCH  19  21
ENDBRANCH  14  15
ENDBRANCH   1  14
TORSDOF 5
ENDMDL
MODEL 5
REMARK VINA RESULT:    -6.812      3.294      7.333
REMARK INTER + INTRA:          -9.852
REMARK INTER:                  -9.360
REMARK INTRA:                  -0.492
REMARK UNBOUND:                -1.048
REMARK  Name = 
REMARK  5 active torsions:
REMARK  status: ('A' for Active; 'I' for Inactive)
REMARK    1  A    between atoms: C_2  and  C_4
REMARK    2  A    between atoms: C_7  and  N_8
REMARK    3  A    between atoms: N_8  and  C_9
REMARK    4  A    between atoms: C_9  and  C_10
REMARK    5  A    between atoms: C_14  and  C_15
REMARK                            x       y       z     vdW  Elec       q    Type
REMARK                         _______ _______ _______ _____ _____    ______ ____
ROOT
ATOM      1  N   UNL     1      46.326   6.500  11.976  0.00  0.00    +0.000 N 
ATOM      2  H   UNL     1      46.972   6.307  11.216  0.00  0.00    +0.000 HD
ENDROOT
BRANCH   1   6
ATOM      3  C   UNL     1      47.967   5.224  15.654  0.00  0.00    +0.000 A 
ATOM      4  C   UNL     1      48.374   6.439  15.103  0.00  0.00    +0.000 A 
ATOM      5  C   UNL     1      47.816   6.881  13.902  0.00  0.00    +0.000 A 
ATOM      6  C   UNL     1      46.825   6.148  13.234  0.00  0.00    +0.000 A 
ATOM      7  C   UNL     1      46.424   4.933  13.805  0.00  0.00    +0.000 A 
ATOM      8  C   UNL     1      46.992   4.468  15.000  0.00  0.00    +0.000 A 
BRANCH   3  10
ATOM      9  N   UNL     1      47.825   4.610  18.008  0.00  0.00    +0.000 N 
ATOM     10  C   UNL     1      48.599   4.688  16.884  0.00  0.00    +0.000 C 
ATOM     11  O   UNL     1      49.764   4.309  16.896  0.00  0.00    +0.000 OA
ATOM     12  H   UNL     1      48.247   4.177  18.819  0.00  0.00    +0.000 HD
ATOM     13  H   UNL     1      46.817   4.677  17.977  0.00  0.00    +0.000 HD
ENDBRANCH   3  10
ENDBRANCH   1   6
BRANCH   1  14
ATOM     14  C   UNL     1      44.934   6.206  11.671  0.00  0.00    +0.000 C 
BRANCH  14  15
ATOM     15  C   UNL     1      44.739   4.808  11.145  0.00  0.00    +0.000 A 
ATOM     16  C   UNL     1      43.732   3.993  11.667  0.00  0.00    +0.000 A 
ATOM     17  C   UNL     1      43.463   2.757  11.091  0.00  0.00    +0.000 A 
ATOM     18  C   UNL     1      44.193   2.329   9.979  0.00  0.00    +0.000 A 
ATOM     19  C   UNL     1      45.213   3.122   9.420  0.00  0.00    +0.000 A 
ATOM     20  C   UNL     1      45.485   4.355  10.042  0.00  0.00    +0.000 A 
BRANCH  19  21
ATOM     21  C   UNL     1      45.936   2.696   8.204  0.00  0.00    +0.000 A 
ATOM     22  C   UNL     1      46.148   3.552   7.115  0.00  0.00    +0.000 A 
ATOM     23  C   UNL     1      46.825   3.109   5.980  0.00  0.00    +0.000 A 
ATOM     24  C   UNL     1      47.284   1.809   5.954  0.00  0.00    +0.000 A 
ATOM     25  N   UNL     1      47.104   0.935   6.966  0.00  0.00    +0.000 NA
ATOM     26  C   UNL     1      46.432   1.397   8.050  0.00  0.00    +0.000 A 
ENDBRANCH  19  21
ENDBRANCH  14  15
ENDBRANCH   1  14
TORSDOF 5
ENDMDL
MODEL 6
REMARK VINA RESULT:    -6.554      4.579      8.135
REMARK INTER + INTRA:          -9.518
REMARK INTER:                  -9.026
REMARK INTRA:                  -0.492
REMARK UNBOUND:                -1.048
REMARK  Name = 
REMARK  5 active torsions:
REMARK  status: ('A' for Active; 'I' for Inactive)
REMARK    1  A    between atoms: C_2  and  C_4
REMARK    2  A    between atoms: C_7  and  N_8
REMARK    3  A    between atoms: N_8  and  C_9
REMARK    4  A    between atoms: C_9  and  C_10
REMARK    5  A    between atoms: C_14  and  C_15
REMARK                            x       y       z     vdW  Elec       q    Type
REMARK                         _______ _______ _______ _____ _____    ______ ____
ROOT
ATOM      1  N   UNL     1      46.561   4.043  14.745  0.00  0.00    +0.000 N 
ATOM      2  H   UNL     1      45.901   3.278  14.847  0.00  0.00    +0.000 HD
ENDROOT
BRANCH   1   6
ATOM      3  C   UNL     1      49.082   4.519  18.101  0.00  0.00    +0.000 A 
ATOM      4  C   UNL     1      48.975   5.551  17.169  0.00  0.00    +0.000 A 
ATOM      5  C   UNL     1      48.124   5.413  16.073  0.00  0.00    +0.000 A 
ATOM      6  C   UNL     1      47.337   4.267  15.887  0.00  0.00    +0.000 A 
ATOM      7  C   UNL     1      47.453   3.242  16.836  0.00  0.00    +0.000 A 
ATOM      8  C   UNL     1      48.322   3.360  17.931  0.00  0.00    +0.000 A 
BRANCH   3  10
ATOM      9  N   UNL     1      49.561   4.332  20.483  0.00  0.00    +0.000 N 
ATOM     10  C   UNL     1      50.040   4.601  19.232  0.00  0.00    +0.000 C 
ATOM     11  O   UNL     1      51.220   4.878  19.057  0.00  0.00    +0.000 OA
ATOM     12  H   UNL     1      50.239   4.322  21.235  0.00  0.00    +0.000 HD
ATOM     13  H   UNL     1      48.676   3.868  20.637  0.00  0.00    +0.000 HD
ENDBRANCH   3  10
ENDBRANCH   1   6
BRANCH   1  14
ATOM     14  C   UNL     1      46.043   5.194  14.020  0.00  0.00    +0.000 C 
BRANCH  14  15
ATOM     15  C   UNL     1      45.111   4.802  12.904  0.00  0.00    +0.000 A 
ATOM     16  C   UNL     1      43.745   5.082  12.995  0.00  0.00    +0.000 A 
ATOM     17  C   UNL     1      42.908   4.845  11.911  0.00  0.00    +0.000 A 
ATOM     18  C   UNL     1      43.431   4.335  10.720  0.00  0.00    +0.000 A 
ATOM     19  C   UNL     1      44.801   4.042  10.586  0.00  0.00    +0.000 A 
ATOM     20  C   UNL     1      45.620   4.263  11.709  0.00  0.00    +0.000 A 
BRANCH  19  21
ATOM     21  C   UNL     1      45.362   3.567   9.304  0.00  0.00    +0.000 A 
ATOM     22  C   UNL     1      45.541   2.207   9.018  0.00  0.00    +0.000 A 
ATOM     23  C   UNL     1      46.084   1.799   7.801  0.00  0.00    +0.000 A 
ATOM     24  C   UNL     1      46.438   2.765   6.882  0.00  0.00    +0.000 A 
ATOM     25  N   UNL     1      46.299   4.089   7.102  0.00  0.00    +0.000 NA
ATOM     26  C   UNL     1      45.777   4.450   8.301  0.00  0.00    +0.000 A 
ENDBRANCH  19  21
ENDBRANCH  14  15
ENDBRANCH   1  14
TORSDOF 5
ENDMDL
MODEL 7
REMARK VINA RESULT:    -6.371      3.048      6.863
REMARK INTER + INTRA:          -9.281
REMARK INTER:                  -8.480
REMARK INTRA:                  -0.802
REMARK UNBOUND:                -1.048
REMARK  Name = 
REMARK  5 active torsions:
REMARK  status: ('A' for Active; 'I' for Inactive)
REMARK    1  A    between atoms: C_2  and  C_4
REMARK    2  A    between atoms: C_7  and  N_8
REMARK    3  A    between atoms: N_8  and  C_9
REMARK    4  A    between atoms: C_9  and  C_10
REMARK    5  A    between atoms: C_14  and  C_15
REMARK                            x       y       z     vdW  Elec       q    Type
REMARK                         _______ _______ _______ _____ _____    ______ ____
ROOT
ATOM      1  N   UNL     1      46.390   7.287  13.212  0.00  0.00    +0.000 N 
ATOM      2  H   UNL     1      46.316   7.551  14.190  0.00  0.00    +0.000 HD
ENDROOT
BRANCH   1   6
ATOM      3  C   UNL     1      49.894   8.957  11.544  0.00  0.00    +0.000 A 
ATOM      4  C   UNL     1      49.849   7.593  11.829  0.00  0.00    +0.000 A 
ATOM      5  C   UNL     1      48.686   7.028  12.354  0.00  0.00    +0.000 A 
ATOM      6  C   UNL     1      47.532   7.791  12.582  0.00  0.00    +0.000 A 
ATOM      7  C   UNL     1      47.593   9.159  12.285  0.00  0.00    +0.000 A 
ATOM      8  C   UNL     1      48.763   9.742  11.777  0.00  0.00    +0.000 A 
BRANCH   3  10
ATOM      9  N   UNL     1      52.072   8.802  10.461  0.00  0.00    +0.000 N 
ATOM     10  C   UNL     1      51.141   9.602  11.064  0.00  0.00    +0.000 C 
ATOM     11  O   UNL     1      51.328  10.807  11.179  0.00  0.00    +0.000 OA
ATOM     12  H   UNL     1      52.884   9.265  10.075  0.00  0.00    +0.000 HD
ATOM     13  H   UNL     1      51.855   7.871  10.132  0.00  0.00    +0.000 HD
ENDBRANCH   3  10
ENDBRANCH   1   6
BRANCH   1  14
ATOM     14  C   UNL     1      45.128   7.309  12.486  0.00  0.00    +0.000 C 
BRANCH  14  15
ATOM     15  C   UNL     1      44.707   5.941  12.017  0.00  0.00    +0.000 A 
ATOM     16  C   UNL     1      43.606   5.306  12.596  0.00  0.00    +0.000 A 
ATOM     17  C   UNL     1      43.134   4.107  12.073  0.00  0.00    +0.000 A 
ATOM     18  C   UNL     1      43.755   3.537  10.958  0.00  0.00    +0.000 A 
ATOM     19  C   UNL     1      44.866   4.146  10.344  0.00  0.00    +0.000 A 
ATOM     20  C   UNL     1      45.341   5.343  10.913  0.00  0.00    +0.000 A 
BRANCH  19  21
ATOM     21  C   UNL     1      45.477   3.576   9.126  0.00  0.00    +0.000 A 
ATOM     22  C   UNL     1      45.670   2.198   8.954  0.00  0.00    +0.000 A 
ATOM     23  C   UNL     1      46.260   1.699   7.794  0.00  0.00    +0.000 A 
ATOM     24  C   UNL     1      46.648   2.593   6.818  0.00  0.00    +0.000 A 
ATOM     25  N   UNL     1      46.498   3.929   6.928  0.00  0.00    +0.000 NA
ATOM     26  C   UNL     1      45.929   4.380   8.074  0.00  0.00    +0.000 A 
ENDBRANCH  19  21
ENDBRANCH  14  15
ENDBRANCH   1  14
TORSDOF 5
ENDMDL
MODEL 8
REMARK VINA RESULT:    -6.152      3.511      5.730
REMARK INTER + INTRA:          -8.999
REMARK INTER:                  -8.131
REMARK INTRA:                  -0.868
REMARK UNBOUND:                -1.048
REMARK  Name = 
REMARK  5 active torsions:
REMARK  status: ('A' for Active; 'I' for Inactive)
REMARK    1  A    between atoms: C_2  and  C_4
REMARK    2  A    between atoms: C_7  and  N_8
REMARK    3  A    between atoms: N_8  and  C_9
REMARK    4  A    between atoms: C_9  and  C_10
REMARK    5  A    between atoms: C_14  and  C_15
REMARK                            x       y       z     vdW  Elec       q    Type
REMARK                         _______ _______ _______ _____ _____    ______ ____
ROOT
ATOM      1  N   UNL     1      46.684   7.891  12.208  0.00  0.00    +0.000 N 
ATOM      2  H   UNL     1      46.271   8.480  12.925  0.00  0.00    +0.000 HD
ENDROOT
BRANCH   1   6
ATOM      3  C   UNL     1      44.632   4.320  11.269  0.00  0.00    +0.000 A 
ATOM      4  C   UNL     1      44.612   4.802  12.577  0.00  0.00    +0.000 A 
ATOM      5  C   UNL     1      45.264   5.995  12.890  0.00  0.00    +0.000 A 
ATOM      6  C   UNL     1      45.925   6.754  11.914  0.00  0.00    +0.000 A 
ATOM      7  C   UNL     1      45.930   6.258  10.603  0.00  0.00    +0.000 A 
ATOM      8  C   UNL     1      45.296   5.049  10.281  0.00  0.00    +0.000 A 
BRANCH   3  10
ATOM      9  N   UNL     1      44.651   2.252   9.979  0.00  0.00    +0.000 N 
ATOM     10  C   UNL     1      44.018   3.014  10.921  0.00  0.00    +0.000 C 
ATOM     11  O   UNL     1      42.997   2.617  11.468  0.00  0.00    +0.000 OA
ATOM     12  H   UNL     1      44.262   1.334   9.804  0.00  0.00    +0.000 HD
ATOM     13  H   UNL     1      45.604   2.425   9.692  0.00  0.00    +0.000 HD
ENDBRANCH   3  10
ENDBRANCH   1   6
BRANCH   1  14
ATOM     14  C   UNL     1      48.131   7.758  12.298  0.00  0.00    +0.000 C 
BRANCH  14  15
ATOM     15  C   UNL     1      48.614   7.638  13.719  0.00  0.00    +0.000 A 
ATOM     16  C   UNL     1      49.158   8.745  14.374  0.00  0.00    +0.000 A 
ATOM     17  C   UNL     1      49.477   8.673  15.725  0.00  0.00    +0.000 A 
ATOM     18  C   UNL     1      49.243   7.493  16.438  0.00  0.00    +0.000 A 
ATOM     19  C   UNL     1      48.693   6.356  15.816  0.00  0.00    +0.000 A 
ATOM     20  C   UNL     1      48.409   6.448  14.440  0.00  0.00    +0.000 A 
BRANCH  19  21
ATOM     21  C   UNL     1      48.385   5.134  16.587  0.00  0.00    +0.000 A 
ATOM     22  C   UNL     1      49.252   4.619  17.560  0.00  0.00    +0.000 A 
ATOM     23  C   UNL     1      48.930   3.457  18.259  0.00  0.00    +0.000 A 
ATOM     24  C   UNL     1      47.737   2.826  17.972  0.00  0.00    +0.000 A 
ATOM     25  N   UNL     1      46.866   3.268  17.042  0.00  0.00    +0.000 NA
ATOM     26  C   UNL     1      47.216   4.395  16.374  0.00  0.00    +0.000 A 
ENDBRANCH  19  21
ENDBRANCH  14  15
ENDBRANCH   1  14
TORSDOF 5
ENDMDL
MODEL 9
REMARK VINA RESULT:    -5.992      5.751      8.455
REMARK INTER + INTRA:          -8.791
REMARK INTER:                  -8.119
REMARK INTRA:                  -0.673
REMARK UNBOUND:                -1.048
REMARK  Name = 
REMARK  5 active torsions:
REMARK  status: ('A' for Active; 'I' for Inactive)
REMARK    1  A    between atoms: C_2  and  C_4
REMARK    2  A    between atoms: C_7  and  N_8
REMARK    3  A    between atoms: N_8  and  C_9
REMARK    4  A    between atoms: C_9  and  C_10
REMARK    5  A    between atoms: C_14  and  C_15
REMARK                            x       y       z     vdW  Elec       q    Type
REMARK                         _______ _______ _______ _____ _____    ______ ____
ROOT
ATOM      1  N   UNL     1      49.315   4.683  17.341  0.00  0.00    +0.000 N 
ATOM      2  H   UNL     1      49.689   5.563  16.999  0.00  0.00    +0.000 HD
ENDROOT
BRANCH   1   6
ATOM      3  C   UNL     1      52.297   1.730  17.819  0.00  0.00    +0.000 A 
ATOM      4  C   UNL     1      52.585   3.056  18.139  0.00  0.00    +0.000 A 
ATOM      5  C   UNL     1      51.597   4.033  18.010  0.00  0.00    +0.000 A 
ATOM      6  C   UNL     1      50.296   3.719  17.591  0.00  0.00    +0.000 A 
ATOM      7  C   UNL     1      50.024   2.380  17.279  0.00  0.00    +0.000 A 
ATOM      8  C   UNL     1      51.014   1.393  17.384  0.00  0.00    +0.000 A 
BRANCH   3  10
ATOM      9  N   UNL     1      53.526  -0.082  16.747  0.00  0.00    +0.000 N 
ATOM     10  C   UNL     1      53.348   0.683  17.866  0.00  0.00    +0.000 C 
ATOM     11  O   UNL     1      54.048   0.518  18.858  0.00  0.00    +0.000 OA
ATOM     12  H   UNL     1      54.293  -0.743  16.768  0.00  0.00    +0.000 HD
ATOM     13  H   UNL     1      53.150   0.179  15.846  0.00  0.00    +0.000 HD
ENDBRANCH   3  10
ENDBRANCH   1   6
BRANCH   1  14
ATOM     14  C   UNL     1      48.076   4.266  16.700  0.00  0.00    +0.000 C 
BRANCH  14  15
ATOM     15  C   UNL     1      47.748   5.093  15.485  0.00  0.00    +0.000 A 
ATOM     16  C   UNL     1      48.465   6.260  15.211  0.00  0.00    +0.000 A 
ATOM     17  C   UNL     1      48.257   6.948  14.022  0.00  0.00    +0.000 A 
ATOM     18  C   UNL     1      47.334   6.468  13.088  0.00  0.00    +0.000 A 
ATOM     19  C   UNL     1      46.593   5.294  13.323  0.00  0.00    +0.000 A 
ATOM     20  C   UNL     1      46.803   4.635  14.549  0.00  0.00    +0.000 A 
BRANCH  19  21
ATOM     21  C   UNL     1      45.669   4.754  12.305  0.00  0.00    +0.000 A 
ATOM     22  C   UNL     1      45.476   5.369  11.061  0.00  0.00    +0.000 A 
ATOM     23  C   UNL     1      44.586   4.834  10.130  0.00  0.00    +0.000 A 
ATOM     24  C   UNL     1      43.902   3.683  10.462  0.00  0.00    +0.000 A 
ATOM     25  N   UNL     1      44.038   3.050  11.646  0.00  0.00    +0.000 NA
ATOM     26  C   UNL     1      44.904   3.604  12.531  0.00  0.00    +0.000 A 
ENDBRANCH  19  21
ENDBRANCH  14  15
ENDBRANCH   1  14
TORSDOF 5
ENDMDL
