MODEL 1
REMARK VINA RESULT:    -9.420      0.000      0.000
REMARK INTER + INTRA:         -13.518
REMARK INTER:                 -12.724
REMARK INTRA:                  -0.794
REMARK UNBOUND:                -0.794
REMARK  Name = 
REMARK  6 active torsions:
REMARK  status: ('A' for Active; 'I' for Inactive)
REMARK    1  A    between atoms: C_2  and  C_4
REMARK    2  A    between atoms: N_8  and  C_9
REMARK    3  A    between atoms: C_9  and  C_10
REMARK    4  A    between atoms: C_10  and  C_13
REMARK    5  A    between atoms: C_17  and  O_18
REMARK    6  A    between atoms: O_18  and  C_19
REMARK                            x       y       z     vdW  Elec       q    Type
REMARK                         _______ _______ _______ _____ _____    ______ ____
ROOT
ATOM      1  C   UNL     1      43.364   4.553  10.992  0.00  0.00    +0.000 C 
ENDROOT
BRANCH   1   6
ATOM      2  C   UNL     1      46.320   2.058   7.859  0.00  0.00    +0.000 A 
ATOM      3  C   UNL     1      46.327   3.358   7.362  0.00  0.00    +0.000 A 
ATOM      4  C   UNL     1      45.588   4.342   8.025  0.00  0.00    +0.000 A 
ATOM      5  C   UNL     1      44.849   4.009   9.160  0.00  0.00    +0.000 A 
ATOM      6  N   UNL     1      44.179   5.029   9.849  0.00  0.00    +0.000 N 
ATOM      7  N   UNL     1      44.831   2.748   9.639  0.00  0.00    +0.000 NA
ATOM      8  C   UNL     1      45.546   1.802   8.979  0.00  0.00    +0.000 A 
ATOM      9  H   UNL     1      43.632   5.599   9.207  0.00  0.00    +0.000 HD
BRANCH   2  11
ATOM     10  N   UNL     1      46.756  -0.323   7.640  0.00  0.00    +0.000 N 
ATOM     11  C   UNL     1      47.086   0.947   7.255  0.00  0.00    +0.000 C 
ATOM     12  O   UNL     1      47.948   1.150   6.410  0.00  0.00    +0.000 OA
ATOM     13  H   UNL     1      47.202  -1.072   7.125  0.00  0.00    +0.000 HD
ATOM     14  H   UNL     1      45.894  -0.540   8.119  0.00  0.00    +0.000 HD
ENDBRANCH   2  11
ENDBRANCH   1   6
BRANCH   1  15
ATOM     15  C   UNL     1      43.423   5.505  12.212  0.00  0.00    +0.000 C 
ATOM     16  F   UNL     1      42.914   6.722  11.850  0.00  0.00    +0.000 F 
ATOM     17  F   UNL     1      42.555   5.027  13.159  0.00  0.00    +0.000 F 
BRANCH  15  18
ATOM     18  C   UNL     1      44.840   5.628  12.745  0.00  0.00    +0.000 A 
ATOM     19  C   UNL     1      45.579   6.798  12.517  0.00  0.00    +0.000 A 
ATOM     20  C   UNL     1      46.886   6.914  12.994  0.00  0.00    +0.000 A 
ATOM     21  C   UNL     1      47.470   5.864  13.703  0.00  0.00    +0.000 A 
ATOM     22  C   UNL     1      46.751   4.695  13.937  0.00  0.00    +0.000 A 
ATOM     23  C   UNL     1      45.439   4.580  13.465  0.00  0.00    +0.000 A 
BRANCH  22  24
ATOM     24  O   UNL     1      47.233   3.635  14.666  0.00  0.00    +0.000 OA
BRANCH  24  25
ATOM     25  C   UNL     1      47.511   3.849  16.066  0.00  0.00    +0.000 C 
ATOM     26  C   UNL     1      48.507   2.862  16.698  0.00  0.00    +0.000 C 
ATOM     27  C   UNL     1      47.499   2.815  17.841  0.00  0.00    +0.000 C 
ATOM     28  O   UNL     1      46.476   3.385  16.988  0.00  0.00    +0.000 OA
ENDBRANCH  24  25
ENDBRANCH  22  24
ENDBRANCH  15  18
ENDBRANCH   1  15
TORSDOF 6
ENDMDL
MODEL 2
REMARK VINA RESULT:    -9.136      1.344      1.711
REMARK INTER + INTRA:         -13.134
REMARK INTER:                 -12.193
REMARK INTRA:                  -0.941
REMARK UNBOUND:                -0.794
REMARK  Name = 
REMARK  6 active torsions:
REMARK  status: ('A' for Active; 'I' for Inactive)
REMARK    1  A    between atoms: C_2  and  C_4
REMARK    2  A    between atoms: N_8  and  C_9
REMARK    3  A    between atoms: C_9  and  C_10
REMARK    4  A    between atoms: C_10  and  C_13
REMARK    5  A    between atoms: C_17  and  O_18
REMARK    6  A    between atoms: O_18  and  C_19
REMARK                            x       y       z     vdW  Elec       q    Type
REMARK                         _______ _______ _______ _____ _____    ______ ____
ROOT
ATOM      1  C   UNL     1      43.401   4.453  10.910  0.00  0.00    +0.000 C 
ENDROOT
BRANCH   1   6
ATOM      2  C   UNL     1      46.455   2.776   7.354  0.00  0.00    +0.000 A 
ATOM      3  C   UNL     1      46.055   1.623   8.023  0.00  0.00    +0.000 A 
ATOM      4  C   UNL     1      45.168   1.735   9.098  0.00  0.00    +0.000 A 
ATOM      5  C   UNL     1      44.708   2.992   9.490  0.00  0.00    +0.000 A 
ATOM      6  N   UNL     1      43.761   3.068  10.521  0.00  0.00    +0.000 N 
ATOM      7  N   UNL     1      45.102   4.112   8.852  0.00  0.00    +0.000 NA
ATOM      8  C   UNL     1      45.970   3.988   7.816  0.00  0.00    +0.000 A 
ATOM      9  H   UNL     1      44.056   2.516  11.323  0.00  0.00    +0.000 HD
BRANCH   2  11
ATOM     10  N   UNL     1      48.684   2.496   6.427  0.00  0.00    +0.000 N 
ATOM     11  C   UNL     1      47.366   2.772   6.190  0.00  0.00    +0.000 C 
ATOM     12  O   UNL     1      46.952   2.962   5.054  0.00  0.00    +0.000 OA
ATOM     13  H   UNL     1      49.266   2.374   5.607  0.00  0.00    +0.000 HD
ATOM     14  H   UNL     1      49.007   2.082   7.290  0.00  0.00    +0.000 HD
ENDBRANCH   2  11
ENDBRANCH   1   6
BRANCH   1  15
ATOM     15  C   UNL     1      43.699   4.757  12.399  0.00  0.00    +0.000 C 
ATOM     16  F   UNL     1      42.730   5.594  12.883  0.00  0.00    +0.000 F 
ATOM     17  F   UNL     1      43.541   3.592  13.103  0.00  0.00    +0.000 F 
BRANCH  15  18
ATOM     18  C   UNL     1      45.087   5.348  12.573  0.00  0.00    +0.000 A 
ATOM     19  C   UNL     1      45.582   6.271  11.638  0.00  0.00    +0.000 A 
ATOM     20  C   UNL     1      46.860   6.810  11.784  0.00  0.00    +0.000 A 
ATOM     21  C   UNL     1      47.661   6.434  12.864  0.00  0.00    +0.000 A 
ATOM     22  C   UNL     1      47.186   5.518  13.800  0.00  0.00    +0.000 A 
ATOM     23  C   UNL     1      45.902   4.983  13.658  0.00  0.00    +0.000 A 
BRANCH  22  24
ATOM     24  O   UNL     1      47.889   5.133  14.915  0.00  0.00    +0.000 OA
BRANCH  24  25
ATOM     25  C   UNL     1      47.320   4.104  15.751  0.00  0.00    +0.000 C 
ATOM     26  C   UNL     1      47.403   4.363  17.264  0.00  0.00    +0.000 C 
ATOM     27  C   UNL     1      47.843   2.904  17.335  0.00  0.00    +0.000 C 
ATOM     28  O   UNL     1      48.142   2.906  15.917  0.00  0.00    +0.000 OA
ENDBRANCH  24  25
ENDBRANCH  22  24
ENDBRANCH  15  18
ENDBRANCH   1  15
TORSDOF 6
ENDMDL
MODEL 3
REMARK VINA RESULT:    -8.107      2.813      4.524
REMARK INTER + INTRA:         -11.745
REMARK INTER:                 -11.071
REMARK INTRA:                  -0.674
REMARK UNBOUND:                -0.794
REMARK  Name = 
REMARK  6 active torsions:
REMARK  status: ('A' for Active; 'I' for Inactive)
REMARK    1  A    between atoms: C_2  and  C_4
REMARK    2  A    between atoms: N_8  and  C_9
REMARK    3  A    between atoms: C_9  and  C_10
REMARK    4  A    between atoms: C_10  and  C_13
REMARK    5  A    between atoms: C_17  and  O_18
REMARK    6  A    between atoms: O_18  and  C_19
REMARK                            x       y       z     vdW  Elec       q    Type
REMARK                         _______ _______ _______ _____ _____    ______ ____
ROOT
ATOM      1  C   UNL     1      43.456   4.586  10.945  0.00  0.00    +0.000 C 
ENDROOT
BRANCH   1   6
ATOM      2  C   UNL     1      46.442   2.808   7.380  0.00  0.00    +0.000 A 
ATOM      3  C   UNL     1      46.032   1.671   8.072  0.00  0.00    +0.000 A 
ATOM      4  C   UNL     1      45.159   1.813   9.155  0.00  0.00    +0.000 A 
ATOM      5  C   UNL     1      44.724   3.083   9.533  0.00  0.00    +0.000 A 
ATOM      6  N   UNL     1      43.790   3.190  10.574  0.00  0.00    +0.000 N 
ATOM      7  N   UNL     1      45.127   4.188   8.873  0.00  0.00    +0.000 NA
ATOM      8  C   UNL     1      45.981   4.035   7.829  0.00  0.00    +0.000 A 
ATOM      9  H   UNL     1      44.086   2.646  11.381  0.00  0.00    +0.000 HD
BRANCH   2  11
ATOM     10  N   UNL     1      48.663   2.522   6.436  0.00  0.00    +0.000 N 
ATOM     11  C   UNL     1      47.339   2.772   6.205  0.00  0.00    +0.000 C 
ATOM     12  O   UNL     1      46.909   2.915   5.068  0.00  0.00    +0.000 OA
ATOM     13  H   UNL     1      49.237   2.377   5.614  0.00  0.00    +0.000 HD
ATOM     14  H   UNL     1      49.002   2.143   7.309  0.00  0.00    +0.000 HD
ENDBRANCH   2  11
ENDBRANCH   1   6
BRANCH   1  15
ATOM     15  C   UNL     1      43.666   4.875  12.452  0.00  0.00    +0.000 C 
ATOM     16  F   UNL     1      42.536   5.465  12.952  0.00  0.00    +0.000 F 
ATOM     17  F   UNL     1      43.750   3.670  13.101  0.00  0.00    +0.000 F 
BRANCH  15  18
ATOM     18  C   UNL     1      44.896   5.736  12.681  0.00  0.00    +0.000 A 
ATOM     19  C   UNL     1      46.030   5.191  13.301  0.00  0.00    +0.000 A 
ATOM     20  C   UNL     1      47.161   5.978  13.526  0.00  0.00    +0.000 A 
ATOM     21  C   UNL     1      47.172   7.317  13.135  0.00  0.00    +0.000 A 
ATOM     22  C   UNL     1      46.053   7.874  12.520  0.00  0.00    +0.000 A 
ATOM     23  C   UNL     1      44.922   7.085  12.288  0.00  0.00    +0.000 A 
BRANCH  22  24
ATOM     24  O   UNL     1      45.999   9.168  12.061  0.00  0.00    +0.000 OA
BRANCH  24  25
ATOM     25  C   UNL     1      44.713   9.821  12.030  0.00  0.00    +0.000 C 
ATOM     26  C   UNL     1      44.043   9.891  10.648  0.00  0.00    +0.000 C 
ATOM     27  C   UNL     1      43.749  11.337  11.032  0.00  0.00    +0.000 C 
ATOM     28  O   UNL     1      44.751  11.282  12.078  0.00  0.00    +0.000 OA
ENDBRANCH  24  25
ENDBRANCH  22  24
ENDBRANCH  15  18
ENDBRANCH   1  15
TORSDOF 6
ENDMDL
MODEL 4
REMARK VINA RESULT:    -7.787      2.431      3.840
REMARK INTER + INTRA:         -11.313
REMARK INTER:                 -10.521
REMARK INTRA:                  -0.792
REMARK UNBOUND:                -0.794
REMARK  Name = 
REMARK  6 active torsions:
REMARK  status: ('A' for Active; 'I' for Inactive)
REMARK    1  A    between atoms: C_2  and  C_4
REMARK    2  A    between atoms: N_8  and  C_9
REMARK    3  A    between atoms: C_9  and  C_10
REMARK    4  A    between atoms: C_10  and  C_13
REMARK    5  A    between atoms: C_17  and  O_18
REMARK    6  A    between atoms: O_18  and  C_19
REMARK                            x       y       z     vdW  Elec       q    Type
REMARK                         _______ _______ _______ _____ _____    ______ ____
ROOT
ATOM      1  C   UNL     1      43.480   4.621  10.885  0.00  0.00    +0.000 C 
ENDROOT
BRANCH   1   6
ATOM      2  C   UNL     1      46.550   2.640   7.505  0.00  0.00    +0.000 A 
ATOM      3  C   UNL     1      45.994   1.533   8.142  0.00  0.00    +0.000 A 
ATOM      4  C   UNL     1      45.061   1.736   9.163  0.00  0.00    +0.000 A 
ATOM      5  C   UNL     1      44.711   3.034   9.536  0.00  0.00    +0.000 A 
ATOM      6  N   UNL     1      43.717   3.207  10.510  0.00  0.00    +0.000 N 
ATOM      7  N   UNL     1      45.255   4.108   8.930  0.00  0.00    +0.000 NA
ATOM      8  C   UNL     1      46.166   3.895   7.946  0.00  0.00    +0.000 A 
ATOM      9  H   UNL     1      43.905   2.627  11.324  0.00  0.00    +0.000 HD
BRANCH   2  11
ATOM     10  N   UNL     1      47.165   3.095   5.198  0.00  0.00    +0.000 N 
ATOM     11  C   UNL     1      47.523   2.542   6.396  0.00  0.00    +0.000 C 
ATOM     12  O   UNL     1      48.623   2.030   6.555  0.00  0.00    +0.000 OA
ATOM     13  H   UNL     1      47.889   3.130   4.491  0.00  0.00    +0.000 HD
ATOM     14  H   UNL     1      46.396   3.745   5.106  0.00  0.00    +0.000 HD
ENDBRANCH   2  11
ENDBRANCH   1   6
BRANCH   1  15
ATOM     15  C   UNL     1      43.595   4.867  12.410  0.00  0.00    +0.000 C 
ATOM     16  F   UNL     1      42.633   5.762  12.790  0.00  0.00    +0.000 F 
ATOM     17  F   UNL     1      43.262   3.699  13.048  0.00  0.00    +0.000 F 
BRANCH  15  18
ATOM     18  C   UNL     1      44.986   5.347  12.786  0.00  0.00    +0.000 A 
ATOM     19  C   UNL     1      45.801   4.564  13.618  0.00  0.00    +0.000 A 
ATOM     20  C   UNL     1      47.076   5.003  13.977  0.00  0.00    +0.000 A 
ATOM     21  C   UNL     1      47.553   6.229  13.511  0.00  0.00    +0.000 A 
ATOM     22  C   UNL     1      46.757   7.019  12.685  0.00  0.00    +0.000 A 
ATOM     23  C   UNL     1      45.481   6.577  12.318  0.00  0.00    +0.000 A 
BRANCH  22  24
ATOM     24  O   UNL     1      47.169   8.213  12.143  0.00  0.00    +0.000 OA
BRANCH  24  25
ATOM     25  C   UNL     1      48.525   8.637  12.395  0.00  0.00    +0.000 C 
ATOM     26  C   UNL     1      48.899  10.016  11.826  0.00  0.00    +0.000 C 
ATOM     27  C   UNL     1      50.171   9.311  11.367  0.00  0.00    +0.000 C 
ATOM     28  O   UNL     1      49.542   8.018  11.547  0.00  0.00    +0.000 OA
ENDBRANCH  24  25
ENDBRANCH  22  24
ENDBRANCH  15  18
ENDBRANCH   1  15
TORSDOF 6
ENDMDL
MODEL 5
REMARK VINA RESULT:    -7.619      3.120      7.836
REMARK INTER + INTRA:         -11.086
REMARK INTER:                 -10.481
REMARK INTRA:                  -0.605
REMARK UNBOUND:                -0.794
REMARK  Name = 
REMARK  6 active torsions:
REMARK  status: ('A' for Active; 'I' for Inactive)
REMARK    1  A    between atoms: C_2  and  C_4
REMARK    2  A    between atoms: N_8  and  C_9
REMARK    3  A    between atoms: C_9  and  C_10
REMARK    4  A    between atoms: C_10  and  C_13
REMARK    5  A    between atoms: C_17  and  O_18
REMARK    6  A    between atoms: O_18  and  C_19
REMARK                            x       y       z     vdW  Elec       q    Type
REMARK                         _______ _______ _______ _____ _____    ______ ____
ROOT
ATOM      1  C   UNL     1      45.807   5.633  13.096  0.00  0.00    +0.000 C 
ENDROOT
BRANCH   1   6
ATOM      2  C   UNL     1      48.532   4.196  17.007  0.00  0.00    +0.000 A 
ATOM      3  C   UNL     1      49.035   5.456  16.693  0.00  0.00    +0.000 A 
ATOM      4  C   UNL     1      48.476   6.163  15.624  0.00  0.00    +0.000 A 
ATOM      5  C   UNL     1      47.438   5.597  14.885  0.00  0.00    +0.000 A 
ATOM      6  N   UNL     1      46.845   6.358  13.868  0.00  0.00    +0.000 N 
ATOM      7  N   UNL     1      46.955   4.373  15.178  0.00  0.00    +0.000 NA
ATOM      8  C   UNL     1      47.513   3.695  16.213  0.00  0.00    +0.000 A 
ATOM      9  H   UNL     1      47.554   6.762  13.260  0.00  0.00    +0.000 HD
BRANCH   2  11
ATOM     10  N   UNL     1      50.080   2.538  17.878  0.00  0.00    +0.000 N 
ATOM     11  C   UNL     1      49.028   3.373  18.131  0.00  0.00    +0.000 C 
ATOM     12  O   UNL     1      48.549   3.469  19.253  0.00  0.00    +0.000 OA
ATOM     13  H   UNL     1      50.485   2.079  18.685  0.00  0.00    +0.000 HD
ATOM     14  H   UNL     1      50.660   2.625  17.056  0.00  0.00    +0.000 HD
ENDBRANCH   2  11
ENDBRANCH   1   6
BRANCH   1  15
ATOM     15  C   UNL     1      45.726   6.091  11.619  0.00  0.00    +0.000 C 
ATOM     16  F   UNL     1      44.883   7.166  11.533  0.00  0.00    +0.000 F 
ATOM     17  F   UNL     1      46.957   6.579  11.264  0.00  0.00    +0.000 F 
BRANCH  15  18
ATOM     18  C   UNL     1      45.278   4.955  10.716  0.00  0.00    +0.000 A 
ATOM     19  C   UNL     1      44.534   3.888  11.243  0.00  0.00    +0.000 A 
ATOM     20  C   UNL     1      44.128   2.835  10.422  0.00  0.00    +0.000 A 
ATOM     21  C   UNL     1      44.460   2.833   9.067  0.00  0.00    +0.000 A 
ATOM     22  C   UNL     1      45.199   3.883   8.528  0.00  0.00    +0.000 A 
ATOM     23  C   UNL     1      45.600   4.944   9.348  0.00  0.00    +0.000 A 
BRANCH  22  24
ATOM     24  O   UNL     1      45.525   3.983   7.197  0.00  0.00    +0.000 OA
BRANCH  24  25
ATOM     25  C   UNL     1      46.850   3.579   6.794  0.00  0.00    +0.000 C 
ATOM     26  C   UNL     1      46.933   2.841   5.448  0.00  0.00    +0.000 C 
ATOM     27  C   UNL     1      47.861   1.893   6.198  0.00  0.00    +0.000 C 
ATOM     28  O   UNL     1      47.376   2.394   7.469  0.00  0.00    +0.000 OA
ENDBRANCH  24  25
ENDBRANCH  22  24
ENDBRANCH  15  18
ENDBRANCH   1  15
TORSDOF 6
ENDMDL
MODEL 6
REMARK VINA RESULT:    -7.614      2.942      7.155
REMARK INTER + INTRA:         -11.079
REMARK INTER:                 -10.384
REMARK INTRA:                  -0.695
REMARK UNBOUND:                -0.794
REMARK  Name = 
REMARK  6 active torsions:
REMARK  status: ('A' for Active; 'I' for Inactive)
REMARK    1  A    between atoms: C_2  and  C_4
REMARK    2  A    between atoms: N_8  and  C_9
REMARK    3  A    between atoms: C_9  and  C_10
REMARK    4  A    between atoms: C_10  and  C_13
REMARK    5  A    between atoms: C_17  and  O_18
REMARK    6  A    between atoms: O_18  and  C_19
REMARK                            x       y       z     vdW  Elec       q    Type
REMARK                         _______ _______ _______ _____ _____    ______ ____
ROOT
ATOM      1  C   UNL     1      47.111   6.484  12.017  0.00  0.00    +0.000 C 
ENDROOT
BRANCH   1   6
ATOM      2  C   UNL     1      47.841   4.260  16.411  0.00  0.00    +0.000 A 
ATOM      3  C   UNL     1      48.447   5.505  16.560  0.00  0.00    +0.000 A 
ATOM      4  C   UNL     1      48.419   6.406  15.492  0.00  0.00    +0.000 A 
ATOM      5  C   UNL     1      47.799   6.046  14.296  0.00  0.00    +0.000 A 
ATOM      6  N   UNL     1      47.718   6.996  13.268  0.00  0.00    +0.000 N 
ATOM      7  N   UNL     1      47.221   4.837  14.143  0.00  0.00    +0.000 NA
ATOM      8  C   UNL     1      47.264   3.970  15.186  0.00  0.00    +0.000 A 
ATOM      9  H   UNL     1      48.626   7.423  13.100  0.00  0.00    +0.000 HD
BRANCH   2  11
ATOM     10  N   UNL     1      48.894   3.108  18.274  0.00  0.00    +0.000 N 
ATOM     11  C   UNL     1      47.788   3.242  17.481  0.00  0.00    +0.000 C 
ATOM     12  O   UNL     1      46.779   2.578  17.682  0.00  0.00    +0.000 OA
ATOM     13  H   UNL     1      48.793   2.498  19.076  0.00  0.00    +0.000 HD
ATOM     14  H   UNL     1      49.625   3.804  18.310  0.00  0.00    +0.000 HD
ENDBRANCH   2  11
ENDBRANCH   1   6
BRANCH   1  15
ATOM     15  C   UNL     1      45.576   6.687  11.966  0.00  0.00    +0.000 C 
ATOM     16  F   UNL     1      45.166   7.267  13.135  0.00  0.00    +0.000 F 
ATOM     17  F   UNL     1      45.310   7.619  10.997  0.00  0.00    +0.000 F 
BRANCH  15  18
ATOM     18  C   UNL     1      44.856   5.374  11.710  0.00  0.00    +0.000 A 
ATOM     19  C   UNL     1      44.000   4.839  12.685  0.00  0.00    +0.000 A 
ATOM     20  C   UNL     1      43.344   3.628  12.462  0.00  0.00    +0.000 A 
ATOM     21  C   UNL     1      43.534   2.936  11.266  0.00  0.00    +0.000 A 
ATOM     22  C   UNL     1      44.381   3.452  10.288  0.00  0.00    +0.000 A 
ATOM     23  C   UNL     1      45.035   4.670  10.507  0.00  0.00    +0.000 A 
BRANCH  22  24
ATOM     24  O   UNL     1      44.585   2.861   9.065  0.00  0.00    +0.000 OA
BRANCH  24  25
ATOM     25  C   UNL     1      45.915   2.397   8.752  0.00  0.00    +0.000 C 
ATOM     26  C   UNL     1      46.435   2.778   7.356  0.00  0.00    +0.000 C 
ATOM     27  C   UNL     1      46.901   1.327   7.301  0.00  0.00    +0.000 C 
ATOM     28  O   UNL     1      46.018   0.982   8.397  0.00  0.00    +0.000 OA
ENDBRANCH  24  25
ENDBRANCH  22  24
ENDBRANCH  15  18
ENDBRANCH   1  15
TORSDOF 6
ENDMDL
MODEL 7
REMARK VINA RESULT:    -6.973      4.189      6.167
REMARK INTER + INTRA:         -10.214
REMARK INTER:                  -9.578
REMARK INTRA:                  -0.635
REMARK UNBOUND:                -0.794
REMARK  Name = 
REMARK  6 active torsions:
REMARK  status: ('A' for Active; 'I' for Inactive)
REMARK    1  A    between atoms: C_2  and  C_4
REMARK    2  A    between atoms: N_8  and  C_9
REMARK    3  A    between atoms: C_9  and  C_10
REMARK    4  A    between atoms: C_10  and  C_13
REMARK    5  A    between atoms: C_17  and  O_18
REMARK    6  A    between atoms: O_18  and  C_19
REMARK                            x       y       z     vdW  Elec       q    Type
REMARK                         _______ _______ _______ _____ _____    ______ ____
ROOT
ATOM      1  C   UNL     1      47.147   3.639  15.774  0.00  0.00    +0.000 C 
ENDROOT
BRANCH   1   6
ATOM      2  C   UNL     1      45.308   4.961  11.341  0.00  0.00    +0.000 A 
ATOM      3  C   UNL     1      45.884   6.132  11.828  0.00  0.00    +0.000 A 
ATOM      4  C   UNL     1      46.512   6.111  13.076  0.00  0.00    +0.000 A 
ATOM      5  C   UNL     1      46.543   4.931  13.819  0.00  0.00    +0.000 A 
ATOM      6  N   UNL     1      47.245   4.919  15.032  0.00  0.00    +0.000 N 
ATOM      7  N   UNL     1      45.976   3.798  13.357  0.00  0.00    +0.000 NA
ATOM      8  C   UNL     1      45.363   3.835  12.146  0.00  0.00    +0.000 A 
ATOM      9  H   UNL     1      46.978   5.712  15.611  0.00  0.00    +0.000 HD
BRANCH   2  11
ATOM     10  N   UNL     1      45.440   4.921   8.915  0.00  0.00    +0.000 N 
ATOM     11  C   UNL     1      44.643   4.862  10.024  0.00  0.00    +0.000 C 
ATOM     12  O   UNL     1      43.435   4.688   9.930  0.00  0.00    +0.000 OA
ATOM     13  H   UNL     1      44.984   4.725   8.031  0.00  0.00    +0.000 HD
ATOM     14  H   UNL     1      46.442   4.797   8.956  0.00  0.00    +0.000 HD
ENDBRANCH   2  11
ENDBRANCH   1   6
BRANCH   1  15
ATOM     15  C   UNL     1      47.591   3.765  17.253  0.00  0.00    +0.000 C 
ATOM     16  F   UNL     1      47.147   4.961  17.749  0.00  0.00    +0.000 F 
ATOM     17  F   UNL     1      46.918   2.813  17.974  0.00  0.00    +0.000 F 
BRANCH  15  18
ATOM     18  C   UNL     1      49.097   3.628  17.388  0.00  0.00    +0.000 A 
ATOM     19  C   UNL     1      49.889   4.762  17.627  0.00  0.00    +0.000 A 
ATOM     20  C   UNL     1      51.275   4.645  17.741  0.00  0.00    +0.000 A 
ATOM     21  C   UNL     1      51.888   3.398  17.618  0.00  0.00    +0.000 A 
ATOM     22  C   UNL     1      51.116   2.262  17.380  0.00  0.00    +0.000 A 
ATOM     23  C   UNL     1      49.726   2.376  17.272  0.00  0.00    +0.000 A 
BRANCH  22  24
ATOM     24  O   UNL     1      51.634   0.993  17.294  0.00  0.00    +0.000 OA
BRANCH  24  25
ATOM     25  C   UNL     1      52.925   0.748  17.889  0.00  0.00    +0.000 C 
ATOM     26  C   UNL     1      54.014   0.257  16.921  0.00  0.00    +0.000 C 
ATOM     27  C   UNL     1      54.330  -0.745  18.026  0.00  0.00    +0.000 C 
ATOM     28  O   UNL     1      53.042  -0.500  18.642  0.00  0.00    +0.000 OA
ENDBRANCH  24  25
ENDBRANCH  22  24
ENDBRANCH  15  18
ENDBRANCH   1  15
TORSDOF 6
ENDMDL
MODEL 8
REMARK VINA RESULT:    -6.788      3.937      7.885
REMARK INTER + INTRA:          -9.963
REMARK INTER:                  -9.394
REMARK INTRA:                  -0.568
REMARK UNBOUND:                -0.794
REMARK  Name = 
REMARK  6 active torsions:
REMARK  status: ('A' for Active; 'I' for Inactive)
REMARK    1  A    between atoms: C_2  and  C_4
REMARK    2  A    between atoms: N_8  and  C_9
REMARK    3  A    between atoms: C_9  and  C_10
REMARK    4  A    between atoms: C_10  and  C_13
REMARK    5  A    between atoms: C_17  and  O_18
REMARK    6  A    between atoms: O_18  and  C_19
REMARK                            x       y       z     vdW  Elec       q    Type
REMARK                         _______ _______ _______ _____ _____    ______ ____
ROOT
ATOM      1  C   UNL     1      46.368   4.410  14.771  0.00  0.00    +0.000 C 
ENDROOT
BRANCH   1   6
ATOM      2  C   UNL     1      50.316   2.778  17.327  0.00  0.00    +0.000 A 
ATOM      3  C   UNL     1      50.202   4.114  17.702  0.00  0.00    +0.000 A 
ATOM      4  C   UNL     1      49.168   4.885  17.163  0.00  0.00    +0.000 A 
ATOM      5  C   UNL     1      48.277   4.314  16.255  0.00  0.00    +0.000 A 
ATOM      6  N   UNL     1      47.206   5.088  15.789  0.00  0.00    +0.000 N 
ATOM      7  N   UNL     1      48.390   3.024  15.880  0.00  0.00    +0.000 NA
ATOM      8  C   UNL     1      49.404   2.290  16.405  0.00  0.00    +0.000 A 
ATOM      9  H   UNL     1      47.530   5.997  15.466  0.00  0.00    +0.000 HD
BRANCH   2  11
ATOM     10  N   UNL     1      52.347   2.417  18.611  0.00  0.00    +0.000 N 
ATOM     11  C   UNL     1      51.352   1.864  17.854  0.00  0.00    +0.000 C 
ATOM     12  O   UNL     1      51.297   0.657  17.661  0.00  0.00    +0.000 OA
ATOM     13  H   UNL     1      52.973   1.764  19.066  0.00  0.00    +0.000 HD
ATOM     14  H   UNL     1      52.280   3.345  19.006  0.00  0.00    +0.000 HD
ENDBRANCH   2  11
ENDBRANCH   1   6
BRANCH   1  15
ATOM     15  C   UNL     1      46.385   5.131  13.400  0.00  0.00    +0.000 C 
ATOM     16  F   UNL     1      46.099   6.455  13.591  0.00  0.00    +0.000 F 
ATOM     17  F   UNL     1      47.675   5.113  12.934  0.00  0.00    +0.000 F 
BRANCH  15  18
ATOM     18  C   UNL     1      45.416   4.483  12.426  0.00  0.00    +0.000 A 
ATOM     19  C   UNL     1      44.458   3.569  12.890  0.00  0.00    +0.000 A 
ATOM     20  C   UNL     1      43.571   2.961  12.001  0.00  0.00    +0.000 A 
ATOM     21  C   UNL     1      43.629   3.258  10.638  0.00  0.00    +0.000 A 
ATOM     22  C   UNL     1      44.576   4.162  10.161  0.00  0.00    +0.000 A 
ATOM     23  C   UNL     1      45.461   4.777  11.052  0.00  0.00    +0.000 A 
BRANCH  22  24
ATOM     24  O   UNL     1      44.669   4.545   8.845  0.00  0.00    +0.000 OA
BRANCH  24  25
ATOM     25  C   UNL     1      45.105   3.562   7.884  0.00  0.00    +0.000 C 
ATOM     26  C   UNL     1      45.970   2.425   8.450  0.00  0.00    +0.000 C 
ATOM     27  C   UNL     1      46.837   2.678   7.222  0.00  0.00    +0.000 C 
ATOM     28  O   UNL     1      46.216   3.972   7.027  0.00  0.00    +0.000 OA
ENDBRANCH  24  25
ENDBRANCH  22  24
ENDBRANCH  15  18
ENDBRANCH   1  15
TORSDOF 6
ENDMDL
MODEL 9
REMARK VINA RESULT:    -6.688      3.764      7.552
REMARK INTER + INTRA:          -9.828
REMARK INTER:                  -8.856
REMARK INTRA:                  -0.973
REMARK UNBOUND:                -0.794
REMARK  Name = 
REMARK  6 active torsions:
REMARK  status: ('A' for Active; 'I' for Inactive)
REMARK    1  A    between atoms: C_2  and  C_4
REMARK    2  A    between atoms: N_8  and  C_9
REMARK    3  A    between atoms: C_9  and  C_10
REMARK    4  A    between atoms: C_10  and  C_13
REMARK    5  A    between atoms: C_17  and  O_18
REMARK    6  A    between atoms: O_18  and  C_19
REMARK                            x       y       z     vdW  Elec       q    Type
REMARK                         _______ _______ _______ _____ _____    ______ ____
ROOT
ATOM      1  C   UNL     1      48.960   7.326  12.805  0.00  0.00    +0.000 C 
ENDROOT
BRANCH   1   6
ATOM      2  C   UNL     1      48.038   4.577  16.851  0.00  0.00    +0.000 A 
ATOM      3  C   UNL     1      48.989   5.498  17.281  0.00  0.00    +0.000 A 
ATOM      4  C   UNL     1      49.473   6.448  16.377  0.00  0.00    +0.000 A 
ATOM      5  C   UNL     1      49.009   6.452  15.061  0.00  0.00    +0.000 A 
ATOM      6  N   UNL     1      49.453   7.462  14.196  0.00  0.00    +0.000 N 
ATOM      7  N   UNL     1      48.097   5.554  14.637  0.00  0.00    +0.000 NA
ATOM      8  C   UNL     1      47.643   4.633  15.525  0.00  0.00    +0.000 A 
ATOM      9  H   UNL     1      50.466   7.546  14.230  0.00  0.00    +0.000 HD
BRANCH   2  11
ATOM     10  N   UNL     1      48.054   3.312  18.926  0.00  0.00    +0.000 N 
ATOM     11  C   UNL     1      47.439   3.548  17.728  0.00  0.00    +0.000 C 
ATOM     12  O   UNL     1      46.409   2.965  17.418  0.00  0.00    +0.000 OA
ATOM     13  H   UNL     1      47.561   2.699  19.564  0.00  0.00    +0.000 HD
ATOM     14  H   UNL     1      48.733   3.945  19.325  0.00  0.00    +0.000 HD
ENDBRANCH   2  11
ENDBRANCH   1   6
BRANCH   1  15
ATOM     15  C   UNL     1      47.955   8.436  12.411  0.00  0.00    +0.000 C 
ATOM     16  F   UNL     1      47.811   9.298  13.464  0.00  0.00    +0.000 F 
ATOM     17  F   UNL     1      48.529   9.187  11.417  0.00  0.00    +0.000 F 
BRANCH  15  18
ATOM     18  C   UNL     1      46.622   7.845  11.984  0.00  0.00    +0.000 A 
ATOM     19  C   UNL     1      45.473   8.650  11.953  0.00  0.00    +0.000 A 
ATOM     20  C   UNL     1      44.243   8.113  11.573  0.00  0.00    +0.000 A 
ATOM     21  C   UNL     1      44.144   6.766  11.221  0.00  0.00    +0.000 A 
ATOM     22  C   UNL     1      45.274   5.953  11.248  0.00  0.00    +0.000 A 
ATOM     23  C   UNL     1      46.510   6.492  11.622  0.00  0.00    +0.000 A 
BRANCH  22  24
ATOM     24  O   UNL     1      45.273   4.632  10.870  0.00  0.00    +0.000 OA
BRANCH  24  25
ATOM     25  C   UNL     1      44.799   4.308   9.546  0.00  0.00    +0.000 C 
ATOM     26  C   UNL     1      45.053   2.862   9.091  0.00  0.00    +0.000 C 
ATOM     27  C   UNL     1      45.492   3.513   7.784  0.00  0.00    +0.000 C 
ATOM     28  O   UNL     1      45.629   4.795   8.446  0.00  0.00    +0.000 OA
ENDBRANCH  24  25
ENDBRANCH  22  24
ENDBRANCH  15  18
ENDBRANCH   1  15
TORSDOF 6
ENDMDL
