MODEL 1
REMARK VINA RESULT:    -7.937      0.000      0.000
REMARK INTER + INTRA:         -11.755
REMARK INTER:                 -10.722
REMARK INTRA:                  -1.034
REMARK UNBOUND:                -1.034
REMARK  Name = 
REMARK  7 active torsions:
REMARK  status: ('A' for Active; 'I' for Inactive)
REMARK    1  A    between atoms: C_1  and  C_2
REMARK    2  A    between atoms: C_2  and  C_3
REMARK    3  A    between atoms: C_7  and  C_8
REMARK    4  A    between atoms: C_8  and  C_9
REMARK    5  A    between atoms: C_9  and  N_10
REMARK    6  A    between atoms: N_10  and  C_11
REMARK    7  A    between atoms: C_14  and  C_15
REMARK                            x       y       z     vdW  Elec       q    Type
REMARK                         _______ _______ _______ _____ _____    ______ ____
ROOT
ATOM      1  C   UNL     1      43.107   4.437  11.102  0.00  0.00    +0.000 C 
ENDROOT
BRANCH   1   2
ATOM      2  N   UNL     1      43.755   4.909   9.871  0.00  0.00    +0.000 N 
ATOM      3  H   UNL     1      44.231   5.800  10.000  0.00  0.00    +0.000 HD
BRANCH   2   4
ATOM      4  C   UNL     1      44.569   3.979   9.196  0.00  0.00    +0.000 A 
ATOM      5  C   UNL     1      45.556   4.353   8.278  0.00  0.00    +0.000 A 
ATOM      6  C   UNL     1      46.371   3.400   7.671  0.00  0.00    +0.000 A 
ATOM      7  C   UNL     1      46.204   2.073   8.027  0.00  0.00    +0.000 A 
ATOM      8  N   UNL     1      45.299   1.647   8.950  0.00  0.00    +0.000 NA
ATOM      9  C   UNL     1      44.530   2.615   9.516  0.00  0.00    +0.000 A 
BRANCH   7  10
ATOM     10  C   UNL     1      47.064   1.033   7.378  0.00  0.00    +0.000 C 
ATOM     11  N   UNL     1      46.747  -0.260   7.678  0.00  0.00    +0.000 N 
ATOM     12  O   UNL     1      47.986   1.309   6.622  0.00  0.00    +0.000 OA
ATOM     13  H   UNL     1      45.984  -0.458   8.314  0.00  0.00    +0.000 HD
ATOM     14  H   UNL     1      47.289  -1.015   7.282  0.00  0.00    +0.000 HD
ENDBRANCH   7  10
ENDBRANCH   2   4
ENDBRANCH   1   2
BRANCH   1  15
ATOM     15  C   UNL     1      43.466   5.308  12.312  0.00  0.00    +0.000 C 
BRANCH  15  20
ATOM     16  C   UNL     1      47.087   6.005  13.366  0.00  0.00    +0.000 A 
ATOM     17  C   UNL     1      47.507   4.690  13.650  0.00  0.00    +0.000 A 
ATOM     18  C   UNL     1      46.659   3.596  13.470  0.00  0.00    +0.000 A 
ATOM     19  C   UNL     1      45.360   3.787  13.011  0.00  0.00    +0.000 A 
ATOM     20  C   UNL     1      44.911   5.075  12.703  0.00  0.00    +0.000 A 
ATOM     21  C   UNL     1      45.784   6.169  12.866  0.00  0.00    +0.000 A 
BRANCH  16  23
ATOM     22  C   UNL     1      48.544   7.005  15.133  0.00  0.00    +0.000 C 
ATOM     23  C   UNL     1      48.018   7.186  13.697  0.00  0.00    +0.000 C 
ATOM     24  C   UNL     1      49.157   7.303  12.678  0.00  0.00    +0.000 C 
ATOM     25  C   UNL     1      48.665   8.318  11.656  0.00  0.00    +0.000 C 
ATOM     26  O   UNL     1      47.489   8.943  12.183  0.00  0.00    +0.000 OA
ATOM     27  C   UNL     1      47.410   8.592  13.569  0.00  0.00    +0.000 C 
ENDBRANCH  16  23
ENDBRANCH  15  20
ENDBRANCH   1  15
TORSDOF 6
ENDMDL
MODEL 2
REMARK VINA RESULT:    -7.745      2.712      3.731
REMARK INTER + INTRA:         -11.495
REMARK INTER:                 -10.771
REMARK INTRA:                  -0.724
REMARK UNBOUND:                -1.034
REMARK  Name = 
REMARK  7 active torsions:
REMARK  status: ('A' for Active; 'I' for Inactive)
REMARK    1  A    between atoms: C_1  and  C_2
REMARK    2  A    between atoms: C_2  and  C_3
REMARK    3  A    between atoms: C_7  and  C_8
REMARK    4  A    between atoms: C_8  and  C_9
REMARK    5  A    between atoms: C_9  and  N_10
REMARK    6  A    between atoms: N_10  and  C_11
REMARK    7  A    between atoms: C_14  and  C_15
REMARK                            x       y       z     vdW  Elec       q    Type
REMARK                         _______ _______ _______ _____ _____    ______ ____
ROOT
ATOM      1  C   UNL     1      44.623   4.681  11.946  0.00  0.00    +0.000 C 
ENDROOT
BRANCH   1   2
ATOM      2  N   UNL     1      43.981   3.996  10.816  0.00  0.00    +0.000 N 
ATOM      3  H   UNL     1      43.178   4.508  10.457  0.00  0.00    +0.000 HD
BRANCH   2   4
ATOM      4  C   UNL     1      44.831   3.569   9.777  0.00  0.00    +0.000 A 
ATOM      5  C   UNL     1      45.066   2.221   9.489  0.00  0.00    +0.000 A 
ATOM      6  C   UNL     1      45.876   1.847   8.419  0.00  0.00    +0.000 A 
ATOM      7  C   UNL     1      46.415   2.844   7.625  0.00  0.00    +0.000 A 
ATOM      8  N   UNL     1      46.184   4.172   7.819  0.00  0.00    +0.000 NA
ATOM      9  C   UNL     1      45.385   4.485   8.873  0.00  0.00    +0.000 A 
BRANCH   7  10
ATOM     10  C   UNL     1      47.297   2.462   6.476  0.00  0.00    +0.000 C 
ATOM     11  N   UNL     1      47.201   3.259   5.373  0.00  0.00    +0.000 N 
ATOM     12  O   UNL     1      48.062   1.507   6.514  0.00  0.00    +0.000 OA
ATOM     13  H   UNL     1      46.552   4.037   5.367  0.00  0.00    +0.000 HD
ATOM     14  H   UNL     1      47.761   3.057   4.557  0.00  0.00    +0.000 HD
ENDBRANCH   7  10
ENDBRANCH   2   4
ENDBRANCH   1   2
BRANCH   1  15
ATOM     15  C   UNL     1      45.685   3.806  12.622  0.00  0.00    +0.000 C 
BRANCH  15  20
ATOM     16  C   UNL     1      47.675   4.920  15.706  0.00  0.00    +0.000 A 
ATOM     17  C   UNL     1      48.299   6.071  15.181  0.00  0.00    +0.000 A 
ATOM     18  C   UNL     1      48.056   6.503  13.876  0.00  0.00    +0.000 A 
ATOM     19  C   UNL     1      47.190   5.791  13.053  0.00  0.00    +0.000 A 
ATOM     20  C   UNL     1      46.540   4.653  13.542  0.00  0.00    +0.000 A 
ATOM     21  C   UNL     1      46.775   4.240  14.868  0.00  0.00    +0.000 A 
BRANCH  16  23
ATOM     22  C   UNL     1      47.204   5.149  18.149  0.00  0.00    +0.000 C 
ATOM     23  C   UNL     1      48.070   4.417  17.106  0.00  0.00    +0.000 C 
ATOM     24  C   UNL     1      47.933   2.894  17.213  0.00  0.00    +0.000 C 
ATOM     25  C   UNL     1      49.324   2.355  16.914  0.00  0.00    +0.000 C 
ATOM     26  O   UNL     1      50.238   3.458  16.924  0.00  0.00    +0.000 OA
ATOM     27  C   UNL     1      49.549   4.573  17.497  0.00  0.00    +0.000 C 
ENDBRANCH  16  23
ENDBRANCH  15  20
ENDBRANCH   1  15
TORSDOF 6
ENDMDL
MODEL 3
REMARK VINA RESULT:    -7.429      1.524      2.049
REMARK INTER + INTRA:         -11.068
REMARK INTER:                 -10.229
REMARK INTRA:                  -0.839
REMARK UNBOUND:                -1.034
REMARK  Name = 
REMARK  7 active torsions:
REMARK  status: ('A' for Active; 'I' for Inactive)
REMARK    1  A    between atoms: C_1  and  C_2
REMARK    2  A    between atoms: C_2  and  C_3
REMARK    3  A    between atoms: C_7  and  C_8
REMARK    4  A    between atoms: C_8  and  C_9
REMARK    5  A    between atoms: C_9  and  N_10
REMARK    6  A    between atoms: N_10  and  C_11
REMARK    7  A    between atoms: C_14  and  C_15
REMARK                            x       y       z     vdW  Elec       q    Type
REMARK                         _______ _______ _______ _____ _____    ______ ____
ROOT
ATOM      1  C   UNL     1      43.753   5.353  10.800  0.00  0.00    +0.000 C 
ENDROOT
BRANCH   1   2
ATOM      2  N   UNL     1      43.735   3.926  10.449  0.00  0.00    +0.000 N 
ATOM      3  H   UNL     1      42.804   3.600  10.198  0.00  0.00    +0.000 HD
BRANCH   2   4
ATOM      4  C   UNL     1      44.703   3.498   9.520  0.00  0.00    +0.000 A 
ATOM      5  C   UNL     1      45.059   2.156   9.353  0.00  0.00    +0.000 A 
ATOM      6  C   UNL     1      45.986   1.774   8.385  0.00  0.00    +0.000 A 
ATOM      7  C   UNL     1      46.521   2.754   7.567  0.00  0.00    +0.000 A 
ATOM      8  N   UNL     1      46.179   4.070   7.643  0.00  0.00    +0.000 NA
ATOM      9  C   UNL     1      45.269   4.391   8.600  0.00  0.00    +0.000 A 
BRANCH   7  10
ATOM     10  C   UNL     1      47.527   2.365   6.529  0.00  0.00    +0.000 C 
ATOM     11  N   UNL     1      47.486   3.089   5.373  0.00  0.00    +0.000 N 
ATOM     12  O   UNL     1      48.341   1.466   6.695  0.00  0.00    +0.000 OA
ATOM     13  H   UNL     1      46.795   3.821   5.260  0.00  0.00    +0.000 HD
ATOM     14  H   UNL     1      48.130   2.877   4.624  0.00  0.00    +0.000 HD
ENDBRANCH   7  10
ENDBRANCH   2   4
ENDBRANCH   1   2
BRANCH   1  15
ATOM     15  C   UNL     1      43.768   5.572  12.318  0.00  0.00    +0.000 C 
BRANCH  15  20
ATOM     16  C   UNL     1      47.394   6.472  13.187  0.00  0.00    +0.000 A 
ATOM     17  C   UNL     1      47.725   5.363  13.991  0.00  0.00    +0.000 A 
ATOM     18  C   UNL     1      46.818   4.327  14.220  0.00  0.00    +0.000 A 
ATOM     19  C   UNL     1      45.546   4.376  13.658  0.00  0.00    +0.000 A 
ATOM     20  C   UNL     1      45.184   5.452  12.841  0.00  0.00    +0.000 A 
ATOM     21  C   UNL     1      46.117   6.479  12.599  0.00  0.00    +0.000 A 
BRANCH  16  23
ATOM     22  C   UNL     1      48.811   7.772  11.593  0.00  0.00    +0.000 C 
ATOM     23  C   UNL     1      48.385   7.644  13.067  0.00  0.00    +0.000 C 
ATOM     24  C   UNL     1      47.780   8.946  13.606  0.00  0.00    +0.000 C 
ATOM     25  C   UNL     1      48.258   9.032  15.048  0.00  0.00    +0.000 C 
ATOM     26  O   UNL     1      49.273   8.039  15.237  0.00  0.00    +0.000 OA
ATOM     27  C   UNL     1      49.647   7.564  13.941  0.00  0.00    +0.000 C 
ENDBRANCH  16  23
ENDBRANCH  15  20
ENDBRANCH   1  15
TORSDOF 6
ENDMDL
MODEL 4
REMARK VINA RESULT:    -7.287      1.707      2.602
REMARK INTER + INTRA:         -10.877
REMARK INTER:                 -10.083
REMARK INTRA:                  -0.794
REMARK UNBOUND:                -1.034
REMARK  Name = 
REMARK  7 active torsions:
REMARK  status: ('A' for Active; 'I' for Inactive)
REMARK    1  A    between atoms: C_1  and  C_2
REMARK    2  A    between atoms: C_2  and  C_3
REMARK    3  A    between atoms: C_7  and  C_8
REMARK    4  A    between atoms: C_8  and  C_9
REMARK    5  A    between atoms: C_9  and  N_10
REMARK    6  A    between atoms: N_10  and  C_11
REMARK    7  A    between atoms: C_14  and  C_15
REMARK                            x       y       z     vdW  Elec       q    Type
REMARK                         _______ _______ _______ _____ _____    ______ ____
ROOT
ATOM      1  C   UNL     1      43.544   4.403  11.075  0.00  0.00    +0.000 C 
ENDROOT
BRANCH   1   2
ATOM      2  N   UNL     1      43.750   3.053  10.533  0.00  0.00    +0.000 N 
ATOM      3  H   UNL     1      42.872   2.573  10.342  0.00  0.00    +0.000 HD
BRANCH   2   4
ATOM      4  C   UNL     1      44.647   2.942   9.453  0.00  0.00    +0.000 A 
ATOM      5  C   UNL     1      45.146   4.049   8.758  0.00  0.00    +0.000 A 
ATOM      6  C   UNL     1      46.070   3.892   7.728  0.00  0.00    +0.000 A 
ATOM      7  C   UNL     1      46.512   2.614   7.432  0.00  0.00    +0.000 A 
ATOM      8  N   UNL     1      46.107   1.501   8.103  0.00  0.00    +0.000 NA
ATOM      9  C   UNL     1      45.207   1.706   9.101  0.00  0.00    +0.000 A 
BRANCH   7  10
ATOM     10  C   UNL     1      47.498   2.425   6.320  0.00  0.00    +0.000 C 
ATOM     11  N   UNL     1      47.376   3.292   5.275  0.00  0.00    +0.000 N 
ATOM     12  O   UNL     1      48.365   1.560   6.340  0.00  0.00    +0.000 OA
ATOM     13  H   UNL     1      46.643   3.991   5.281  0.00  0.00    +0.000 HD
ATOM     14  H   UNL     1      48.002   3.218   4.485  0.00  0.00    +0.000 HD
ENDBRANCH   7  10
ENDBRANCH   2   4
ENDBRANCH   1   2
BRANCH   1  15
ATOM     15  C   UNL     1      44.494   4.706  12.240  0.00  0.00    +0.000 C 
BRANCH  15  20
ATOM     16  C   UNL     1      46.753   7.799  12.441  0.00  0.00    +0.000 A 
ATOM     17  C   UNL     1      45.909   8.748  11.830  0.00  0.00    +0.000 A 
ATOM     18  C   UNL     1      44.625   8.413  11.395  0.00  0.00    +0.000 A 
ATOM     19  C   UNL     1      44.152   7.115  11.551  0.00  0.00    +0.000 A 
ATOM     20  C   UNL     1      44.953   6.148  12.168  0.00  0.00    +0.000 A 
ATOM     21  C   UNL     1      46.238   6.504  12.623  0.00  0.00    +0.000 A 
BRANCH  16  23
ATOM     22  C   UNL     1      48.704   9.193  11.738  0.00  0.00    +0.000 C 
ATOM     23  C   UNL     1      48.202   8.187  12.790  0.00  0.00    +0.000 C 
ATOM     24  C   UNL     1      48.304   8.746  14.214  0.00  0.00    +0.000 C 
ATOM     25  C   UNL     1      48.693   7.553  15.076  0.00  0.00    +0.000 C 
ATOM     26  O   UNL     1      49.065   6.480  14.204  0.00  0.00    +0.000 OA
ATOM     27  C   UNL     1      49.213   7.033  12.892  0.00  0.00    +0.000 C 
ENDBRANCH  16  23
ENDBRANCH  15  20
ENDBRANCH   1  15
TORSDOF 6
ENDMDL
MODEL 5
REMARK VINA RESULT:    -6.671      5.352      7.991
REMARK INTER + INTRA:         -10.044
REMARK INTER:                  -9.416
REMARK INTRA:                  -0.628
REMARK UNBOUND:                -1.034
REMARK  Name = 
REMARK  7 active torsions:
REMARK  status: ('A' for Active; 'I' for Inactive)
REMARK    1  A    between atoms: C_1  and  C_2
REMARK    2  A    between atoms: C_2  and  C_3
REMARK    3  A    between atoms: C_7  and  C_8
REMARK    4  A    between atoms: C_8  and  C_9
REMARK    5  A    between atoms: C_9  and  N_10
REMARK    6  A    between atoms: N_10  and  C_11
REMARK    7  A    between atoms: C_14  and  C_15
REMARK                            x       y       z     vdW  Elec       q    Type
REMARK                         _______ _______ _______ _____ _____    ______ ____
ROOT
ATOM      1  C   UNL     1      48.144   5.043  15.967  0.00  0.00    +0.000 C 
ENDROOT
BRANCH   1   2
ATOM      2  N   UNL     1      48.471   4.470  17.280  0.00  0.00    +0.000 N 
ATOM      3  H   UNL     1      47.663   4.042  17.729  0.00  0.00    +0.000 HD
BRANCH   2   4
ATOM      4  C   UNL     1      49.599   3.629  17.333  0.00  0.00    +0.000 A 
ATOM      5  C   UNL     1      50.833   4.039  17.849  0.00  0.00    +0.000 A 
ATOM      6  C   UNL     1      51.908   3.157  17.926  0.00  0.00    +0.000 A 
ATOM      7  C   UNL     1      51.714   1.850  17.512  0.00  0.00    +0.000 A 
ATOM      8  N   UNL     1      50.527   1.373  17.048  0.00  0.00    +0.000 NA
ATOM      9  C   UNL     1      49.508   2.272  16.995  0.00  0.00    +0.000 A 
BRANCH   7  10
ATOM     10  C   UNL     1      52.861   0.889  17.578  0.00  0.00    +0.000 C 
ATOM     11  N   UNL     1      52.633  -0.247  18.298  0.00  0.00    +0.000 N 
ATOM     12  O   UNL     1      53.932   1.093  17.021  0.00  0.00    +0.000 OA
ATOM     13  H   UNL     1      51.739  -0.384  18.756  0.00  0.00    +0.000 HD
ATOM     14  H   UNL     1      53.364  -0.937  18.392  0.00  0.00    +0.000 HD
ENDBRANCH   7  10
ENDBRANCH   2   4
ENDBRANCH   1   2
BRANCH   1  15
ATOM     15  C   UNL     1      47.014   4.277  15.270  0.00  0.00    +0.000 C 
BRANCH  15  20
ATOM     16  C   UNL     1      45.281   5.088  11.946  0.00  0.00    +0.000 A 
ATOM     17  C   UNL     1      46.114   6.132  11.494  0.00  0.00    +0.000 A 
ATOM     18  C   UNL     1      47.233   6.542  12.221  0.00  0.00    +0.000 A 
ATOM     19  C   UNL     1      47.545   5.926  13.429  0.00  0.00    +0.000 A 
ATOM     20  C   UNL     1      46.751   4.877  13.904  0.00  0.00    +0.000 A 
ATOM     21  C   UNL     1      45.639   4.456  13.149  0.00  0.00    +0.000 A 
BRANCH  16  23
ATOM     22  C   UNL     1      43.000   5.920  11.354  0.00  0.00    +0.000 C 
ATOM     23  C   UNL     1      43.993   4.757  11.170  0.00  0.00    +0.000 C 
ATOM     24  C   UNL     1      44.287   4.482   9.690  0.00  0.00    +0.000 C 
ATOM     25  C   UNL     1      44.422   2.969   9.594  0.00  0.00    +0.000 C 
ATOM     26  O   UNL     1      43.964   2.404  10.827  0.00  0.00    +0.000 OA
ATOM     27  C   UNL     1      43.289   3.443  11.543  0.00  0.00    +0.000 C 
ENDBRANCH  16  23
ENDBRANCH  15  20
ENDBRANCH   1  15
TORSDOF 6
ENDMDL
MODEL 6
REMARK VINA RESULT:    -6.523      3.549      5.695
REMARK INTER + INTRA:          -9.844
REMARK INTER:                  -9.023
REMARK INTRA:                  -0.821
REMARK UNBOUND:                -1.034
REMARK  Name = 
REMARK  7 active torsions:
REMARK  status: ('A' for Active; 'I' for Inactive)
REMARK    1  A    between atoms: C_1  and  C_2
REMARK    2  A    between atoms: C_2  and  C_3
REMARK    3  A    between atoms: C_7  and  C_8
REMARK    4  A    between atoms: C_8  and  C_9
REMARK    5  A    between atoms: C_9  and  N_10
REMARK    6  A    between atoms: N_10  and  C_11
REMARK    7  A    between atoms: C_14  and  C_15
REMARK                            x       y       z     vdW  Elec       q    Type
REMARK                         _______ _______ _______ _____ _____    ______ ____
ROOT
ATOM      1  C   UNL     1      48.257   7.110  13.428  0.00  0.00    +0.000 C 
ENDROOT
BRANCH   1   2
ATOM      2  N   UNL     1      46.806   7.084  13.662  0.00  0.00    +0.000 N 
ATOM      3  H   UNL     1      46.377   7.999  13.538  0.00  0.00    +0.000 HD
BRANCH   2   4
ATOM      4  C   UNL     1      46.082   6.076  12.997  0.00  0.00    +0.000 A 
ATOM      5  C   UNL     1      45.799   6.117  11.627  0.00  0.00    +0.000 A 
ATOM      6  C   UNL     1      45.122   5.073  11.003  0.00  0.00    +0.000 A 
ATOM      7  C   UNL     1      44.766   3.974  11.765  0.00  0.00    +0.000 A 
ATOM      8  N   UNL     1      45.056   3.847  13.090  0.00  0.00    +0.000 NA
ATOM      9  C   UNL     1      45.721   4.891  13.652  0.00  0.00    +0.000 A 
BRANCH   7  10
ATOM     10  C   UNL     1      44.028   2.845  11.114  0.00  0.00    +0.000 C 
ATOM     11  N   UNL     1      44.606   2.341   9.986  0.00  0.00    +0.000 N 
ATOM     12  O   UNL     1      42.982   2.390  11.558  0.00  0.00    +0.000 OA
ATOM     13  H   UNL     1      45.467   2.744   9.636  0.00  0.00    +0.000 HD
ATOM     14  H   UNL     1      44.160   1.583   9.488  0.00  0.00    +0.000 HD
ENDBRANCH   7  10
ENDBRANCH   2   4
ENDBRANCH   1   2
BRANCH   1  15
ATOM     15  C   UNL     1      48.980   8.055  14.394  0.00  0.00    +0.000 C 
BRANCH  15  20
ATOM     16  C   UNL     1      49.836   5.404  17.030  0.00  0.00    +0.000 A 
ATOM     17  C   UNL     1      51.229   5.599  17.116  0.00  0.00    +0.000 A 
ATOM     18  C   UNL     1      51.878   6.586  16.373  0.00  0.00    +0.000 A 
ATOM     19  C   UNL     1      51.151   7.403  15.512  0.00  0.00    +0.000 A 
ATOM     20  C   UNL     1      49.764   7.251  15.410  0.00  0.00    +0.000 A 
ATOM     21  C   UNL     1      49.119   6.266  16.183  0.00  0.00    +0.000 A 
BRANCH  16  23
ATOM     22  C   UNL     1      49.184   4.542  19.283  0.00  0.00    +0.000 C 
ATOM     23  C   UNL     1      49.188   4.223  17.776  0.00  0.00    +0.000 C 
ATOM     24  C   UNL     1      47.780   3.931  17.246  0.00  0.00    +0.000 C 
ATOM     25  C   UNL     1      47.972   2.832  16.211  0.00  0.00    +0.000 C 
ATOM     26  O   UNL     1      49.308   2.333  16.338  0.00  0.00    +0.000 OA
ATOM     27  C   UNL     1      49.836   2.844  17.566  0.00  0.00    +0.000 C 
ENDBRANCH  16  23
ENDBRANCH  15  20
ENDBRANCH   1  15
TORSDOF 6
ENDMDL
MODEL 7
REMARK VINA RESULT:    -6.382      4.796      7.695
REMARK INTER + INTRA:          -9.654
REMARK INTER:                  -8.780
REMARK INTRA:                  -0.874
REMARK UNBOUND:                -1.034
REMARK  Name = 
REMARK  7 active torsions:
REMARK  status: ('A' for Active; 'I' for Inactive)
REMARK    1  A    between atoms: C_1  and  C_2
REMARK    2  A    between atoms: C_2  and  C_3
REMARK    3  A    between atoms: C_7  and  C_8
REMARK    4  A    between atoms: C_8  and  C_9
REMARK    5  A    between atoms: C_9  and  N_10
REMARK    6  A    between atoms: N_10  and  C_11
REMARK    7  A    between atoms: C_14  and  C_15
REMARK                            x       y       z     vdW  Elec       q    Type
REMARK                         _______ _______ _______ _____ _____    ______ ____
ROOT
ATOM      1  C   UNL     1      48.698   7.533  15.282  0.00  0.00    +0.000 C 
ENDROOT
BRANCH   1   2
ATOM      2  N   UNL     1      48.232   6.657  16.366  0.00  0.00    +0.000 N 
ATOM      3  H   UNL     1      47.256   6.388  16.256  0.00  0.00    +0.000 HD
BRANCH   2   4
ATOM      4  C   UNL     1      49.045   5.546  16.666  0.00  0.00    +0.000 A 
ATOM      5  C   UNL     1      50.363   5.666  17.120  0.00  0.00    +0.000 A 
ATOM      6  C   UNL     1      51.112   4.539  17.452  0.00  0.00    +0.000 A 
ATOM      7  C   UNL     1      50.508   3.298  17.355  0.00  0.00    +0.000 A 
ATOM      8  N   UNL     1      49.215   3.115  16.971  0.00  0.00    +0.000 NA
ATOM      9  C   UNL     1      48.525   4.245  16.660  0.00  0.00    +0.000 A 
BRANCH   7  10
ATOM     10  C   UNL     1      51.301   2.074  17.698  0.00  0.00    +0.000 C 
ATOM     11  N   UNL     1      52.364   2.279  18.527  0.00  0.00    +0.000 N 
ATOM     12  O   UNL     1      51.019   0.960  17.277  0.00  0.00    +0.000 OA
ATOM     13  H   UNL     1      52.579   3.214  18.853  0.00  0.00    +0.000 HD
ATOM     14  H   UNL     1      52.950   1.500  18.795  0.00  0.00    +0.000 HD
ENDBRANCH   7  10
ENDBRANCH   2   4
ENDBRANCH   1   2
BRANCH   1  15
ATOM     15  C   UNL     1      48.718   6.814  13.928  0.00  0.00    +0.000 C 
BRANCH  15  20
ATOM     16  C   UNL     1      45.529   6.308  11.858  0.00  0.00    +0.000 A 
ATOM     17  C   UNL     1      44.982   7.604  11.947  0.00  0.00    +0.000 A 
ATOM     18  C   UNL     1      45.640   8.631  12.625  0.00  0.00    +0.000 A 
ATOM     19  C   UNL     1      46.862   8.389  13.244  0.00  0.00    +0.000 A 
ATOM     20  C   UNL     1      47.446   7.120  13.165  0.00  0.00    +0.000 A 
ATOM     21  C   UNL     1      46.783   6.098  12.457  0.00  0.00    +0.000 A 
BRANCH  16  23
ATOM     22  C   UNL     1      45.267   4.924   9.794  0.00  0.00    +0.000 C 
ATOM     23  C   UNL     1      44.707   5.181  11.206  0.00  0.00    +0.000 C 
ATOM     24  C   UNL     1      44.713   3.913  12.067  0.00  0.00    +0.000 C 
ATOM     25  C   UNL     1      43.443   4.001  12.901  0.00  0.00    +0.000 C 
ATOM     26  O   UNL     1      42.636   5.058  12.369  0.00  0.00    +0.000 OA
ATOM     27  C   UNL     1      43.191   5.415  11.099  0.00  0.00    +0.000 C 
ENDBRANCH  16  23
ENDBRANCH  15  20
ENDBRANCH   1  15
TORSDOF 6
ENDMDL
MODEL 8
REMARK VINA RESULT:    -6.325      4.377      7.466
REMARK INTER + INTRA:          -9.577
REMARK INTER:                  -8.458
REMARK INTRA:                  -1.119
REMARK UNBOUND:                -1.034
REMARK  Name = 
REMARK  7 active torsions:
REMARK  status: ('A' for Active; 'I' for Inactive)
REMARK    1  A    between atoms: C_1  and  C_2
REMARK    2  A    between atoms: C_2  and  C_3
REMARK    3  A    between atoms: C_7  and  C_8
REMARK    4  A    between atoms: C_8  and  C_9
REMARK    5  A    between atoms: C_9  and  N_10
REMARK    6  A    between atoms: N_10  and  C_11
REMARK    7  A    between atoms: C_14  and  C_15
REMARK                            x       y       z     vdW  Elec       q    Type
REMARK                         _______ _______ _______ _____ _____    ______ ____
ROOT
ATOM      1  C   UNL     1      48.647   8.420  14.118  0.00  0.00    +0.000 C 
ENDROOT
BRANCH   1   2
ATOM      2  N   UNL     1      49.603   7.552  14.818  0.00  0.00    +0.000 N 
ATOM      3  H   UNL     1      50.290   8.081  15.352  0.00  0.00    +0.000 HD
BRANCH   2   4
ATOM      4  C   UNL     1      49.054   6.501  15.579  0.00  0.00    +0.000 A 
ATOM      5  C   UNL     1      47.945   5.756  15.163  0.00  0.00    +0.000 A 
ATOM      6  C   UNL     1      47.468   4.694  15.927  0.00  0.00    +0.000 A 
ATOM      7  C   UNL     1      48.140   4.369  17.092  0.00  0.00    +0.000 A 
ATOM      8  N   UNL     1      49.254   5.019  17.527  0.00  0.00    +0.000 NA
ATOM      9  C   UNL     1      49.683   6.047  16.746  0.00  0.00    +0.000 A 
BRANCH   7  10
ATOM     10  C   UNL     1      47.635   3.236  17.931  0.00  0.00    +0.000 C 
ATOM     11  N   UNL     1      48.276   3.059  19.123  0.00  0.00    +0.000 N 
ATOM     12  O   UNL     1      46.707   2.516  17.588  0.00  0.00    +0.000 OA
ATOM     13  H   UNL     1      49.048   3.665  19.377  0.00  0.00    +0.000 HD
ATOM     14  H   UNL     1      47.995   2.309  19.738  0.00  0.00    +0.000 HD
ENDBRANCH   7  10
ENDBRANCH   2   4
ENDBRANCH   1   2
BRANCH   1  15
ATOM     15  C   UNL     1      48.634   8.161  12.607  0.00  0.00    +0.000 C 
BRANCH  15  20
ATOM     16  C   UNL     1      45.353   6.610  11.365  0.00  0.00    +0.000 A 
ATOM     17  C   UNL     1      44.516   7.742  11.435  0.00  0.00    +0.000 A 
ATOM     18  C   UNL     1      45.002   8.988  11.836  0.00  0.00    +0.000 A 
ATOM     19  C   UNL     1      46.339   9.136  12.189  0.00  0.00    +0.000 A 
ATOM     20  C   UNL     1      47.206   8.040  12.117  0.00  0.00    +0.000 A 
ATOM     21  C   UNL     1      46.709   6.794  11.689  0.00  0.00    +0.000 A 
BRANCH  16  23
ATOM     22  C   UNL     1      45.261   4.790   9.656  0.00  0.00    +0.000 C 
ATOM     23  C   UNL     1      44.743   5.236  11.036  0.00  0.00    +0.000 C 
ATOM     24  C   UNL     1      45.059   4.207  12.129  0.00  0.00    +0.000 C 
ATOM     25  C   UNL     1      43.848   4.232  13.051  0.00  0.00    +0.000 C 
ATOM     26  O   UNL     1      42.813   4.979  12.402  0.00  0.00    +0.000 OA
ATOM     27  C   UNL     1      43.208   5.152  11.037  0.00  0.00    +0.000 C 
ENDBRANCH  16  23
ENDBRANCH  15  20
ENDBRANCH   1  15
TORSDOF 6
ENDMDL
MODEL 9
REMARK VINA RESULT:    -6.003      3.526      5.742
REMARK INTER + INTRA:          -9.142
REMARK INTER:                  -8.446
REMARK INTRA:                  -0.697
REMARK UNBOUND:                -1.034
REMARK  Name = 
REMARK  7 active torsions:
REMARK  status: ('A' for Active; 'I' for Inactive)
REMARK    1  A    between atoms: C_1  and  C_2
REMARK    2  A    between atoms: C_2  and  C_3
REMARK    3  A    between atoms: C_7  and  C_8
REMARK    4  A    between atoms: C_8  and  C_9
REMARK    5  A    between atoms: C_9  and  N_10
REMARK    6  A    between atoms: N_10  and  C_11
REMARK    7  A    between atoms: C_14  and  C_15
REMARK                            x       y       z     vdW  Elec       q    Type
REMARK                         _______ _______ _______ _____ _____    ______ ____
ROOT
ATOM      1  C   UNL     1      48.557   6.968  13.352  0.00  0.00    +0.000 C 
ENDROOT
BRANCH   1   2
ATOM      2  N   UNL     1      47.115   6.966  13.636  0.00  0.00    +0.000 N 
ATOM      3  H   UNL     1      46.707   7.897  13.577  0.00  0.00    +0.000 HD
BRANCH   2   4
ATOM      4  C   UNL     1      46.342   6.016  12.942  0.00  0.00    +0.000 A 
ATOM      5  C   UNL     1      45.896   6.206  11.630  0.00  0.00    +0.000 A 
ATOM      6  C   UNL     1      45.175   5.215  10.967  0.00  0.00    +0.000 A 
ATOM      7  C   UNL     1      44.940   4.022  11.627  0.00  0.00    +0.000 A 
ATOM      8  N   UNL     1      45.390   3.753  12.884  0.00  0.00    +0.000 NA
ATOM      9  C   UNL     1      46.091   4.749  13.487  0.00  0.00    +0.000 A 
BRANCH   7  10
ATOM     10  C   UNL     1      44.157   2.949  10.935  0.00  0.00    +0.000 C 
ATOM     11  N   UNL     1      43.340   2.209  11.738  0.00  0.00    +0.000 N 
ATOM     12  O   UNL     1      44.230   2.746   9.730  0.00  0.00    +0.000 OA
ATOM     13  H   UNL     1      43.308   2.393  12.734  0.00  0.00    +0.000 HD
ATOM     14  H   UNL     1      42.788   1.462  11.341  0.00  0.00    +0.000 HD
ENDBRANCH   7  10
ENDBRANCH   2   4
ENDBRANCH   1   2
BRANCH   1  15
ATOM     15  C   UNL     1      49.325   7.917  14.279  0.00  0.00    +0.000 C 
BRANCH  15  20
ATOM     16  C   UNL     1      49.670   5.450  17.195  0.00  0.00    +0.000 A 
ATOM     17  C   UNL     1      51.064   5.510  17.391  0.00  0.00    +0.000 A 
ATOM     18  C   UNL     1      51.875   6.353  16.630  0.00  0.00    +0.000 A 
ATOM     19  C   UNL     1      51.314   7.155  15.641  0.00  0.00    +0.000 A 
ATOM     20  C   UNL     1      49.932   7.136  15.426  0.00  0.00    +0.000 A 
ATOM     21  C   UNL     1      49.122   6.298  16.217  0.00  0.00    +0.000 A 
BRANCH  16  23
ATOM     22  C   UNL     1      49.231   3.007  17.489  0.00  0.00    +0.000 C 
ATOM     23  C   UNL     1      48.839   4.415  17.976  0.00  0.00    +0.000 C 
ATOM     24  C   UNL     1      49.026   4.573  19.489  0.00  0.00    +0.000 C 
ATOM     25  C   UNL     1      47.868   5.453  19.937  0.00  0.00    +0.000 C 
ATOM     26  O   UNL     1      46.942   5.552  18.849  0.00  0.00    +0.000 OA
ATOM     27  C   UNL     1      47.310   4.559  17.887  0.00  0.00    +0.000 C 
ENDBRANCH  16  23
ENDBRANCH  15  20
ENDBRANCH   1  15
TORSDOF 6
ENDMDL
