MODEL 1
REMARK VINA RESULT:    -7.478      0.000      0.000
REMARK INTER + INTRA:         -10.512
REMARK INTER:                  -9.883
REMARK INTRA:                  -0.629
REMARK UNBOUND:                -0.629
REMARK  Name = 
REMARK  8 active torsions:
REMARK  status: ('A' for Active; 'I' for Inactive)
REMARK    1  A    between atoms: C_1  and  C_2
REMARK    2  A    between atoms: C_2  and  C_3
REMARK    3  A    between atoms: C_2  and  N_4
REMARK    4  A    between atoms: C_2  and  C_5
REMARK    5  A    between atoms: C_5  and  C_6
REMARK    6  A    between atoms: C_9  and  C_10
REMARK    7  A    between atoms: C_10  and  N_11
REMARK    8  A    between atoms: C_17  and  C_18
REMARK                            x       y       z     vdW  Elec       q    Type
REMARK                         _______ _______ _______ _____ _____    ______ ____
ROOT
ATOM      1  N   UNL     1      44.236   4.080  10.305  0.00  0.00    +0.000 N 
ATOM      2  C   UNL     1      43.799   2.856  10.721  0.00  0.00    +0.000 A 
ATOM      3  N   UNL     1      44.355   1.885  10.037  0.00  0.00    +0.000 NA
ATOM      4  C   UNL     1      45.191   2.496   9.126  0.00  0.00    +0.000 A 
ATOM      5  C   UNL     1      46.006   1.954   8.119  0.00  0.00    +0.000 A 
ATOM      6 CL   UNL     1      45.959   0.255   7.983  0.00  0.00    +0.000 Cl
ATOM      7  C   UNL     1      46.722   2.861   7.348  0.00  0.00    +0.000 A 
ATOM      8  N   UNL     1      46.677   4.225   7.531  0.00  0.00    +0.000 NA
ATOM      9  C   UNL     1      45.892   4.743   8.501  0.00  0.00    +0.000 A 
ATOM     10  C   UNL     1      45.144   3.881   9.288  0.00  0.00    +0.000 A 
ENDROOT
BRANCH   7  11
ATOM     11  C   UNL     1      47.607   2.424   6.210  0.00  0.00    +0.000 C 
ATOM     12  N   UNL     1      47.431   3.094   5.029  0.00  0.00    +0.000 N 
ATOM     13  O   UNL     1      48.439   1.535   6.280  0.00  0.00    +0.000 OA
ATOM     14  H   UNL     1      46.744   3.836   4.960  0.00  0.00    +0.000 HD
ATOM     15  H   UNL     1      47.993   2.841   4.229  0.00  0.00    +0.000 HD
ENDBRANCH   7  11
BRANCH   1  16
ATOM     16  C   UNL     1      43.694   5.352  10.755  0.00  0.00    +0.000 C 
BRANCH  16  20
ATOM     17  C   UNL     1      46.578   7.659  13.019  0.00  0.00    +0.000 A 
ATOM     18  C   UNL     1      46.481   6.274  13.199  0.00  0.00    +0.000 A 
ATOM     19  C   UNL     1      45.545   5.522  12.479  0.00  0.00    +0.000 A 
ATOM     20  C   UNL     1      44.685   6.147  11.565  0.00  0.00    +0.000 A 
ATOM     21  C   UNL     1      44.768   7.538  11.405  0.00  0.00    +0.000 A 
ATOM     22  C   UNL     1      45.701   8.284  12.127  0.00  0.00    +0.000 A 
BRANCH  17  23
ATOM     23  C   UNL     1      47.618   8.461  13.775  0.00  0.00    +0.000 C 
BRANCH  23  25
ATOM     24  C   UNL     1      49.919   9.475  13.846  0.00  0.00    +0.000 C 
ATOM     25  C   UNL     1      49.098   8.284  13.317  0.00  0.00    +0.000 C 
ATOM     26  C   UNL     1      49.234   8.235  11.787  0.00  0.00    +0.000 C 
BRANCH  25  27
ATOM     27  N   UNL     1      49.688   7.062  13.888  0.00  0.00    +0.000 NA
ATOM     28  H   UNL     1      50.185   6.547  13.161  0.00  0.00    +0.000 HD
ATOM     29  H   UNL     1      48.938   6.442  14.198  0.00  0.00    +0.000 HD
ENDBRANCH  25  27
ENDBRANCH  23  25
ENDBRANCH  17  23
ENDBRANCH  16  20
ENDBRANCH   1  16
TORSDOF 6
ENDMDL
MODEL 2
REMARK VINA RESULT:    -7.260      3.497      7.499
REMARK INTER + INTRA:         -10.223
REMARK INTER:                  -9.724
REMARK INTRA:                  -0.499
REMARK UNBOUND:                -0.629
REMARK  Name = 
REMARK  8 active torsions:
REMARK  status: ('A' for Active; 'I' for Inactive)
REMARK    1  A    between atoms: C_1  and  C_2
REMARK    2  A    between atoms: C_2  and  C_3
REMARK    3  A    between atoms: C_2  and  N_4
REMARK    4  A    between atoms: C_2  and  C_5
REMARK    5  A    between atoms: C_5  and  C_6
REMARK    6  A    between atoms: C_9  and  C_10
REMARK    7  A    between atoms: C_10  and  N_11
REMARK    8  A    between atoms: C_17  and  C_18
REMARK                            x       y       z     vdW  Elec       q    Type
REMARK                         _______ _______ _______ _____ _____    ______ ____
ROOT
ATOM      1  N   UNL     1      45.643   5.088  13.167  0.00  0.00    +0.000 N 
ATOM      2  C   UNL     1      46.568   4.260  13.736  0.00  0.00    +0.000 A 
ATOM      3  N   UNL     1      47.618   4.922  14.157  0.00  0.00    +0.000 NA
ATOM      4  C   UNL     1      47.379   6.244  13.846  0.00  0.00    +0.000 A 
ATOM      5  C   UNL     1      48.172   7.389  14.029  0.00  0.00    +0.000 A 
ATOM      6 CL   UNL     1      49.692   7.111  14.750  0.00  0.00    +0.000 Cl
ATOM      7  C   UNL     1      47.637   8.590  13.581  0.00  0.00    +0.000 A 
ATOM      8  N   UNL     1      46.397   8.705  12.994  0.00  0.00    +0.000 NA
ATOM      9  C   UNL     1      45.637   7.601  12.820  0.00  0.00    +0.000 A 
ATOM     10  C   UNL     1      46.132   6.374  13.236  0.00  0.00    +0.000 A 
ENDROOT
BRANCH   7  11
ATOM     11  C   UNL     1      48.391   9.890  13.679  0.00  0.00    +0.000 C 
ATOM     12  N   UNL     1      48.496  10.425  14.935  0.00  0.00    +0.000 N 
ATOM     13  O   UNL     1      48.891  10.475  12.732  0.00  0.00    +0.000 OA
ATOM     14  H   UNL     1      48.085   9.946  15.729  0.00  0.00    +0.000 HD
ATOM     15  H   UNL     1      48.986  11.298  15.062  0.00  0.00    +0.000 HD
ENDBRANCH   7  11
BRANCH   1  16
ATOM     16  C   UNL     1      44.449   4.643  12.469  0.00  0.00    +0.000 C 
BRANCH  16  20
ATOM     17  C   UNL     1      45.222   3.446   8.379  0.00  0.00    +0.000 A 
ATOM     18  C   UNL     1      44.677   2.535   9.293  0.00  0.00    +0.000 A 
ATOM     19  C   UNL     1      44.434   2.911  10.618  0.00  0.00    +0.000 A 
ATOM     20  C   UNL     1      44.735   4.208  11.055  0.00  0.00    +0.000 A 
ATOM     21  C   UNL     1      45.303   5.110  10.144  0.00  0.00    +0.000 A 
ATOM     22  C   UNL     1      45.547   4.731   8.823  0.00  0.00    +0.000 A 
BRANCH  17  23
ATOM     23  C   UNL     1      45.449   3.043   6.936  0.00  0.00    +0.000 C 
BRANCH  23  25
ATOM     24  C   UNL     1      46.977   2.402   5.043  0.00  0.00    +0.000 C 
ATOM     25  C   UNL     1      46.881   2.544   6.573  0.00  0.00    +0.000 C 
ATOM     26  C   UNL     1      47.206   1.184   7.214  0.00  0.00    +0.000 C 
BRANCH  25  27
ATOM     27  N   UNL     1      47.905   3.521   6.983  0.00  0.00    +0.000 NA
ATOM     28  H   UNL     1      48.698   3.034   7.403  0.00  0.00    +0.000 HD
ATOM     29  H   UNL     1      47.523   4.112   7.724  0.00  0.00    +0.000 HD
ENDBRANCH  25  27
ENDBRANCH  23  25
ENDBRANCH  17  23
ENDBRANCH  16  20
ENDBRANCH   1  16
TORSDOF 6
ENDMDL
MODEL 3
REMARK VINA RESULT:    -6.620      3.899      7.919
REMARK INTER + INTRA:          -9.378
REMARK INTER:                  -9.272
REMARK INTRA:                  -0.105
REMARK UNBOUND:                -0.629
REMARK  Name = 
REMARK  8 active torsions:
REMARK  status: ('A' for Active; 'I' for Inactive)
REMARK    1  A    between atoms: C_1  and  C_2
REMARK    2  A    between atoms: C_2  and  C_3
REMARK    3  A    between atoms: C_2  and  N_4
REMARK    4  A    between atoms: C_2  and  C_5
REMARK    5  A    between atoms: C_5  and  C_6
REMARK    6  A    between atoms: C_9  and  C_10
REMARK    7  A    between atoms: C_10  and  N_11
REMARK    8  A    between atoms: C_17  and  C_18
REMARK                            x       y       z     vdW  Elec       q    Type
REMARK                         _______ _______ _______ _____ _____    ______ ____
ROOT
ATOM      1  N   UNL     1      45.997   5.891  12.802  0.00  0.00    +0.000 N 
ATOM      2  C   UNL     1      46.318   7.157  12.406  0.00  0.00    +0.000 A 
ATOM      3  N   UNL     1      47.281   7.664  13.137  0.00  0.00    +0.000 NA
ATOM      4  C   UNL     1      47.605   6.692  14.059  0.00  0.00    +0.000 A 
ATOM      5  C   UNL     1      48.537   6.698  15.111  0.00  0.00    +0.000 A 
ATOM      6 CL   UNL     1      49.417   8.147  15.293  0.00  0.00    +0.000 Cl
ATOM      7  C   UNL     1      48.607   5.544  15.881  0.00  0.00    +0.000 A 
ATOM      8  N   UNL     1      47.835   4.427  15.659  0.00  0.00    +0.000 NA
ATOM      9  C   UNL     1      46.939   4.425  14.646  0.00  0.00    +0.000 A 
ATOM     10  C   UNL     1      46.819   5.558  13.857  0.00  0.00    +0.000 A 
ENDROOT
BRANCH   7  11
ATOM     11  C   UNL     1      49.533   5.423  17.062  0.00  0.00    +0.000 C 
ATOM     12  N   UNL     1      49.150   6.097  18.191  0.00  0.00    +0.000 N 
ATOM     13  O   UNL     1      50.572   4.783  17.067  0.00  0.00    +0.000 OA
ATOM     14  H   UNL     1      48.288   6.630  18.199  0.00  0.00    +0.000 HD
ATOM     15  H   UNL     1      49.734   6.057  19.014  0.00  0.00    +0.000 HD
ENDBRANCH   7  11
BRANCH   1  16
ATOM     16  C   UNL     1      44.871   5.123  12.297  0.00  0.00    +0.000 C 
BRANCH  16  20
ATOM     17  C   UNL     1      45.522   3.628   8.284  0.00  0.00    +0.000 A 
ATOM     18  C   UNL     1      45.005   2.788   9.278  0.00  0.00    +0.000 A 
ATOM     19  C   UNL     1      44.801   3.260  10.579  0.00  0.00    +0.000 A 
ATOM     20  C   UNL     1      45.115   4.585  10.911  0.00  0.00    +0.000 A 
ATOM     21  C   UNL     1      45.655   5.417   9.919  0.00  0.00    +0.000 A 
ATOM     22  C   UNL     1      45.859   4.942   8.623  0.00  0.00    +0.000 A 
BRANCH  17  23
ATOM     23  C   UNL     1      45.706   3.121   6.868  0.00  0.00    +0.000 C 
BRANCH  23  25
ATOM     24  C   UNL     1      47.156   2.204   5.028  0.00  0.00    +0.000 C 
ATOM     25  C   UNL     1      47.074   2.446   6.546  0.00  0.00    +0.000 C 
ATOM     26  C   UNL     1      47.245   1.099   7.268  0.00  0.00    +0.000 C 
BRANCH  25  27
ATOM     27  N   UNL     1      48.199   3.326   6.907  0.00  0.00    +0.000 NA
ATOM     28  H   UNL     1      49.049   2.772   7.016  0.00  0.00    +0.000 HD
ATOM     29  H   UNL     1      48.020   3.737   7.824  0.00  0.00    +0.000 HD
ENDBRANCH  25  27
ENDBRANCH  23  25
ENDBRANCH  17  23
ENDBRANCH  16  20
ENDBRANCH   1  16
TORSDOF 6
ENDMDL
MODEL 4
REMARK VINA RESULT:    -5.988      4.188      6.267
REMARK INTER + INTRA:          -8.543
REMARK INTER:                  -8.009
REMARK INTRA:                  -0.534
REMARK UNBOUND:                -0.629
REMARK  Name = 
REMARK  8 active torsions:
REMARK  status: ('A' for Active; 'I' for Inactive)
REMARK    1  A    between atoms: C_1  and  C_2
REMARK    2  A    between atoms: C_2  and  C_3
REMARK    3  A    between atoms: C_2  and  N_4
REMARK    4  A    between atoms: C_2  and  C_5
REMARK    5  A    between atoms: C_5  and  C_6
REMARK    6  A    between atoms: C_9  and  C_10
REMARK    7  A    between atoms: C_10  and  N_11
REMARK    8  A    between atoms: C_17  and  C_18
REMARK                            x       y       z     vdW  Elec       q    Type
REMARK                         _______ _______ _______ _____ _____    ______ ____
ROOT
ATOM      1  N   UNL     1      46.958   7.887  13.058  0.00  0.00    +0.000 N 
ATOM      2  C   UNL     1      46.081   8.853  12.657  0.00  0.00    +0.000 A 
ATOM      3  N   UNL     1      44.982   8.337  12.163  0.00  0.00    +0.000 NA
ATOM      4  C   UNL     1      45.144   6.969  12.235  0.00  0.00    +0.000 A 
ATOM      5  C   UNL     1      44.306   5.921  11.819  0.00  0.00    +0.000 A 
ATOM      6 CL   UNL     1      42.841   6.408  11.094  0.00  0.00    +0.000 Cl
ATOM      7  C   UNL     1      44.780   4.632  12.023  0.00  0.00    +0.000 A 
ATOM      8  N   UNL     1      45.993   4.345  12.607  0.00  0.00    +0.000 NA
ATOM      9  C   UNL     1      46.797   5.356  13.007  0.00  0.00    +0.000 A 
ATOM     10  C   UNL     1      46.376   6.663  12.811  0.00  0.00    +0.000 A 
ENDROOT
BRANCH   7  11
ATOM     11  C   UNL     1      44.005   3.414  11.592  0.00  0.00    +0.000 C 
ATOM     12  N   UNL     1      43.681   2.532  12.588  0.00  0.00    +0.000 N 
ATOM     13  O   UNL     1      43.666   3.177  10.444  0.00  0.00    +0.000 OA
ATOM     14  H   UNL     1      43.956   2.720  13.545  0.00  0.00    +0.000 HD
ATOM     15  H   UNL     1      43.166   1.694  12.358  0.00  0.00    +0.000 HD
ENDBRANCH   7  11
BRANCH   1  16
ATOM     16  C   UNL     1      48.320   8.134  13.500  0.00  0.00    +0.000 C 
BRANCH  16  20
ATOM     17  C   UNL     1      48.810   7.290  17.720  0.00  0.00    +0.000 A 
ATOM     18  C   UNL     1      48.338   8.539  17.297  0.00  0.00    +0.000 A 
ATOM     19  C   UNL     1      48.186   8.823  15.936  0.00  0.00    +0.000 A 
ATOM     20  C   UNL     1      48.509   7.860  14.969  0.00  0.00    +0.000 A 
ATOM     21  C   UNL     1      49.005   6.619  15.395  0.00  0.00    +0.000 A 
ATOM     22  C   UNL     1      49.156   6.340  16.754  0.00  0.00    +0.000 A 
BRANCH  17  23
ATOM     23  C   UNL     1      48.938   6.977  19.197  0.00  0.00    +0.000 C 
BRANCH  23  25
ATOM     24  C   UNL     1      47.483   6.312  21.138  0.00  0.00    +0.000 C 
ATOM     25  C   UNL     1      47.993   5.869  19.755  0.00  0.00    +0.000 C 
ATOM     26  C   UNL     1      48.706   4.515  19.905  0.00  0.00    +0.000 C 
BRANCH  25  27
ATOM     27  N   UNL     1      46.812   5.692  18.893  0.00  0.00    +0.000 NA
ATOM     28  H   UNL     1      47.103   5.635  17.917  0.00  0.00    +0.000 HD
ATOM     29  H   UNL     1      46.227   6.527  18.955  0.00  0.00    +0.000 HD
ENDBRANCH  25  27
ENDBRANCH  23  25
ENDBRANCH  17  23
ENDBRANCH  16  20
ENDBRANCH   1  16
TORSDOF 6
ENDMDL
MODEL 5
REMARK VINA RESULT:    -5.978      3.424      5.611
REMARK INTER + INTRA:          -8.529
REMARK INTER:                  -8.121
REMARK INTRA:                  -0.408
REMARK UNBOUND:                -0.629
REMARK  Name = 
REMARK  8 active torsions:
REMARK  status: ('A' for Active; 'I' for Inactive)
REMARK    1  A    between atoms: C_1  and  C_2
REMARK    2  A    between atoms: C_2  and  C_3
REMARK    3  A    between atoms: C_2  and  N_4
REMARK    4  A    between atoms: C_2  and  C_5
REMARK    5  A    between atoms: C_5  and  C_6
REMARK    6  A    between atoms: C_9  and  C_10
REMARK    7  A    between atoms: C_10  and  N_11
REMARK    8  A    between atoms: C_17  and  C_18
REMARK                            x       y       z     vdW  Elec       q    Type
REMARK                         _______ _______ _______ _____ _____    ______ ____
ROOT
ATOM      1  N   UNL     1      47.004   6.849  13.632  0.00  0.00    +0.000 N 
ATOM      2  C   UNL     1      46.283   7.914  13.173  0.00  0.00    +0.000 A 
ATOM      3  N   UNL     1      45.245   7.531  12.470  0.00  0.00    +0.000 NA
ATOM      4  C   UNL     1      45.285   6.152  12.461  0.00  0.00    +0.000 A 
ATOM      5  C   UNL     1      44.449   5.213  11.836  0.00  0.00    +0.000 A 
ATOM      6 CL   UNL     1      43.168   5.874  10.925  0.00  0.00    +0.000 Cl
ATOM      7  C   UNL     1      44.780   3.875  12.012  0.00  0.00    +0.000 A 
ATOM      8  N   UNL     1      45.853   3.444  12.759  0.00  0.00    +0.000 NA
ATOM      9  C   UNL     1      46.656   4.351  13.359  0.00  0.00    +0.000 A 
ATOM     10  C   UNL     1      46.377   5.700  13.201  0.00  0.00    +0.000 A 
ENDROOT
BRANCH   7  11
ATOM     11  C   UNL     1      43.995   2.762  11.370  0.00  0.00    +0.000 C 
ATOM     12  N   UNL     1      44.524   2.249  10.216  0.00  0.00    +0.000 N 
ATOM     13  O   UNL     1      42.947   2.313  11.803  0.00  0.00    +0.000 OA
ATOM     14  H   UNL     1      45.395   2.614   9.848  0.00  0.00    +0.000 HD
ATOM     15  H   UNL     1      44.039   1.504   9.738  0.00  0.00    +0.000 HD
ENDBRANCH   7  11
BRANCH   1  16
ATOM     16  C   UNL     1      48.289   6.944  14.304  0.00  0.00    +0.000 C 
BRANCH  16  20
ATOM     17  C   UNL     1      51.440   8.316  11.669  0.00  0.00    +0.000 A 
ATOM     18  C   UNL     1      51.521   8.544  13.049  0.00  0.00    +0.000 A 
ATOM     19  C   UNL     1      50.502   8.113  13.906  0.00  0.00    +0.000 A 
ATOM     20  C   UNL     1      49.380   7.447  13.395  0.00  0.00    +0.000 A 
ATOM     21  C   UNL     1      49.290   7.242  12.011  0.00  0.00    +0.000 A 
ATOM     22  C   UNL     1      50.308   7.676  11.159  0.00  0.00    +0.000 A 
BRANCH  17  23
ATOM     23  C   UNL     1      52.564   8.754  10.752  0.00  0.00    +0.000 C 
BRANCH  23  25
ATOM     24  C   UNL     1      54.855   8.157   9.903  0.00  0.00    +0.000 C 
ATOM     25  C   UNL     1      53.429   7.619  10.124  0.00  0.00    +0.000 C 
ATOM     26  C   UNL     1      52.871   7.138   8.775  0.00  0.00    +0.000 C 
BRANCH  25  27
ATOM     27  N   UNL     1      53.535   6.466  11.034  0.00  0.00    +0.000 NA
ATOM     28  H   UNL     1      54.094   6.721  11.850  0.00  0.00    +0.000 HD
ATOM     29  H   UNL     1      54.055   5.721  10.568  0.00  0.00    +0.000 HD
ENDBRANCH  25  27
ENDBRANCH  23  25
ENDBRANCH  17  23
ENDBRANCH  16  20
ENDBRANCH   1  16
TORSDOF 6
ENDMDL
MODEL 6
REMARK VINA RESULT:    -5.667      4.208      6.162
REMARK INTER + INTRA:          -8.118
REMARK INTER:                  -7.494
REMARK INTRA:                  -0.624
REMARK UNBOUND:                -0.629
REMARK  Name = 
REMARK  8 active torsions:
REMARK  status: ('A' for Active; 'I' for Inactive)
REMARK    1  A    between atoms: C_1  and  C_2
REMARK    2  A    between atoms: C_2  and  C_3
REMARK    3  A    between atoms: C_2  and  N_4
REMARK    4  A    between atoms: C_2  and  C_5
REMARK    5  A    between atoms: C_5  and  C_6
REMARK    6  A    between atoms: C_9  and  C_10
REMARK    7  A    between atoms: C_10  and  N_11
REMARK    8  A    between atoms: C_17  and  C_18
REMARK                            x       y       z     vdW  Elec       q    Type
REMARK                         _______ _______ _______ _____ _____    ______ ____
ROOT
ATOM      1  N   UNL     1      46.991   7.712  12.979  0.00  0.00    +0.000 N 
ATOM      2  C   UNL     1      46.094   8.615  12.484  0.00  0.00    +0.000 A 
ATOM      3  N   UNL     1      45.000   8.029  12.061  0.00  0.00    +0.000 NA
ATOM      4  C   UNL     1      45.185   6.681  12.281  0.00  0.00    +0.000 A 
ATOM      5  C   UNL     1      44.362   5.580  11.991  0.00  0.00    +0.000 A 
ATOM      6 CL   UNL     1      42.883   5.962  11.232  0.00  0.00    +0.000 Cl
ATOM      7  C   UNL     1      44.859   4.329  12.330  0.00  0.00    +0.000 A 
ATOM      8  N   UNL     1      46.082   4.127  12.929  0.00  0.00    +0.000 NA
ATOM      9  C   UNL     1      46.872   5.189  13.207  0.00  0.00    +0.000 A 
ATOM     10  C   UNL     1      46.428   6.459  12.874  0.00  0.00    +0.000 A 
ENDROOT
BRANCH   7  11
ATOM     11  C   UNL     1      44.101   3.059  12.043  0.00  0.00    +0.000 C 
ATOM     12  N   UNL     1      44.232   2.561  10.774  0.00  0.00    +0.000 N 
ATOM     13  O   UNL     1      43.399   2.474  12.851  0.00  0.00    +0.000 OA
ATOM     14  H   UNL     1      44.814   3.039  10.097  0.00  0.00    +0.000 HD
ATOM     15  H   UNL     1      43.742   1.715  10.523  0.00  0.00    +0.000 HD
ENDBRANCH   7  11
BRANCH   1  16
ATOM     16  C   UNL     1      48.353   8.027  13.377  0.00  0.00    +0.000 C 
BRANCH  16  20
ATOM     17  C   UNL     1      48.984   7.805  17.657  0.00  0.00    +0.000 A 
ATOM     18  C   UNL     1      49.387   6.753  16.825  0.00  0.00    +0.000 A 
ATOM     19  C   UNL     1      49.178   6.813  15.443  0.00  0.00    +0.000 A 
ATOM     20  C   UNL     1      48.556   7.929  14.866  0.00  0.00    +0.000 A 
ATOM     21  C   UNL     1      48.131   8.970  15.705  0.00  0.00    +0.000 A 
ATOM     22  C   UNL     1      48.339   8.906  17.083  0.00  0.00    +0.000 A 
BRANCH  17  23
ATOM     23  C   UNL     1      49.245   7.750  19.148  0.00  0.00    +0.000 C 
BRANCH  23  25
ATOM     24  C   UNL     1      47.423   8.360  20.771  0.00  0.00    +0.000 C 
ATOM     25  C   UNL     1      48.093   7.186  20.034  0.00  0.00    +0.000 C 
ATOM     26  C   UNL     1      48.599   6.176  21.077  0.00  0.00    +0.000 C 
BRANCH  25  27
ATOM     27  N   UNL     1      47.055   6.542  19.210  0.00  0.00    +0.000 NA
ATOM     28  H   UNL     1      46.268   6.268  19.799  0.00  0.00    +0.000 HD
ATOM     29  H   UNL     1      47.427   5.671  18.827  0.00  0.00    +0.000 HD
ENDBRANCH  25  27
ENDBRANCH  23  25
ENDBRANCH  17  23
ENDBRANCH  16  20
ENDBRANCH   1  16
TORSDOF 6
ENDMDL
MODEL 7
REMARK VINA RESULT:    -5.646      5.397      8.824
REMARK INTER + INTRA:          -8.090
REMARK INTER:                  -7.451
REMARK INTRA:                  -0.639
REMARK UNBOUND:                -0.629
REMARK  Name = 
REMARK  8 active torsions:
REMARK  status: ('A' for Active; 'I' for Inactive)
REMARK    1  A    between atoms: C_1  and  C_2
REMARK    2  A    between atoms: C_2  and  C_3
REMARK    3  A    between atoms: C_2  and  N_4
REMARK    4  A    between atoms: C_2  and  C_5
REMARK    5  A    between atoms: C_5  and  C_6
REMARK    6  A    between atoms: C_9  and  C_10
REMARK    7  A    between atoms: C_10  and  N_11
REMARK    8  A    between atoms: C_17  and  C_18
REMARK                            x       y       z     vdW  Elec       q    Type
REMARK                         _______ _______ _______ _____ _____    ______ ____
ROOT
ATOM      1  N   UNL     1      48.885   8.898  15.027  0.00  0.00    +0.000 N 
ATOM      2  C   UNL     1      48.620   9.951  15.855  0.00  0.00    +0.000 A 
ATOM      3  N   UNL     1      48.535   9.573  17.108  0.00  0.00    +0.000 NA
ATOM      4  C   UNL     1      48.746   8.211  17.106  0.00  0.00    +0.000 A 
ATOM      5  C   UNL     1      48.733   7.277  18.155  0.00  0.00    +0.000 A 
ATOM      6 CL   UNL     1      48.393   7.923  19.696  0.00  0.00    +0.000 Cl
ATOM      7  C   UNL     1      48.969   5.953  17.808  0.00  0.00    +0.000 A 
ATOM      8  N   UNL     1      49.218   5.531  16.522  0.00  0.00    +0.000 NA
ATOM      9  C   UNL     1      49.230   6.432  15.514  0.00  0.00    +0.000 A 
ATOM     10  C   UNL     1      48.984   7.765  15.806  0.00  0.00    +0.000 A 
ENDROOT
BRANCH   7  11
ATOM     11  C   UNL     1      48.948   4.841  18.824  0.00  0.00    +0.000 C 
ATOM     12  N   UNL     1      47.839   4.038  18.805  0.00  0.00    +0.000 N 
ATOM     13  O   UNL     1      49.832   4.628  19.637  0.00  0.00    +0.000 OA
ATOM     14  H   UNL     1      47.100   4.205  18.132  0.00  0.00    +0.000 HD
ATOM     15  H   UNL     1      47.767   3.278  19.466  0.00  0.00    +0.000 HD
ENDBRANCH   7  11
BRANCH   1  16
ATOM     16  C   UNL     1      48.883   8.962  13.575  0.00  0.00    +0.000 C 
BRANCH  16  20
ATOM     17  C   UNL     1      45.514   6.821  11.895  0.00  0.00    +0.000 A 
ATOM     18  C   UNL     1      46.824   6.422  11.602  0.00  0.00    +0.000 A 
ATOM     19  C   UNL     1      47.918   7.115  12.133  0.00  0.00    +0.000 A 
ATOM     20  C   UNL     1      47.720   8.224  12.966  0.00  0.00    +0.000 A 
ATOM     21  C   UNL     1      46.406   8.636  13.238  0.00  0.00    +0.000 A 
ATOM     22  C   UNL     1      45.318   7.944  12.704  0.00  0.00    +0.000 A 
BRANCH  17  23
ATOM     23  C   UNL     1      44.334   6.045  11.346  0.00  0.00    +0.000 C 
BRANCH  23  25
ATOM     24  C   UNL     1      44.871   4.368  13.143  0.00  0.00    +0.000 C 
ATOM     25  C   UNL     1      43.738   4.941  12.272  0.00  0.00    +0.000 C 
ATOM     26  C   UNL     1      43.101   3.791  11.475  0.00  0.00    +0.000 C 
BRANCH  25  27
ATOM     27  N   UNL     1      42.729   5.503  13.187  0.00  0.00    +0.000 NA
ATOM     28  H   UNL     1      42.617   6.501  13.006  0.00  0.00    +0.000 HD
ATOM     29  H   UNL     1      43.075   5.437  14.146  0.00  0.00    +0.000 HD
ENDBRANCH  25  27
ENDBRANCH  23  25
ENDBRANCH  17  23
ENDBRANCH  16  20
ENDBRANCH   1  16
TORSDOF 6
ENDMDL
MODEL 8
REMARK VINA RESULT:    -5.308      3.318      5.738
REMARK INTER + INTRA:          -7.643
REMARK INTER:                  -6.981
REMARK INTRA:                  -0.663
REMARK UNBOUND:                -0.629
REMARK  Name = 
REMARK  8 active torsions:
REMARK  status: ('A' for Active; 'I' for Inactive)
REMARK    1  A    between atoms: C_1  and  C_2
REMARK    2  A    between atoms: C_2  and  C_3
REMARK    3  A    between atoms: C_2  and  N_4
REMARK    4  A    between atoms: C_2  and  C_5
REMARK    5  A    between atoms: C_5  and  C_6
REMARK    6  A    between atoms: C_9  and  C_10
REMARK    7  A    between atoms: C_10  and  N_11
REMARK    8  A    between atoms: C_17  and  C_18
REMARK                            x       y       z     vdW  Elec       q    Type
REMARK                         _______ _______ _______ _____ _____    ______ ____
ROOT
ATOM      1  N   UNL     1      47.460   7.498  13.582  0.00  0.00    +0.000 N 
ATOM      2  C   UNL     1      48.088   6.458  14.205  0.00  0.00    +0.000 A 
ATOM      3  N   UNL     1      47.585   5.302  13.847  0.00  0.00    +0.000 NA
ATOM      4  C   UNL     1      46.576   5.592  12.952  0.00  0.00    +0.000 A 
ATOM      5  C   UNL     1      45.676   4.750  12.277  0.00  0.00    +0.000 A 
ATOM      6 CL   UNL     1      45.844   3.088  12.616  0.00  0.00    +0.000 Cl
ATOM      7  C   UNL     1      44.753   5.372  11.445  0.00  0.00    +0.000 A 
ATOM      8  N   UNL     1      44.691   6.733  11.252  0.00  0.00    +0.000 NA
ATOM      9  C   UNL     1      45.559   7.540  11.904  0.00  0.00    +0.000 A 
ATOM     10  C   UNL     1      46.490   6.971  12.758  0.00  0.00    +0.000 A 
ENDROOT
BRANCH   7  11
ATOM     11  C   UNL     1      43.706   4.598  10.689  0.00  0.00    +0.000 C 
ATOM     12  N   UNL     1      43.860   4.561   9.328  0.00  0.00    +0.000 N 
ATOM     13  O   UNL     1      42.760   4.025  11.203  0.00  0.00    +0.000 OA
ATOM     14  H   UNL     1      44.644   5.032   8.891  0.00  0.00    +0.000 HD
ATOM     15  H   UNL     1      43.185   4.061   8.768  0.00  0.00    +0.000 HD
ENDBRANCH   7  11
BRANCH   1  16
ATOM     16  C   UNL     1      47.680   8.902  13.884  0.00  0.00    +0.000 C 
BRANCH  16  20
ATOM     17  C   UNL     1      50.814  10.710  11.502  0.00  0.00    +0.000 A 
ATOM     18  C   UNL     1      49.523  10.558  10.978  0.00  0.00    +0.000 A 
ATOM     19  C   UNL     1      48.508   9.967  11.738  0.00  0.00    +0.000 A 
ATOM     20  C   UNL     1      48.768   9.511  13.038  0.00  0.00    +0.000 A 
ATOM     21  C   UNL     1      50.067   9.642  13.550  0.00  0.00    +0.000 A 
ATOM     22  C   UNL     1      51.078  10.231  12.788  0.00  0.00    +0.000 A 
BRANCH  17  23
ATOM     23  C   UNL     1      51.898  11.384  10.687  0.00  0.00    +0.000 C 
BRANCH  23  25
ATOM     24  C   UNL     1      52.339  10.824   8.274  0.00  0.00    +0.000 C 
ATOM     25  C   UNL     1      52.714  10.467   9.724  0.00  0.00    +0.000 C 
ATOM     26  C   UNL     1      52.423   8.975   9.954  0.00  0.00    +0.000 C 
BRANCH  25  27
ATOM     27  N   UNL     1      54.161  10.699   9.869  0.00  0.00    +0.000 NA
ATOM     28  H   UNL     1      54.351  11.701   9.883  0.00  0.00    +0.000 HD
ATOM     29  H   UNL     1      54.640  10.341   9.040  0.00  0.00    +0.000 HD
ENDBRANCH  25  27
ENDBRANCH  23  25
ENDBRANCH  17  23
ENDBRANCH  16  20
ENDBRANCH   1  16
TORSDOF 6
ENDMDL
MODEL 9
REMARK VINA RESULT:    -4.979      4.865      6.757
REMARK INTER + INTRA:          -7.210
REMARK INTER:                  -6.790
REMARK INTRA:                  -0.420
REMARK UNBOUND:                -0.629
REMARK  Name = 
REMARK  8 active torsions:
REMARK  status: ('A' for Active; 'I' for Inactive)
REMARK    1  A    between atoms: C_1  and  C_2
REMARK    2  A    between atoms: C_2  and  C_3
REMARK    3  A    between atoms: C_2  and  N_4
REMARK    4  A    between atoms: C_2  and  C_5
REMARK    5  A    between atoms: C_5  and  C_6
REMARK    6  A    between atoms: C_9  and  C_10
REMARK    7  A    between atoms: C_10  and  N_11
REMARK    8  A    between atoms: C_17  and  C_18
REMARK                            x       y       z     vdW  Elec       q    Type
REMARK                         _______ _______ _______ _____ _____    ______ ____
ROOT
ATOM      1  N   UNL     1      47.998   6.073  14.852  0.00  0.00    +0.000 N 
ATOM      2  C   UNL     1      47.769   4.880  15.475  0.00  0.00    +0.000 A 
ATOM      3  N   UNL     1      47.002   4.097  14.755  0.00  0.00    +0.000 NA
ATOM      4  C   UNL     1      46.708   4.807  13.610  0.00  0.00    +0.000 A 
ATOM      5  C   UNL     1      45.902   4.480  12.507  0.00  0.00    +0.000 A 
ATOM      6 CL   UNL     1      45.148   2.952  12.587  0.00  0.00    +0.000 Cl
ATOM      7  C   UNL     1      45.799   5.441  11.509  0.00  0.00    +0.000 A 
ATOM      8  N   UNL     1      46.440   6.658  11.549  0.00  0.00    +0.000 NA
ATOM      9  C   UNL     1      47.215   6.970  12.612  0.00  0.00    +0.000 A 
ATOM     10  C   UNL     1      47.339   6.051  13.642  0.00  0.00    +0.000 A 
ENDROOT
BRANCH   7  11
ATOM     11  C   UNL     1      44.940   5.241  10.288  0.00  0.00    +0.000 C 
ATOM     12  N   UNL     1      43.634   5.636  10.407  0.00  0.00    +0.000 N 
ATOM     13  O   UNL     1      45.330   4.759   9.238  0.00  0.00    +0.000 OA
ATOM     14  H   UNL     1      43.301   6.039  11.275  0.00  0.00    +0.000 HD
ATOM     15  H   UNL     1      43.010   5.522   9.622  0.00  0.00    +0.000 HD
ENDBRANCH   7  11
BRANCH   1  16
ATOM     16  C   UNL     1      48.676   7.208  15.457  0.00  0.00    +0.000 C 
BRANCH  16  20
ATOM     17  C   UNL     1      51.779   5.939  18.199  0.00  0.00    +0.000 A 
ATOM     18  C   UNL     1      50.475   6.160  18.658  0.00  0.00    +0.000 A 
ATOM     19  C   UNL     1      49.469   6.580  17.781  0.00  0.00    +0.000 A 
ATOM     20  C   UNL     1      49.752   6.789  16.424  0.00  0.00    +0.000 A 
ATOM     21  C   UNL     1      51.065   6.591  15.972  0.00  0.00    +0.000 A 
ATOM     22  C   UNL     1      52.066   6.174  16.851  0.00  0.00    +0.000 A 
BRANCH  17  23
ATOM     23  C   UNL     1      52.855   5.450  19.147  0.00  0.00    +0.000 C 
BRANCH  23  25
ATOM     24  C   UNL     1      53.708   3.469  20.441  0.00  0.00    +0.000 C 
ATOM     25  C   UNL     1      53.223   3.937  19.057  0.00  0.00    +0.000 C 
ATOM     26  C   UNL     1      54.335   3.667  18.030  0.00  0.00    +0.000 C 
BRANCH  25  27
ATOM     27  N   UNL     1      52.046   3.122  18.711  0.00  0.00    +0.000 NA
ATOM     28  H   UNL     1      51.207   3.702  18.733  0.00  0.00    +0.000 HD
ATOM     29  H   UNL     1      51.908   2.414  19.433  0.00  0.00    +0.000 HD
ENDBRANCH  25  27
ENDBRANCH  23  25
ENDBRANCH  17  23
ENDBRANCH  16  20
ENDBRANCH   1  16
TORSDOF 6
ENDMDL
