MODEL 1
REMARK VINA RESULT:    -7.243      0.000      0.000
REMARK INTER + INTRA:          -9.387
REMARK INTER:                  -8.937
REMARK INTRA:                  -0.450
REMARK UNBOUND:                -0.450
REMARK  Name = 
REMARK  4 active torsions:
REMARK  status: ('A' for Active; 'I' for Inactive)
REMARK    1  A    between atoms: C_2  and  C_3
REMARK    2  A    between atoms: C_6  and  N_7
REMARK    3  A    between atoms: N_7  and  C_8
REMARK    4  A    between atoms: C_8  and  C_9
REMARK                            x       y       z     vdW  Elec       q    Type
REMARK                         _______ _______ _______ _____ _____    ______ ____
ROOT
ATOM      1  N   UNL     1      43.733   3.840  10.289  0.00  0.00    +0.000 N 
ATOM      2  H   UNL     1      42.810   3.470  10.097  0.00  0.00    +0.000 HD
ENDROOT
BRANCH   1   6
ATOM      3  C   UNL     1      46.573   2.582   7.584  0.00  0.00    +0.000 A 
ATOM      4  C   UNL     1      46.200   3.911   7.647  0.00  0.00    +0.000 A 
ATOM      5  N   UNL     1      45.275   4.369   8.527  0.00  0.00    +0.000 NA
ATOM      6  C   UNL     1      44.702   3.466   9.347  0.00  0.00    +0.000 A 
ATOM      7  C   UNL     1      45.105   2.125   9.277  0.00  0.00    +0.000 A 
ATOM      8  N   UNL     1      46.036   1.650   8.406  0.00  0.00    +0.000 NA
BRANCH   3  10
ATOM      9  N   UNL     1      48.312   1.738   5.853  0.00  0.00    +0.000 NA
ATOM     10  C   UNL     1      47.546   2.140   6.634  0.00  0.00    +0.000 C 
ENDBRANCH   3  10
ENDBRANCH   1   6
BRANCH   1  11
ATOM     11  C   UNL     1      43.837   4.982  11.204  0.00  0.00    +0.000 C 
ATOM     12  C   UNL     1      42.616   5.378  12.023  0.00  0.00    +0.000 C 
ATOM     13  C   UNL     1      43.160   6.330  11.012  0.00  0.00    +0.000 C 
BRANCH  11  14
ATOM     14  C   UNL     1      45.195   5.056  11.890  0.00  0.00    +0.000 A 
ATOM     15  C   UNL     1      46.045   6.149  11.654  0.00  0.00    +0.000 A 
ATOM     16  C   UNL     1      47.168   6.371  12.449  0.00  0.00    +0.000 A 
ATOM     17  C   UNL     1      47.478   5.480  13.472  0.00  0.00    +0.000 A 
ATOM     18  C   UNL     1      46.707   4.335  13.658  0.00  0.00    +0.000 A 
ATOM     19  C   UNL     1      45.587   4.115  12.858  0.00  0.00    +0.000 A 
ENDBRANCH  11  14
ENDBRANCH   1  11
TORSDOF 4
ENDMDL
MODEL 2
REMARK VINA RESULT:    -6.758      1.153      1.754
REMARK INTER + INTRA:          -8.788
REMARK INTER:                  -8.687
REMARK INTRA:                  -0.101
REMARK UNBOUND:                -0.450
REMARK  Name = 
REMARK  4 active torsions:
REMARK  status: ('A' for Active; 'I' for Inactive)
REMARK    1  A    between atoms: C_2  and  C_3
REMARK    2  A    between atoms: C_6  and  N_7
REMARK    3  A    between atoms: N_7  and  C_8
REMARK    4  A    between atoms: C_8  and  C_9
REMARK                            x       y       z     vdW  Elec       q    Type
REMARK                         _______ _______ _______ _____ _____    ______ ____
ROOT
ATOM      1  N   UNL     1      43.683   4.703  10.112  0.00  0.00    +0.000 N 
ATOM      2  H   UNL     1      43.033   5.261   9.572  0.00  0.00    +0.000 HD
ENDROOT
BRANCH   1   6
ATOM      3  C   UNL     1      46.414   2.729   7.743  0.00  0.00    +0.000 A 
ATOM      4  C   UNL     1      45.583   2.027   8.597  0.00  0.00    +0.000 A 
ATOM      5  N   UNL     1      44.666   2.636   9.388  0.00  0.00    +0.000 NA
ATOM      6  C   UNL     1      44.596   3.981   9.331  0.00  0.00    +0.000 A 
ATOM      7  C   UNL     1      45.438   4.673   8.449  0.00  0.00    +0.000 A 
ATOM      8  N   UNL     1      46.358   4.077   7.644  0.00  0.00    +0.000 NA
BRANCH   3  10
ATOM      9  N   UNL     1      48.179   1.535   6.263  0.00  0.00    +0.000 NA
ATOM     10  C   UNL     1      47.374   2.047   6.934  0.00  0.00    +0.000 C 
ENDBRANCH   3  10
ENDBRANCH   1   6
BRANCH   1  11
ATOM     11  C   UNL     1      43.855   5.033  11.531  0.00  0.00    +0.000 C 
ATOM     12  C   UNL     1      43.605   3.950  12.571  0.00  0.00    +0.000 C 
ATOM     13  C   UNL     1      42.733   5.160  12.550  0.00  0.00    +0.000 C 
BRANCH  11  14
ATOM     14  C   UNL     1      45.027   5.977  11.770  0.00  0.00    +0.000 A 
ATOM     15  C   UNL     1      44.846   7.366  11.667  0.00  0.00    +0.000 A 
ATOM     16  C   UNL     1      45.818   8.254  12.122  0.00  0.00    +0.000 A 
ATOM     17  C   UNL     1      47.007   7.763  12.655  0.00  0.00    +0.000 A 
ATOM     18  C   UNL     1      47.251   6.392  12.673  0.00  0.00    +0.000 A 
ATOM     19  C   UNL     1      46.276   5.508  12.212  0.00  0.00    +0.000 A 
ENDBRANCH  11  14
ENDBRANCH   1  11
TORSDOF 4
ENDMDL
MODEL 3
REMARK VINA RESULT:    -6.285      2.922      5.811
REMARK INTER + INTRA:          -8.205
REMARK INTER:                  -7.922
REMARK INTRA:                  -0.282
REMARK UNBOUND:                -0.450
REMARK  Name = 
REMARK  4 active torsions:
REMARK  status: ('A' for Active; 'I' for Inactive)
REMARK    1  A    between atoms: C_2  and  C_3
REMARK    2  A    between atoms: C_6  and  N_7
REMARK    3  A    between atoms: N_7  and  C_8
REMARK    4  A    between atoms: C_8  and  C_9
REMARK                            x       y       z     vdW  Elec       q    Type
REMARK                         _______ _______ _______ _____ _____    ______ ____
ROOT
ATOM      1  N   UNL     1      45.528   5.267  11.601  0.00  0.00    +0.000 N 
ATOM      2  H   UNL     1      45.589   6.245  11.342  0.00  0.00    +0.000 HD
ENDROOT
BRANCH   1   6
ATOM      3  C   UNL     1      47.414   4.195  15.102  0.00  0.00    +0.000 A 
ATOM      4  C   UNL     1      47.119   5.519  14.837  0.00  0.00    +0.000 A 
ATOM      5  N   UNL     1      46.492   5.914  13.702  0.00  0.00    +0.000 NA
ATOM      6  C   UNL     1      46.174   4.958  12.806  0.00  0.00    +0.000 A 
ATOM      7  C   UNL     1      46.469   3.620  13.101  0.00  0.00    +0.000 A 
ATOM      8  N   UNL     1      47.090   3.205  14.238  0.00  0.00    +0.000 NA
BRANCH   3  10
ATOM      9  N   UNL     1      48.632   3.569  17.307  0.00  0.00    +0.000 NA
ATOM     10  C   UNL     1      48.084   3.824  16.309  0.00  0.00    +0.000 C 
ENDBRANCH   3  10
ENDBRANCH   1   6
BRANCH   1  11
ATOM     11  C   UNL     1      44.487   4.453  10.963  0.00  0.00    +0.000 C 
ATOM     12  C   UNL     1      43.054   4.965  10.963  0.00  0.00    +0.000 C 
ATOM     13  C   UNL     1      43.382   3.705  11.693  0.00  0.00    +0.000 C 
BRANCH  11  14
ATOM     14  C   UNL     1      44.985   3.760   9.701  0.00  0.00    +0.000 A 
ATOM     15  C   UNL     1      45.557   4.513   8.663  0.00  0.00    +0.000 A 
ATOM     16  C   UNL     1      46.244   3.894   7.620  0.00  0.00    +0.000 A 
ATOM     17  C   UNL     1      46.338   2.506   7.582  0.00  0.00    +0.000 A 
ATOM     18  C   UNL     1      45.692   1.736   8.546  0.00  0.00    +0.000 A 
ATOM     19  C   UNL     1      45.002   2.359   9.584  0.00  0.00    +0.000 A 
ENDBRANCH  11  14
ENDBRANCH   1  11
TORSDOF 4
ENDMDL
MODEL 4
REMARK VINA RESULT:    -6.164      2.861      5.973
REMARK INTER + INTRA:          -8.055
REMARK INTER:                  -7.880
REMARK INTRA:                  -0.175
REMARK UNBOUND:                -0.450
REMARK  Name = 
REMARK  4 active torsions:
REMARK  status: ('A' for Active; 'I' for Inactive)
REMARK    1  A    between atoms: C_2  and  C_3
REMARK    2  A    between atoms: C_6  and  N_7
REMARK    3  A    between atoms: N_7  and  C_8
REMARK    4  A    between atoms: C_8  and  C_9
REMARK                            x       y       z     vdW  Elec       q    Type
REMARK                         _______ _______ _______ _____ _____    ______ ____
ROOT
ATOM      1  N   UNL     1      44.638   5.623  10.622  0.00  0.00    +0.000 N 
ATOM      2  H   UNL     1      43.882   6.157  10.211  0.00  0.00    +0.000 HD
ENDROOT
BRANCH   1   6
ATOM      3  C   UNL     1      46.933   7.938  13.139  0.00  0.00    +0.000 A 
ATOM      4  C   UNL     1      47.447   6.782  12.581  0.00  0.00    +0.000 A 
ATOM      5  N   UNL     1      46.728   5.996  11.742  0.00  0.00    +0.000 NA
ATOM      6  C   UNL     1      45.462   6.372  11.475  0.00  0.00    +0.000 A 
ATOM      7  C   UNL     1      44.965   7.554  12.040  0.00  0.00    +0.000 A 
ATOM      8  N   UNL     1      45.674   8.358  12.878  0.00  0.00    +0.000 NA
BRANCH   3  10
ATOM      9  N   UNL     1      48.326   9.410  14.761  0.00  0.00    +0.000 NA
ATOM     10  C   UNL     1      47.723   8.733  14.027  0.00  0.00    +0.000 C 
ENDBRANCH   3  10
ENDBRANCH   1   6
BRANCH   1  11
ATOM     11  C   UNL     1      44.526   4.161  10.619  0.00  0.00    +0.000 C 
ATOM     12  C   UNL     1      43.266   3.522  11.186  0.00  0.00    +0.000 C 
ATOM     13  C   UNL     1      44.577   3.271  11.852  0.00  0.00    +0.000 C 
BRANCH  11  14
ATOM     14  C   UNL     1      45.129   3.534   9.369  0.00  0.00    +0.000 A 
ATOM     15  C   UNL     1      45.692   4.349   8.373  0.00  0.00    +0.000 A 
ATOM     16  C   UNL     1      46.468   3.806   7.352  0.00  0.00    +0.000 A 
ATOM     17  C   UNL     1      46.665   2.429   7.292  0.00  0.00    +0.000 A 
ATOM     18  C   UNL     1      46.034   1.593   8.209  0.00  0.00    +0.000 A 
ATOM     19  C   UNL     1      45.254   2.141   9.226  0.00  0.00    +0.000 A 
ENDBRANCH  11  14
ENDBRANCH   1  11
TORSDOF 4
ENDMDL
MODEL 5
REMARK VINA RESULT:    -5.924      3.175      6.086
REMARK INTER + INTRA:          -7.758
REMARK INTER:                  -7.583
REMARK INTRA:                  -0.175
REMARK UNBOUND:                -0.450
REMARK  Name = 
REMARK  4 active torsions:
REMARK  status: ('A' for Active; 'I' for Inactive)
REMARK    1  A    between atoms: C_2  and  C_3
REMARK    2  A    between atoms: C_6  and  N_7
REMARK    3  A    between atoms: N_7  and  C_8
REMARK    4  A    between atoms: C_8  and  C_9
REMARK                            x       y       z     vdW  Elec       q    Type
REMARK                         _______ _______ _______ _____ _____    ______ ____
ROOT
ATOM      1  N   UNL     1      45.849   5.734  11.863  0.00  0.00    +0.000 N 
ATOM      2  H   UNL     1      46.143   6.631  11.494  0.00  0.00    +0.000 HD
ENDROOT
BRANCH   1   6
ATOM      3  C   UNL     1      47.727   4.878  15.427  0.00  0.00    +0.000 A 
ATOM      4  C   UNL     1      46.751   4.037  14.925  0.00  0.00    +0.000 A 
ATOM      5  N   UNL     1      46.114   4.278  13.752  0.00  0.00    +0.000 NA
ATOM      6  C   UNL     1      46.454   5.397  13.082  0.00  0.00    +0.000 A 
ATOM      7  C   UNL     1      47.455   6.228  13.602  0.00  0.00    +0.000 A 
ATOM      8  N   UNL     1      48.109   5.998  14.772  0.00  0.00    +0.000 NA
BRANCH   3  10
ATOM      9  N   UNL     1      48.880   4.405  17.703  0.00  0.00    +0.000 NA
ATOM     10  C   UNL     1      48.367   4.591  16.673  0.00  0.00    +0.000 C 
ENDBRANCH   3  10
ENDBRANCH   1   6
BRANCH   1  11
ATOM     11  C   UNL     1      44.607   5.153  11.342  0.00  0.00    +0.000 C 
ATOM     12  C   UNL     1      43.341   5.997  11.356  0.00  0.00    +0.000 C 
ATOM     13  C   UNL     1      43.401   4.755  12.180  0.00  0.00    +0.000 C 
BRANCH  11  14
ATOM     14  C   UNL     1      44.846   4.266  10.126  0.00  0.00    +0.000 A 
ATOM     15  C   UNL     1      45.548   4.765   9.017  0.00  0.00    +0.000 A 
ATOM     16  C   UNL     1      45.998   3.915   8.009  0.00  0.00    +0.000 A 
ATOM     17  C   UNL     1      45.722   2.552   8.080  0.00  0.00    +0.000 A 
ATOM     18  C   UNL     1      44.940   2.051   9.118  0.00  0.00    +0.000 A 
ATOM     19  C   UNL     1      44.488   2.907  10.121  0.00  0.00    +0.000 A 
ENDBRANCH  11  14
ENDBRANCH   1  11
TORSDOF 4
ENDMDL
MODEL 6
REMARK VINA RESULT:    -5.620      2.980      5.425
REMARK INTER + INTRA:          -7.384
REMARK INTER:                  -7.289
REMARK INTRA:                  -0.095
REMARK UNBOUND:                -0.450
REMARK  Name = 
REMARK  4 active torsions:
REMARK  status: ('A' for Active; 'I' for Inactive)
REMARK    1  A    between atoms: C_2  and  C_3
REMARK    2  A    between atoms: C_6  and  N_7
REMARK    3  A    between atoms: N_7  and  C_8
REMARK    4  A    between atoms: C_8  and  C_9
REMARK                            x       y       z     vdW  Elec       q    Type
REMARK                         _______ _______ _______ _____ _____    ______ ____
ROOT
ATOM      1  N   UNL     1      45.065   5.291  12.776  0.00  0.00    +0.000 N 
ATOM      2  H   UNL     1      45.015   4.637  13.548  0.00  0.00    +0.000 HD
ENDROOT
BRANCH   1   6
ATOM      3  C   UNL     1      48.701   7.224  12.654  0.00  0.00    +0.000 A 
ATOM      4  C   UNL     1      47.571   7.813  12.118  0.00  0.00    +0.000 A 
ATOM      5  N   UNL     1      46.354   7.215  12.144  0.00  0.00    +0.000 NA
ATOM      6  C   UNL     1      46.278   5.991  12.704  0.00  0.00    +0.000 A 
ATOM      7  C   UNL     1      47.433   5.417  13.254  0.00  0.00    +0.000 A 
ATOM      8  N   UNL     1      48.659   6.006  13.243  0.00  0.00    +0.000 NA
BRANCH   3  10
ATOM      9  N   UNL     1      51.006   8.413  12.598  0.00  0.00    +0.000 NA
ATOM     10  C   UNL     1      49.966   7.885  12.596  0.00  0.00    +0.000 C 
ENDBRANCH   3  10
ENDBRANCH   1   6
BRANCH   1  11
ATOM     11  C   UNL     1      44.119   5.118  11.668  0.00  0.00    +0.000 C 
ATOM     12  C   UNL     1      43.171   6.260  11.330  0.00  0.00    +0.000 C 
ATOM     13  C   UNL     1      42.613   4.963  11.812  0.00  0.00    +0.000 C 
BRANCH  11  14
ATOM     14  C   UNL     1      44.721   4.338  10.506  0.00  0.00    +0.000 A 
ATOM     15  C   UNL     1      44.458   2.965  10.369  0.00  0.00    +0.000 A 
ATOM     16  C   UNL     1      44.779   2.285   9.195  0.00  0.00    +0.000 A 
ATOM     17  C   UNL     1      45.400   2.964   8.152  0.00  0.00    +0.000 A 
ATOM     18  C   UNL     1      45.762   4.301   8.305  0.00  0.00    +0.000 A 
ATOM     19  C   UNL     1      45.443   4.974   9.483  0.00  0.00    +0.000 A 
ENDBRANCH  11  14
ENDBRANCH   1  11
TORSDOF 4
ENDMDL
MODEL 7
REMARK VINA RESULT:    -5.247      4.019      6.859
REMARK INTER + INTRA:          -6.924
REMARK INTER:                  -6.512
REMARK INTRA:                  -0.411
REMARK UNBOUND:                -0.450
REMARK  Name = 
REMARK  4 active torsions:
REMARK  status: ('A' for Active; 'I' for Inactive)
REMARK    1  A    between atoms: C_2  and  C_3
REMARK    2  A    between atoms: C_6  and  N_7
REMARK    3  A    between atoms: N_7  and  C_8
REMARK    4  A    between atoms: C_8  and  C_9
REMARK                            x       y       z     vdW  Elec       q    Type
REMARK                         _______ _______ _______ _____ _____    ______ ____
ROOT
ATOM      1  N   UNL     1      47.436   5.867  12.980  0.00  0.00    +0.000 N 
ATOM      2  H   UNL     1      48.225   5.731  12.359  0.00  0.00    +0.000 HD
ENDROOT
BRANCH   1   6
ATOM      3  C   UNL     1      48.064   4.668  16.870  0.00  0.00    +0.000 A 
ATOM      4  C   UNL     1      48.754   5.744  16.344  0.00  0.00    +0.000 A 
ATOM      5  N   UNL     1      48.572   6.176  15.072  0.00  0.00    +0.000 NA
ATOM      6  C   UNL     1      47.691   5.499  14.308  0.00  0.00    +0.000 A 
ATOM      7  C   UNL     1      46.991   4.420  14.865  0.00  0.00    +0.000 A 
ATOM      8  N   UNL     1      47.156   3.978  16.141  0.00  0.00    +0.000 NA
BRANCH   3  10
ATOM      9  N   UNL     1      48.466   3.844  19.298  0.00  0.00    +0.000 NA
ATOM     10  C   UNL     1      48.294   4.240  18.214  0.00  0.00    +0.000 C 
ENDBRANCH   3  10
ENDBRANCH   1   6
BRANCH   1  11
ATOM     11  C   UNL     1      46.364   6.765  12.539  0.00  0.00    +0.000 C 
ATOM     12  C   UNL     1      46.736   8.046  11.805  0.00  0.00    +0.000 C 
ATOM     13  C   UNL     1      46.059   8.133  13.132  0.00  0.00    +0.000 C 
BRANCH  11  14
ATOM     14  C   UNL     1      45.136   6.008  12.049  0.00  0.00    +0.000 A 
ATOM     15  C   UNL     1      45.169   5.335  10.817  0.00  0.00    +0.000 A 
ATOM     16  C   UNL     1      44.166   4.434  10.462  0.00  0.00    +0.000 A 
ATOM     17  C   UNL     1      43.095   4.219  11.324  0.00  0.00    +0.000 A 
ATOM     18  C   UNL     1      42.990   4.950  12.504  0.00  0.00    +0.000 A 
ATOM     19  C   UNL     1      43.993   5.854  12.852  0.00  0.00    +0.000 A 
ENDBRANCH  11  14
ENDBRANCH   1  11
TORSDOF 4
ENDMDL
