MODEL 1
REMARK VINA RESULT:    -8.428      0.000      0.000
REMARK INTER + INTRA:         -11.652
REMARK INTER:                 -10.891
REMARK INTRA:                  -0.761
REMARK UNBOUND:                -0.761
REMARK  Name = 
REMARK  5 active torsions:
REMARK  status: ('A' for Active; 'I' for Inactive)
REMARK    1  A    between atoms: C_2  and  C_4
REMARK    2  A    between atoms: C_7  and  O_8
REMARK    3  A    between atoms: O_8  and  C_9
REMARK    4  A    between atoms: C_9  and  C_10
REMARK    5  A    between atoms: C_14  and  C_15
REMARK                            x       y       z     vdW  Elec       q    Type
REMARK                         _______ _______ _______ _____ _____    ______ ____
ROOT
ATOM      1  C   UNL     1      43.759   5.160  10.672  0.00  0.00    +0.000 C 
ENDROOT
BRANCH   1   2
ATOM      2  C   UNL     1      44.813   5.143  11.747  0.00  0.00    +0.000 A 
ATOM      3  C   UNL     1      44.739   4.209  12.772  0.00  0.00    +0.000 A 
ATOM      4  N   UNL     1      45.664   4.081  13.745  0.00  0.00    +0.000 NA
ATOM      5  C   UNL     1      46.724   4.926  13.688  0.00  0.00    +0.000 A 
ATOM      6  C   UNL     1      46.926   5.908  12.714  0.00  0.00    +0.000 A 
ATOM      7  C   UNL     1      45.931   5.989  11.726  0.00  0.00    +0.000 A 
BRANCH   6   8
ATOM      8  C   UNL     1      48.102   6.805  12.726  0.00  0.00    +0.000 A 
ATOM      9  C   UNL     1      48.470   7.552  11.597  0.00  0.00    +0.000 A 
ATOM     10  C   UNL     1      49.566   8.400  11.665  0.00  0.00    +0.000 A 
ATOM     11  N   UNL     1      50.330   8.553  12.764  0.00  0.00    +0.000 NA
ATOM     12  C   UNL     1      49.979   7.827  13.842  0.00  0.00    +0.000 A 
ATOM     13  C   UNL     1      48.895   6.961  13.873  0.00  0.00    +0.000 A 
ENDBRANCH   6   8
ENDBRANCH   1   2
BRANCH   1  14
ATOM     14  O   UNL     1      43.540   3.844  10.157  0.00  0.00    +0.000 OA
BRANCH  14  18
ATOM     15  C   UNL     1      46.443   2.628   7.502  0.00  0.00    +0.000 A 
ATOM     16  C   UNL     1      45.921   1.717   8.423  0.00  0.00    +0.000 A 
ATOM     17  C   UNL     1      44.941   2.143   9.320  0.00  0.00    +0.000 A 
ATOM     18  C   UNL     1      44.518   3.464   9.261  0.00  0.00    +0.000 A 
ATOM     19  N   UNL     1      45.011   4.368   8.388  0.00  0.00    +0.000 NA
ATOM     20  C   UNL     1      45.970   3.934   7.535  0.00  0.00    +0.000 A 
BRANCH  15  22
ATOM     21  N   UNL     1      47.536   3.036   5.372  0.00  0.00    +0.000 N 
ATOM     22  C   UNL     1      47.479   2.280   6.510  0.00  0.00    +0.000 C 
ATOM     23  O   UNL     1      48.281   1.379   6.713  0.00  0.00    +0.000 OA
ATOM     24  H   UNL     1      48.320   2.858   4.757  0.00  0.00    +0.000 HD
ATOM     25  H   UNL     1      47.072   3.929   5.286  0.00  0.00    +0.000 HD
ENDBRANCH  15  22
ENDBRANCH  14  18
ENDBRANCH   1  14
TORSDOF 5
ENDMDL
MODEL 2
REMARK VINA RESULT:    -8.322      1.299      1.717
REMARK INTER + INTRA:         -11.516
REMARK INTER:                 -10.776
REMARK INTRA:                  -0.740
REMARK UNBOUND:                -0.761
REMARK  Name = 
REMARK  5 active torsions:
REMARK  status: ('A' for Active; 'I' for Inactive)
REMARK    1  A    between atoms: C_2  and  C_4
REMARK    2  A    between atoms: C_7  and  O_8
REMARK    3  A    between atoms: O_8  and  C_9
REMARK    4  A    between atoms: C_9  and  C_10
REMARK    5  A    between atoms: C_14  and  C_15
REMARK                            x       y       z     vdW  Elec       q    Type
REMARK                         _______ _______ _______ _____ _____    ______ ____
ROOT
ATOM      1  C   UNL     1      43.427   4.342  11.131  0.00  0.00    +0.000 C 
ENDROOT
BRANCH   1   2
ATOM      2  C   UNL     1      44.645   4.744  11.919  0.00  0.00    +0.000 A 
ATOM      3  C   UNL     1      45.171   3.877  12.868  0.00  0.00    +0.000 A 
ATOM      4  N   UNL     1      46.289   4.126  13.580  0.00  0.00    +0.000 NA
ATOM      5  C   UNL     1      46.921   5.299  13.327  0.00  0.00    +0.000 A 
ATOM      6  C   UNL     1      46.504   6.259  12.400  0.00  0.00    +0.000 A 
ATOM      7  C   UNL     1      45.338   5.941  11.687  0.00  0.00    +0.000 A 
BRANCH   6   8
ATOM      8  C   UNL     1      47.238   7.527  12.190  0.00  0.00    +0.000 A 
ATOM      9  C   UNL     1      48.604   7.543  11.873  0.00  0.00    +0.000 A 
ATOM     10  C   UNL     1      49.243   8.756  11.660  0.00  0.00    +0.000 A 
ATOM     11  N   UNL     1      48.631   9.953  11.749  0.00  0.00    +0.000 NA
ATOM     12  C   UNL     1      47.322   9.933  12.063  0.00  0.00    +0.000 A 
ATOM     13  C   UNL     1      46.597   8.771  12.284  0.00  0.00    +0.000 A 
ENDBRANCH   6   8
ENDBRANCH   1   2
BRANCH   1  14
ATOM     14  O   UNL     1      43.587   4.673   9.748  0.00  0.00    +0.000 OA
BRANCH  14  18
ATOM     15  C   UNL     1      46.355   2.292   7.845  0.00  0.00    +0.000 A 
ATOM     16  C   UNL     1      46.381   3.675   7.651  0.00  0.00    +0.000 A 
ATOM     17  C   UNL     1      45.434   4.470   8.299  0.00  0.00    +0.000 A 
ATOM     18  C   UNL     1      44.498   3.852   9.118  0.00  0.00    +0.000 A 
ATOM     19  N   UNL     1      44.444   2.518   9.316  0.00  0.00    +0.000 NA
ATOM     20  C   UNL     1      45.366   1.766   8.667  0.00  0.00    +0.000 A 
BRANCH  15  22
ATOM     21  N   UNL     1      48.366   1.913   6.537  0.00  0.00    +0.000 N 
ATOM     22  C   UNL     1      47.310   1.363   7.210  0.00  0.00    +0.000 C 
ATOM     23  O   UNL     1      47.187   0.150   7.314  0.00  0.00    +0.000 OA
ATOM     24  H   UNL     1      49.070   1.265   6.205  0.00  0.00    +0.000 HD
ATOM     25  H   UNL     1      48.639   2.879   6.645  0.00  0.00    +0.000 HD
ENDBRANCH  15  22
ENDBRANCH  14  18
ENDBRANCH   1  14
TORSDOF 5
ENDMDL
MODEL 3
REMARK VINA RESULT:    -8.008      1.284      1.723
REMARK INTER + INTRA:         -11.109
REMARK INTER:                 -10.456
REMARK INTRA:                  -0.653
REMARK UNBOUND:                -0.761
REMARK  Name = 
REMARK  5 active torsions:
REMARK  status: ('A' for Active; 'I' for Inactive)
REMARK    1  A    between atoms: C_2  and  C_4
REMARK    2  A    between atoms: C_7  and  O_8
REMARK    3  A    between atoms: O_8  and  C_9
REMARK    4  A    between atoms: C_9  and  C_10
REMARK    5  A    between atoms: C_14  and  C_15
REMARK                            x       y       z     vdW  Elec       q    Type
REMARK                         _______ _______ _______ _____ _____    ______ ____
ROOT
ATOM      1  C   UNL     1      44.277   3.341  11.443  0.00  0.00    +0.000 C 
ENDROOT
BRANCH   1   2
ATOM      2  C   UNL     1      44.689   4.784  11.561  0.00  0.00    +0.000 A 
ATOM      3  C   UNL     1      43.758   5.790  11.338  0.00  0.00    +0.000 A 
ATOM      4  N   UNL     1      44.020   7.105  11.477  0.00  0.00    +0.000 NA
ATOM      5  C   UNL     1      45.277   7.436  11.865  0.00  0.00    +0.000 A 
ATOM      6  C   UNL     1      46.308   6.529  12.126  0.00  0.00    +0.000 A 
ATOM      7  C   UNL     1      45.973   5.174  11.970  0.00  0.00    +0.000 A 
BRANCH   6   8
ATOM      8  C   UNL     1      47.662   6.966  12.531  0.00  0.00    +0.000 A 
ATOM      9  C   UNL     1      48.566   7.515  11.610  0.00  0.00    +0.000 A 
ATOM     10  C   UNL     1      49.816   7.933  12.042  0.00  0.00    +0.000 A 
ATOM     11  N   UNL     1      50.240   7.837  13.317  0.00  0.00    +0.000 NA
ATOM     12  C   UNL     1      49.373   7.301  14.197  0.00  0.00    +0.000 A 
ATOM     13  C   UNL     1      48.100   6.863  13.860  0.00  0.00    +0.000 A 
ENDBRANCH   6   8
ENDBRANCH   1   2
BRANCH   1  14
ATOM     14  O   UNL     1      43.699   3.084  10.160  0.00  0.00    +0.000 OA
BRANCH  14  18
ATOM     15  C   UNL     1      46.557   2.538   7.247  0.00  0.00    +0.000 A 
ATOM     16  C   UNL     1      45.899   3.766   7.350  0.00  0.00    +0.000 A 
ATOM     17  C   UNL     1      44.930   3.936   8.339  0.00  0.00    +0.000 A 
ATOM     18  C   UNL     1      44.655   2.873   9.189  0.00  0.00    +0.000 A 
ATOM     19  N   UNL     1      45.269   1.673   9.106  0.00  0.00    +0.000 NA
ATOM     20  C   UNL     1      46.198   1.528   8.130  0.00  0.00    +0.000 A 
BRANCH  15  22
ATOM     21  N   UNL     1      47.681   3.101   5.169  0.00  0.00    +0.000 N 
ATOM     22  C   UNL     1      47.599   2.255   6.240  0.00  0.00    +0.000 C 
ATOM     23  O   UNL     1      48.383   1.326   6.375  0.00  0.00    +0.000 OA
ATOM     24  H   UNL     1      48.469   2.961   4.549  0.00  0.00    +0.000 HD
ATOM     25  H   UNL     1      47.234   4.007   5.152  0.00  0.00    +0.000 HD
ENDBRANCH  15  22
ENDBRANCH  14  18
ENDBRANCH   1  14
TORSDOF 5
ENDMDL
MODEL 4
REMARK VINA RESULT:    -7.968      2.407      2.957
REMARK INTER + INTRA:         -11.058
REMARK INTER:                 -10.306
REMARK INTRA:                  -0.752
REMARK UNBOUND:                -0.761
REMARK  Name = 
REMARK  5 active torsions:
REMARK  status: ('A' for Active; 'I' for Inactive)
REMARK    1  A    between atoms: C_2  and  C_4
REMARK    2  A    between atoms: C_7  and  O_8
REMARK    3  A    between atoms: O_8  and  C_9
REMARK    4  A    between atoms: C_9  and  C_10
REMARK    5  A    between atoms: C_14  and  C_15
REMARK                            x       y       z     vdW  Elec       q    Type
REMARK                         _______ _______ _______ _____ _____    ______ ____
ROOT
ATOM      1  C   UNL     1      43.967   3.728  11.538  0.00  0.00    +0.000 C 
ENDROOT
BRANCH   1   2
ATOM      2  C   UNL     1      44.772   4.887  12.062  0.00  0.00    +0.000 A 
ATOM      3  C   UNL     1      45.852   4.654  12.904  0.00  0.00    +0.000 A 
ATOM      4  N   UNL     1      46.663   5.623  13.376  0.00  0.00    +0.000 NA
ATOM      5  C   UNL     1      46.387   6.891  12.981  0.00  0.00    +0.000 A 
ATOM      6  C   UNL     1      45.338   7.266  12.138  0.00  0.00    +0.000 A 
ATOM      7  C   UNL     1      44.531   6.213  11.675  0.00  0.00    +0.000 A 
BRANCH   6   8
ATOM      8  C   UNL     1      45.089   8.675  11.763  0.00  0.00    +0.000 A 
ATOM      9  C   UNL     1      45.961   9.704  12.146  0.00  0.00    +0.000 A 
ATOM     10  C   UNL     1      45.699  11.008  11.749  0.00  0.00    +0.000 A 
ATOM     11  N   UNL     1      44.631  11.367  11.011  0.00  0.00    +0.000 NA
ATOM     12  C   UNL     1      43.790  10.378  10.654  0.00  0.00    +0.000 A 
ATOM     13  C   UNL     1      43.975   9.045  10.995  0.00  0.00    +0.000 A 
ENDBRANCH   6   8
ENDBRANCH   1   2
BRANCH   1  14
ATOM     14  O   UNL     1      43.584   3.951  10.178  0.00  0.00    +0.000 OA
BRANCH  14  18
ATOM     15  C   UNL     1      46.460   2.648   7.536  0.00  0.00    +0.000 A 
ATOM     16  C   UNL     1      45.846   1.736   8.396  0.00  0.00    +0.000 A 
ATOM     17  C   UNL     1      44.875   2.191   9.289  0.00  0.00    +0.000 A 
ATOM     18  C   UNL     1      44.555   3.542   9.288  0.00  0.00    +0.000 A 
ATOM     19  N   UNL     1      45.139   4.448   8.475  0.00  0.00    +0.000 NA
ATOM     20  C   UNL     1      46.087   3.984   7.625  0.00  0.00    +0.000 A 
BRANCH  15  22
ATOM     21  N   UNL     1      47.507   2.948   5.365  0.00  0.00    +0.000 N 
ATOM     22  C   UNL     1      47.495   2.271   6.553  0.00  0.00    +0.000 C 
ATOM     23  O   UNL     1      48.334   1.417   6.804  0.00  0.00    +0.000 OA
ATOM     24  H   UNL     1      48.289   2.758   4.750  0.00  0.00    +0.000 HD
ATOM     25  H   UNL     1      47.008   3.816   5.225  0.00  0.00    +0.000 HD
ENDBRANCH  15  22
ENDBRANCH  14  18
ENDBRANCH   1  14
TORSDOF 5
ENDMDL
MODEL 5
REMARK VINA RESULT:    -7.902      1.990      2.941
REMARK INTER + INTRA:         -10.973
REMARK INTER:                 -10.368
REMARK INTRA:                  -0.605
REMARK UNBOUND:                -0.761
REMARK  Name = 
REMARK  5 active torsions:
REMARK  status: ('A' for Active; 'I' for Inactive)
REMARK    1  A    between atoms: C_2  and  C_4
REMARK    2  A    between atoms: C_7  and  O_8
REMARK    3  A    between atoms: O_8  and  C_9
REMARK    4  A    between atoms: C_9  and  C_10
REMARK    5  A    between atoms: C_14  and  C_15
REMARK                            x       y       z     vdW  Elec       q    Type
REMARK                         _______ _______ _______ _____ _____    ______ ____
ROOT
ATOM      1  C   UNL     1      44.222   4.299  11.554  0.00  0.00    +0.000 C 
ENDROOT
BRANCH   1   2
ATOM      2  C   UNL     1      45.315   5.100  12.210  0.00  0.00    +0.000 A 
ATOM      3  C   UNL     1      45.683   6.331  11.681  0.00  0.00    +0.000 A 
ATOM      4  N   UNL     1      46.609   7.142  12.231  0.00  0.00    +0.000 NA
ATOM      5  C   UNL     1      47.195   6.706  13.374  0.00  0.00    +0.000 A 
ATOM      6  C   UNL     1      46.918   5.495  14.015  0.00  0.00    +0.000 A 
ATOM      7  C   UNL     1      45.942   4.696  13.397  0.00  0.00    +0.000 A 
BRANCH   6   8
ATOM      8  C   UNL     1      47.611   5.079  15.254  0.00  0.00    +0.000 A 
ATOM      9  C   UNL     1      48.554   5.905  15.883  0.00  0.00    +0.000 A 
ATOM     10  C   UNL     1      49.159   5.482  17.058  0.00  0.00    +0.000 A 
ATOM     11  N   UNL     1      48.908   4.297  17.647  0.00  0.00    +0.000 NA
ATOM     12  C   UNL     1      48.009   3.502  17.035  0.00  0.00    +0.000 A 
ATOM     13  C   UNL     1      47.347   3.844  15.864  0.00  0.00    +0.000 A 
ENDBRANCH   6   8
ENDBRANCH   1   2
BRANCH   1  14
ATOM     14  O   UNL     1      44.061   4.687  10.186  0.00  0.00    +0.000 OA
BRANCH  14  18
ATOM     15  C   UNL     1      46.441   2.450   7.680  0.00  0.00    +0.000 A 
ATOM     16  C   UNL     1      45.655   1.811   8.641  0.00  0.00    +0.000 A 
ATOM     17  C   UNL     1      44.856   2.582   9.487  0.00  0.00    +0.000 A 
ATOM     18  C   UNL     1      44.872   3.962   9.339  0.00  0.00    +0.000 A 
ATOM     19  N   UNL     1      45.628   4.606   8.425  0.00  0.00    +0.000 NA
ATOM     20  C   UNL     1      46.405   3.838   7.623  0.00  0.00    +0.000 A 
BRANCH  15  22
ATOM     21  N   UNL     1      48.359   2.429   6.191  0.00  0.00    +0.000 N 
ATOM     22  C   UNL     1      47.318   1.730   6.736  0.00  0.00    +0.000 C 
ATOM     23  O   UNL     1      47.147   0.546   6.481  0.00  0.00    +0.000 OA
ATOM     24  H   UNL     1      49.015   1.893   5.636  0.00  0.00    +0.000 HD
ATOM     25  H   UNL     1      48.680   3.311   6.564  0.00  0.00    +0.000 HD
ENDBRANCH  15  22
ENDBRANCH  14  18
ENDBRANCH   1  14
TORSDOF 5
ENDMDL
MODEL 6
REMARK VINA RESULT:    -7.446      2.573      6.548
REMARK INTER + INTRA:         -10.383
REMARK INTER:                  -9.584
REMARK INTRA:                  -0.799
REMARK UNBOUND:                -0.761
REMARK  Name = 
REMARK  5 active torsions:
REMARK  status: ('A' for Active; 'I' for Inactive)
REMARK    1  A    between atoms: C_2  and  C_4
REMARK    2  A    between atoms: C_7  and  O_8
REMARK    3  A    between atoms: O_8  and  C_9
REMARK    4  A    between atoms: C_9  and  C_10
REMARK    5  A    between atoms: C_14  and  C_15
REMARK                            x       y       z     vdW  Elec       q    Type
REMARK                         _______ _______ _______ _____ _____    ______ ____
ROOT
ATOM      1  C   UNL     1      44.248   6.325  11.428  0.00  0.00    +0.000 C 
ENDROOT
BRANCH   1   2
ATOM      2  C   UNL     1      44.259   4.894  10.958  0.00  0.00    +0.000 A 
ATOM      3  C   UNL     1      43.412   3.966  11.551  0.00  0.00    +0.000 A 
ATOM      4  N   UNL     1      43.311   2.680  11.159  0.00  0.00    +0.000 NA
ATOM      5  C   UNL     1      44.091   2.300  10.117  0.00  0.00    +0.000 A 
ATOM      6  C   UNL     1      44.983   3.128   9.429  0.00  0.00    +0.000 A 
ATOM      7  C   UNL     1      45.039   4.457   9.879  0.00  0.00    +0.000 A 
BRANCH   6   8
ATOM      8  C   UNL     1      45.815   2.637   8.309  0.00  0.00    +0.000 A 
ATOM      9  C   UNL     1      46.205   3.480   7.257  0.00  0.00    +0.000 A 
ATOM     10  C   UNL     1      47.007   2.981   6.241  0.00  0.00    +0.000 A 
ATOM     11  N   UNL     1      47.441   1.707   6.185  0.00  0.00    +0.000 NA
ATOM     12  C   UNL     1      47.058   0.899   7.191  0.00  0.00    +0.000 A 
ATOM     13  C   UNL     1      46.265   1.310   8.254  0.00  0.00    +0.000 A 
ENDBRANCH   6   8
ENDBRANCH   1   2
BRANCH   1  14
ATOM     14  O   UNL     1      44.882   6.443  12.705  0.00  0.00    +0.000 OA
BRANCH  14  18
ATOM     15  C   UNL     1      48.831   7.571  12.407  0.00  0.00    +0.000 A 
ATOM     16  C   UNL     1      48.504   6.338  12.975  0.00  0.00    +0.000 A 
ATOM     17  C   UNL     1      47.161   5.969  13.073  0.00  0.00    +0.000 A 
ATOM     18  C   UNL     1      46.196   6.848  12.599  0.00  0.00    +0.000 A 
ATOM     19  N   UNL     1      46.483   8.049  12.055  0.00  0.00    +0.000 NA
ATOM     20  C   UNL     1      47.793   8.390  11.981  0.00  0.00    +0.000 A 
BRANCH  15  22
ATOM     21  N   UNL     1      51.043   7.338  11.432  0.00  0.00    +0.000 N 
ATOM     22  C   UNL     1      50.217   8.054  12.253  0.00  0.00    +0.000 C 
ATOM     23  O   UNL     1      50.602   9.076  12.805  0.00  0.00    +0.000 OA
ATOM     24  H   UNL     1      51.952   7.744  11.249  0.00  0.00    +0.000 HD
ATOM     25  H   UNL     1      50.699   6.655  10.771  0.00  0.00    +0.000 HD
ENDBRANCH  15  22
ENDBRANCH  14  18
ENDBRANCH   1  14
TORSDOF 5
ENDMDL
MODEL 7
REMARK VINA RESULT:    -7.212      2.671      7.249
REMARK INTER + INTRA:         -10.081
REMARK INTER:                  -9.684
REMARK INTRA:                  -0.397
REMARK UNBOUND:                -0.761
REMARK  Name = 
REMARK  5 active torsions:
REMARK  status: ('A' for Active; 'I' for Inactive)
REMARK    1  A    between atoms: C_2  and  C_4
REMARK    2  A    between atoms: C_7  and  O_8
REMARK    3  A    between atoms: O_8  and  C_9
REMARK    4  A    between atoms: C_9  and  C_10
REMARK    5  A    between atoms: C_14  and  C_15
REMARK                            x       y       z     vdW  Elec       q    Type
REMARK                         _______ _______ _______ _____ _____    ______ ____
ROOT
ATOM      1  C   UNL     1      44.950   6.424  11.412  0.00  0.00    +0.000 C 
ENDROOT
BRANCH   1   2
ATOM      2  C   UNL     1      44.723   5.040  10.865  0.00  0.00    +0.000 A 
ATOM      3  C   UNL     1      43.710   4.246  11.390  0.00  0.00    +0.000 A 
ATOM      4  N   UNL     1      43.397   3.019  10.927  0.00  0.00    +0.000 NA
ATOM      5  C   UNL     1      44.127   2.561   9.880  0.00  0.00    +0.000 A 
ATOM      6  C   UNL     1      45.168   3.253   9.255  0.00  0.00    +0.000 A 
ATOM      7  C   UNL     1      45.444   4.527   9.778  0.00  0.00    +0.000 A 
BRANCH   6   8
ATOM      8  C   UNL     1      45.932   2.681   8.124  0.00  0.00    +0.000 A 
ATOM      9  C   UNL     1      46.286   3.455   7.009  0.00  0.00    +0.000 A 
ATOM     10  C   UNL     1      47.025   2.881   5.984  0.00  0.00    +0.000 A 
ATOM     11  N   UNL     1      47.429   1.595   5.979  0.00  0.00    +0.000 NA
ATOM     12  C   UNL     1      47.080   0.854   7.047  0.00  0.00    +0.000 A 
ATOM     13  C   UNL     1      46.351   1.342   8.123  0.00  0.00    +0.000 A 
ENDBRANCH   6   8
ENDBRANCH   1   2
BRANCH   1  14
ATOM     14  O   UNL     1      46.343   6.747  11.409  0.00  0.00    +0.000 OA
BRANCH  14  18
ATOM     15  C   UNL     1      48.146   6.122  15.058  0.00  0.00    +0.000 A 
ATOM     16  C   UNL     1      48.488   7.244  14.300  0.00  0.00    +0.000 A 
ATOM     17  C   UNL     1      47.872   7.442  13.063  0.00  0.00    +0.000 A 
ATOM     18  C   UNL     1      46.937   6.511  12.631  0.00  0.00    +0.000 A 
ATOM     19  N   UNL     1      46.594   5.414  13.339  0.00  0.00    +0.000 NA
ATOM     20  C   UNL     1      47.214   5.237  14.531  0.00  0.00    +0.000 A 
BRANCH  15  22
ATOM     21  N   UNL     1      47.989   6.130  17.481  0.00  0.00    +0.000 N 
ATOM     22  C   UNL     1      48.734   5.821  16.377  0.00  0.00    +0.000 C 
ATOM     23  O   UNL     1      49.827   5.281  16.482  0.00  0.00    +0.000 OA
ATOM     24  H   UNL     1      48.356   5.815  18.371  0.00  0.00    +0.000 HD
ATOM     25  H   UNL     1      47.000   6.332  17.434  0.00  0.00    +0.000 HD
ENDBRANCH  15  22
ENDBRANCH  14  18
ENDBRANCH   1  14
TORSDOF 5
ENDMDL
MODEL 8
REMARK VINA RESULT:    -6.896      3.255      7.584
REMARK INTER + INTRA:          -9.673
REMARK INTER:                  -9.109
REMARK INTRA:                  -0.564
REMARK UNBOUND:                -0.761
REMARK  Name = 
REMARK  5 active torsions:
REMARK  status: ('A' for Active; 'I' for Inactive)
REMARK    1  A    between atoms: C_2  and  C_4
REMARK    2  A    between atoms: C_7  and  O_8
REMARK    3  A    between atoms: O_8  and  C_9
REMARK    4  A    between atoms: C_9  and  C_10
REMARK    5  A    between atoms: C_14  and  C_15
REMARK                            x       y       z     vdW  Elec       q    Type
REMARK                         _______ _______ _______ _____ _____    ______ ____
ROOT
ATOM      1  C   UNL     1      45.196   5.226  13.030  0.00  0.00    +0.000 C 
ENDROOT
BRANCH   1   2
ATOM      2  C   UNL     1      44.762   4.155  12.065  0.00  0.00    +0.000 A 
ATOM      3  C   UNL     1      43.624   3.404  12.332  0.00  0.00    +0.000 A 
ATOM      4  N   UNL     1      43.128   2.466  11.500  0.00  0.00    +0.000 NA
ATOM      5  C   UNL     1      43.798   2.270  10.337  0.00  0.00    +0.000 A 
ATOM      6  C   UNL     1      44.950   2.955   9.942  0.00  0.00    +0.000 A 
ATOM      7  C   UNL     1      45.416   3.923  10.846  0.00  0.00    +0.000 A 
BRANCH   6   8
ATOM      8  C   UNL     1      45.637   2.675   8.662  0.00  0.00    +0.000 A 
ATOM      9  C   UNL     1      45.806   3.667   7.684  0.00  0.00    +0.000 A 
ATOM     10  C   UNL     1      46.479   3.364   6.510  0.00  0.00    +0.000 A 
ATOM     11  N   UNL     1      46.987   2.148   6.229  0.00  0.00    +0.000 NA
ATOM     12  C   UNL     1      46.815   1.196   7.165  0.00  0.00    +0.000 A 
ATOM     13  C   UNL     1      46.164   1.408   8.372  0.00  0.00    +0.000 A 
ENDBRANCH   6   8
ENDBRANCH   1   2
BRANCH   1  14
ATOM     14  O   UNL     1      46.621   5.345  13.046  0.00  0.00    +0.000 OA
BRANCH  14  18
ATOM     15  C   UNL     1      48.255   4.154  16.633  0.00  0.00    +0.000 A 
ATOM     16  C   UNL     1      48.294   5.501  16.268  0.00  0.00    +0.000 A 
ATOM     17  C   UNL     1      47.740   5.891  15.048  0.00  0.00    +0.000 A 
ATOM     18  C   UNL     1      47.167   4.919  14.239  0.00  0.00    +0.000 A 
ATOM     19  N   UNL     1      47.124   3.609  14.562  0.00  0.00    +0.000 NA
ATOM     20  C   UNL     1      47.679   3.253  15.747  0.00  0.00    +0.000 A 
BRANCH  15  22
ATOM     21  N   UNL     1      48.259   4.107  19.061  0.00  0.00    +0.000 N 
ATOM     22  C   UNL     1      48.809   3.638  17.900  0.00  0.00    +0.000 C 
ATOM     23  O   UNL     1      49.695   2.794  17.914  0.00  0.00    +0.000 OA
ATOM     24  H   UNL     1      48.571   3.660  19.915  0.00  0.00    +0.000 HD
ATOM     25  H   UNL     1      47.375   4.594  19.090  0.00  0.00    +0.000 HD
ENDBRANCH  15  22
ENDBRANCH  14  18
ENDBRANCH   1  14
TORSDOF 5
ENDMDL
MODEL 9
REMARK VINA RESULT:    -6.854      2.996      7.382
REMARK INTER + INTRA:          -9.618
REMARK INTER:                  -9.157
REMARK INTRA:                  -0.461
REMARK UNBOUND:                -0.761
REMARK  Name = 
REMARK  5 active torsions:
REMARK  status: ('A' for Active; 'I' for Inactive)
REMARK    1  A    between atoms: C_2  and  C_4
REMARK    2  A    between atoms: C_7  and  O_8
REMARK    3  A    between atoms: O_8  and  C_9
REMARK    4  A    between atoms: C_9  and  C_10
REMARK    5  A    between atoms: C_14  and  C_15
REMARK                            x       y       z     vdW  Elec       q    Type
REMARK                         _______ _______ _______ _____ _____    ______ ____
ROOT
ATOM      1  C   UNL     1      45.970   7.201  12.081  0.00  0.00    +0.000 C 
ENDROOT
BRANCH   1   2
ATOM      2  C   UNL     1      45.204   6.165  11.303  0.00  0.00    +0.000 A 
ATOM      3  C   UNL     1      43.824   6.083  11.434  0.00  0.00    +0.000 A 
ATOM      4  N   UNL     1      43.050   5.227  10.736  0.00  0.00    +0.000 NA
ATOM      5  C   UNL     1      43.685   4.415   9.855  0.00  0.00    +0.000 A 
ATOM      6  C   UNL     1      45.062   4.395   9.620  0.00  0.00    +0.000 A 
ATOM      7  C   UNL     1      45.815   5.311  10.373  0.00  0.00    +0.000 A 
BRANCH   6   8
ATOM      8  C   UNL     1      45.687   3.467   8.652  0.00  0.00    +0.000 A 
ATOM      9  C   UNL     1      45.698   2.080   8.863  0.00  0.00    +0.000 A 
ATOM     10  C   UNL     1      46.274   1.247   7.914  0.00  0.00    +0.000 A 
ATOM     11  N   UNL     1      46.848   1.689   6.778  0.00  0.00    +0.000 NA
ATOM     12  C   UNL     1      46.843   3.021   6.583  0.00  0.00    +0.000 A 
ATOM     13  C   UNL     1      46.284   3.930   7.470  0.00  0.00    +0.000 A 
ENDBRANCH   6   8
ENDBRANCH   1   2
BRANCH   1  14
ATOM     14  O   UNL     1      47.328   6.791  12.269  0.00  0.00    +0.000 OA
BRANCH  14  18
ATOM     15  C   UNL     1      47.947   5.169  16.003  0.00  0.00    +0.000 A 
ATOM     16  C   UNL     1      47.115   4.514  15.093  0.00  0.00    +0.000 A 
ATOM     17  C   UNL     1      46.911   5.077  13.832  0.00  0.00    +0.000 A 
ATOM     18  C   UNL     1      47.547   6.273  13.529  0.00  0.00    +0.000 A 
ATOM     19  N   UNL     1      48.349   6.932  14.392  0.00  0.00    +0.000 NA
ATOM     20  C   UNL     1      48.523   6.372  15.614  0.00  0.00    +0.000 A 
BRANCH  15  22
ATOM     21  N   UNL     1      47.173   4.532  18.215  0.00  0.00    +0.000 N 
ATOM     22  C   UNL     1      48.232   4.659  17.359  0.00  0.00    +0.000 C 
ATOM     23  O   UNL     1      49.361   4.326  17.692  0.00  0.00    +0.000 OA
ATOM     24  H   UNL     1      47.366   4.077  19.099  0.00  0.00    +0.000 HD
ATOM     25  H   UNL     1      46.213   4.550  17.903  0.00  0.00    +0.000 HD
ENDBRANCH  15  22
ENDBRANCH  14  18
ENDBRANCH   1  14
TORSDOF 5
ENDMDL
