MODEL 1
REMARK VINA RESULT:    -8.406      0.000      0.000
REMARK INTER + INTRA:         -12.660
REMARK INTER:                 -11.846
REMARK INTRA:                  -0.815
REMARK UNBOUND:                -0.815
REMARK  Name = 
REMARK  8 active torsions:
REMARK  status: ('A' for Active; 'I' for Inactive)
REMARK    1  A    between atoms: C_2  and  C_20
REMARK    2  A    between atoms: N_3  and  C_4
REMARK    3  A    between atoms: C_4  and  C_5
REMARK    4  A    between atoms: C_8  and  C_9
REMARK    5  A    between atoms: C_9  and  O_10
REMARK    6  A    between atoms: C_9  and  C_11
REMARK    7  A    between atoms: C_11  and  N_12
REMARK    8  A    between atoms: C_15  and  O_16
REMARK                            x       y       z     vdW  Elec       q    Type
REMARK                         _______ _______ _______ _____ _____    ______ ____
ROOT
ATOM      1  C   UNL     1      46.165   5.986  11.900  0.00  0.00    +0.000 A 
ATOM      2  C   UNL     1      45.977   6.121  10.522  0.00  0.00    +0.000 A 
ATOM      3  C   UNL     1      45.424   5.081   9.774  0.00  0.00    +0.000 A 
ATOM      4  C   UNL     1      45.038   3.879  10.387  0.00  0.00    +0.000 A 
ATOM      5  C   UNL     1      45.187   3.761  11.777  0.00  0.00    +0.000 A 
ATOM      6  C   UNL     1      45.738   4.807  12.527  0.00  0.00    +0.000 A 
ENDROOT
BRANCH   1   7
ATOM      7  C   UNL     1      46.774   7.116  12.689  0.00  0.00    +0.000 C 
BRANCH   7  10
ATOM      8  O   UNL     1      49.378   6.726  13.703  0.00  0.00    +0.000 OA
ATOM      9  C   UNL     1      48.415   6.588  14.455  0.00  0.00    +0.000 C 
ATOM     10  N   UNL     1      47.119   6.694  14.020  0.00  0.00    +0.000 N 
ATOM     11  H   UNL     1      46.377   6.762  14.707  0.00  0.00    +0.000 HD
BRANCH   9  12
ATOM     12  C   UNL     1      48.593   6.237  15.869  0.00  0.00    +0.000 A 
ATOM     13  C   UNL     1      49.116   7.168  16.754  0.00  0.00    +0.000 A 
ATOM     14  S   UNL     1      49.291   6.576  18.345  0.00  0.00    +0.000 S 
ATOM     15  C   UNL     1      48.626   5.069  17.916  0.00  0.00    +0.000 A 
ATOM     16  N   UNL     1      48.468   4.086  18.844  0.00  0.00    +0.000 NA
ATOM     17  C   UNL     1      47.905   3.015  18.393  0.00  0.00    +0.000 A 
ATOM     18  N   UNL     1      47.497   2.831  17.099  0.00  0.00    +0.000 N 
ATOM     19  C   UNL     1      47.710   3.765  16.112  0.00  0.00    +0.000 A 
ATOM     20  O   UNL     1      47.456   3.510  14.937  0.00  0.00    +0.000 OA
ATOM     21  C   UNL     1      48.295   5.010  16.574  0.00  0.00    +0.000 A 
ATOM     22  H   UNL     1      47.088   1.958  16.805  0.00  0.00    +0.000 HD
ENDBRANCH   9  12
ENDBRANCH   7  10
ENDBRANCH   1   7
BRANCH   4  23
ATOM     23  C   UNL     1      44.475   2.759   9.531  0.00  0.00    +0.000 C 
BRANCH  23  24
ATOM     24  O   UNL     1      43.460   2.080  10.270  0.00  0.00    +0.000 OA
ATOM     25  H   UNL     1      43.634   1.129  10.198  0.00  0.00    +0.000 HD
ENDBRANCH  23  24
BRANCH  23  26
ATOM     26  C   UNL     1      45.578   1.784   9.021  0.00  0.00    +0.000 C 
BRANCH  26  27
ATOM     27  N   UNL     1      46.503   2.349   8.015  0.00  0.00    +0.000 NA
ATOM     28  C   UNL     1      45.789   3.125   6.988  0.00  0.00    +0.000 C 
ATOM     29  C   UNL     1      46.611   3.001   5.705  0.00  0.00    +0.000 C 
ATOM     30  C   UNL     1      47.773   2.093   6.073  0.00  0.00    +0.000 C 
ATOM     31  C   UNL     1      47.255   1.316   7.279  0.00  0.00    +0.000 C 
BRANCH  30  32
ATOM     32  O   UNL     1      48.899   2.890   6.437  0.00  0.00    +0.000 OA
ATOM     33  H   UNL     1      48.526   3.737   6.752  0.00  0.00    +0.000 HD
ENDBRANCH  30  32
ENDBRANCH  26  27
ENDBRANCH  23  26
ENDBRANCH   4  23
TORSDOF 8
ENDMDL
MODEL 2
REMARK VINA RESULT:    -7.331      1.930      2.604
REMARK INTER + INTRA:         -11.145
REMARK INTER:                 -10.360
REMARK INTRA:                  -0.785
REMARK UNBOUND:                -0.815
REMARK  Name = 
REMARK  8 active torsions:
REMARK  status: ('A' for Active; 'I' for Inactive)
REMARK    1  A    between atoms: C_2  and  C_20
REMARK    2  A    between atoms: N_3  and  C_4
REMARK    3  A    between atoms: C_4  and  C_5
REMARK    4  A    between atoms: C_8  and  C_9
REMARK    5  A    between atoms: C_9  and  O_10
REMARK    6  A    between atoms: C_9  and  C_11
REMARK    7  A    between atoms: C_11  and  N_12
REMARK    8  A    between atoms: C_15  and  O_16
REMARK                            x       y       z     vdW  Elec       q    Type
REMARK                         _______ _______ _______ _____ _____    ______ ____
ROOT
ATOM      1  C   UNL     1      46.665   6.237  12.669  0.00  0.00    +0.000 A 
ATOM      2  C   UNL     1      46.113   5.030  13.104  0.00  0.00    +0.000 A 
ATOM      3  C   UNL     1      45.377   4.228  12.231  0.00  0.00    +0.000 A 
ATOM      4  C   UNL     1      45.179   4.611  10.896  0.00  0.00    +0.000 A 
ATOM      5  C   UNL     1      45.769   5.802  10.448  0.00  0.00    +0.000 A 
ATOM      6  C   UNL     1      46.511   6.604  11.323  0.00  0.00    +0.000 A 
ENDROOT
BRANCH   1   7
ATOM      7  C   UNL     1      47.447   7.095  13.629  0.00  0.00    +0.000 C 
BRANCH   7  10
ATOM      8  O   UNL     1      48.799   8.056  15.912  0.00  0.00    +0.000 OA
ATOM      9  C   UNL     1      48.644   6.844  15.772  0.00  0.00    +0.000 C 
ATOM     10  N   UNL     1      48.059   6.299  14.659  0.00  0.00    +0.000 N 
ATOM     11  H   UNL     1      47.785   5.323  14.678  0.00  0.00    +0.000 HD
BRANCH   9  12
ATOM     12  C   UNL     1      49.138   5.890  16.772  0.00  0.00    +0.000 A 
ATOM     13  C   UNL     1      48.240   5.134  17.511  0.00  0.00    +0.000 A 
ATOM     14  S   UNL     1      48.986   4.109  18.653  0.00  0.00    +0.000 S 
ATOM     15  C   UNL     1      50.540   4.603  18.164  0.00  0.00    +0.000 A 
ATOM     16  N   UNL     1      51.655   4.079  18.742  0.00  0.00    +0.000 NA
ATOM     17  C   UNL     1      52.765   4.505  18.240  0.00  0.00    +0.000 A 
ATOM     18  N   UNL     1      52.865   5.417  17.222  0.00  0.00    +0.000 N 
ATOM     19  C   UNL     1      51.768   6.032  16.666  0.00  0.00    +0.000 A 
ATOM     20  O   UNL     1      51.902   6.945  15.854  0.00  0.00    +0.000 OA
ATOM     21  C   UNL     1      50.490   5.553  17.159  0.00  0.00    +0.000 A 
ATOM     22  H   UNL     1      53.765   5.729  16.894  0.00  0.00    +0.000 HD
ENDBRANCH   9  12
ENDBRANCH   7  10
ENDBRANCH   1   7
BRANCH   4  23
ATOM     23  C   UNL     1      44.341   3.727   9.989  0.00  0.00    +0.000 C 
BRANCH  23  24
ATOM     24  O   UNL     1      43.079   3.492  10.613  0.00  0.00    +0.000 OA
ATOM     25  H   UNL     1      43.117   2.616  11.025  0.00  0.00    +0.000 HD
ENDBRANCH  23  24
BRANCH  23  26
ATOM     26  C   UNL     1      45.065   2.398   9.615  0.00  0.00    +0.000 C 
BRANCH  26  27
ATOM     27  N   UNL     1      46.095   2.517   8.561  0.00  0.00    +0.000 NA
ATOM     28  C   UNL     1      45.680   3.439   7.491  0.00  0.00    +0.000 C 
ATOM     29  C   UNL     1      46.350   2.939   6.210  0.00  0.00    +0.000 C 
ATOM     30  C   UNL     1      47.106   1.689   6.627  0.00  0.00    +0.000 C 
ATOM     31  C   UNL     1      46.383   1.235   7.891  0.00  0.00    +0.000 C 
BRANCH  30  32
ATOM     32  O   UNL     1      48.460   2.032   6.920  0.00  0.00    +0.000 OA
ATOM     33  H   UNL     1      48.498   2.132   7.892  0.00  0.00    +0.000 HD
ENDBRANCH  30  32
ENDBRANCH  26  27
ENDBRANCH  23  26
ENDBRANCH   4  23
TORSDOF 8
ENDMDL
MODEL 3
REMARK VINA RESULT:    -7.250      3.063      3.956
REMARK INTER + INTRA:         -11.031
REMARK INTER:                  -9.703
REMARK INTRA:                  -1.329
REMARK UNBOUND:                -0.815
REMARK  Name = 
REMARK  8 active torsions:
REMARK  status: ('A' for Active; 'I' for Inactive)
REMARK    1  A    between atoms: C_2  and  C_20
REMARK    2  A    between atoms: N_3  and  C_4
REMARK    3  A    between atoms: C_4  and  C_5
REMARK    4  A    between atoms: C_8  and  C_9
REMARK    5  A    between atoms: C_9  and  O_10
REMARK    6  A    between atoms: C_9  and  C_11
REMARK    7  A    between atoms: C_11  and  N_12
REMARK    8  A    between atoms: C_15  and  O_16
REMARK                            x       y       z     vdW  Elec       q    Type
REMARK                         _______ _______ _______ _____ _____    ______ ____
ROOT
ATOM      1  C   UNL     1      47.575   7.742  12.755  0.00  0.00    +0.000 A 
ATOM      2  C   UNL     1      47.361   6.772  11.771  0.00  0.00    +0.000 A 
ATOM      3  C   UNL     1      46.083   6.550  11.257  0.00  0.00    +0.000 A 
ATOM      4  C   UNL     1      44.985   7.295  11.711  0.00  0.00    +0.000 A 
ATOM      5  C   UNL     1      45.207   8.297  12.667  0.00  0.00    +0.000 A 
ATOM      6  C   UNL     1      46.490   8.524  13.178  0.00  0.00    +0.000 A 
ENDROOT
BRANCH   1   7
ATOM      7  C   UNL     1      48.959   7.960  13.305  0.00  0.00    +0.000 C 
BRANCH   7  10
ATOM      8  O   UNL     1      48.609   8.659  16.017  0.00  0.00    +0.000 OA
ATOM      9  C   UNL     1      48.951   7.513  15.732  0.00  0.00    +0.000 C 
ATOM     10  N   UNL     1      49.206   7.118  14.445  0.00  0.00    +0.000 N 
ATOM     11  H   UNL     1      49.296   6.128  14.245  0.00  0.00    +0.000 HD
BRANCH   9  12
ATOM     12  C   UNL     1      49.169   6.499  16.771  0.00  0.00    +0.000 A 
ATOM     13  C   UNL     1      50.069   6.743  17.799  0.00  0.00    +0.000 A 
ATOM     14  S   UNL     1      50.227   5.443  18.892  0.00  0.00    +0.000 S 
ATOM     15  C   UNL     1      49.060   4.527  18.058  0.00  0.00    +0.000 A 
ATOM     16  N   UNL     1      48.700   3.289  18.494  0.00  0.00    +0.000 NA
ATOM     17  C   UNL     1      47.768   2.729  17.797  0.00  0.00    +0.000 A 
ATOM     18  N   UNL     1      47.172   3.287  16.697  0.00  0.00    +0.000 N 
ATOM     19  C   UNL     1      47.561   4.497  16.174  0.00  0.00    +0.000 A 
ATOM     20  O   UNL     1      47.101   4.901  15.109  0.00  0.00    +0.000 OA
ATOM     21  C   UNL     1      48.572   5.194  16.948  0.00  0.00    +0.000 A 
ATOM     22  H   UNL     1      46.469   2.784  16.180  0.00  0.00    +0.000 HD
ENDBRANCH   9  12
ENDBRANCH   7  10
ENDBRANCH   1   7
BRANCH   4  23
ATOM     23  C   UNL     1      43.605   6.995  11.152  0.00  0.00    +0.000 C 
BRANCH  23  24
ATOM     24  O   UNL     1      42.971   8.226  10.804  0.00  0.00    +0.000 OA
ATOM     25  H   UNL     1      42.327   8.427  11.500  0.00  0.00    +0.000 HD
ENDBRANCH  23  24
BRANCH  23  26
ATOM     26  C   UNL     1      42.737   6.145  12.129  0.00  0.00    +0.000 C 
BRANCH  26  27
ATOM     27  N   UNL     1      43.034   4.697  12.139  0.00  0.00    +0.000 NA
ATOM     28  C   UNL     1      44.168   4.376  13.021  0.00  0.00    +0.000 C 
ATOM     29  C   UNL     1      44.845   3.143  12.420  0.00  0.00    +0.000 C 
ATOM     30  C   UNL     1      44.054   2.840  11.159  0.00  0.00    +0.000 C 
ATOM     31  C   UNL     1      43.405   4.176  10.810  0.00  0.00    +0.000 C 
BRANCH  30  32
ATOM     32  O   UNL     1      43.058   1.860  11.449  0.00  0.00    +0.000 OA
ATOM     33  H   UNL     1      43.102   1.725  12.417  0.00  0.00    +0.000 HD
ENDBRANCH  30  32
ENDBRANCH  26  27
ENDBRANCH  23  26
ENDBRANCH   4  23
TORSDOF 8
ENDMDL
MODEL 4
REMARK VINA RESULT:    -6.976      1.885      2.851
REMARK INTER + INTRA:         -10.645
REMARK INTER:                  -9.779
REMARK INTRA:                  -0.866
REMARK UNBOUND:                -0.815
REMARK  Name = 
REMARK  8 active torsions:
REMARK  status: ('A' for Active; 'I' for Inactive)
REMARK    1  A    between atoms: C_2  and  C_20
REMARK    2  A    between atoms: N_3  and  C_4
REMARK    3  A    between atoms: C_4  and  C_5
REMARK    4  A    between atoms: C_8  and  C_9
REMARK    5  A    between atoms: C_9  and  O_10
REMARK    6  A    between atoms: C_9  and  C_11
REMARK    7  A    between atoms: C_11  and  N_12
REMARK    8  A    between atoms: C_15  and  O_16
REMARK                            x       y       z     vdW  Elec       q    Type
REMARK                         _______ _______ _______ _____ _____    ______ ____
ROOT
ATOM      1  C   UNL     1      46.659   8.050  13.177  0.00  0.00    +0.000 A 
ATOM      2  C   UNL     1      46.564   6.656  13.125  0.00  0.00    +0.000 A 
ATOM      3  C   UNL     1      45.516   6.040  12.440  0.00  0.00    +0.000 A 
ATOM      4  C   UNL     1      44.537   6.802  11.785  0.00  0.00    +0.000 A 
ATOM      5  C   UNL     1      44.657   8.200  11.802  0.00  0.00    +0.000 A 
ATOM      6  C   UNL     1      45.711   8.817  12.485  0.00  0.00    +0.000 A 
ENDROOT
BRANCH   1   7
ATOM      7  C   UNL     1      47.791   8.697  13.931  0.00  0.00    +0.000 C 
BRANCH   7  10
ATOM      8  O   UNL     1      50.008   7.033  14.460  0.00  0.00    +0.000 OA
ATOM      9  C   UNL     1      49.200   7.259  15.359  0.00  0.00    +0.000 C 
ATOM     10  N   UNL     1      48.064   8.001  15.160  0.00  0.00    +0.000 N 
ATOM     11  H   UNL     1      47.537   8.315  15.966  0.00  0.00    +0.000 HD
BRANCH   9  12
ATOM     12  C   UNL     1      49.370   6.691  16.702  0.00  0.00    +0.000 A 
ATOM     13  C   UNL     1      50.055   7.405  17.674  0.00  0.00    +0.000 A 
ATOM     14  S   UNL     1      50.192   6.578  19.160  0.00  0.00    +0.000 S 
ATOM     15  C   UNL     1      49.297   5.256  18.570  0.00  0.00    +0.000 A 
ATOM     16  N   UNL     1      49.026   4.185  19.365  0.00  0.00    +0.000 NA
ATOM     17  C   UNL     1      48.296   3.279  18.806  0.00  0.00    +0.000 A 
ATOM     18  N   UNL     1      47.823   3.338  17.522  0.00  0.00    +0.000 N 
ATOM     19  C   UNL     1      48.139   4.361  16.659  0.00  0.00    +0.000 A 
ATOM     20  O   UNL     1      47.811   4.312  15.476  0.00  0.00    +0.000 OA
ATOM     21  C   UNL     1      48.918   5.433  17.251  0.00  0.00    +0.000 A 
ATOM     22  H   UNL     1      47.279   2.582  17.136  0.00  0.00    +0.000 HD
ENDBRANCH   9  12
ENDBRANCH   7  10
ENDBRANCH   1   7
BRANCH   4  23
ATOM     23  C   UNL     1      43.393   6.092  11.083  0.00  0.00    +0.000 C 
BRANCH  23  24
ATOM     24  O   UNL     1      42.158   6.579  11.606  0.00  0.00    +0.000 OA
ATOM     25  H   UNL     1      42.083   6.262  12.519  0.00  0.00    +0.000 HD
ENDBRANCH  23  24
BRANCH  23  26
ATOM     26  C   UNL     1      43.500   4.540  11.187  0.00  0.00    +0.000 C 
BRANCH  26  27
ATOM     27  N   UNL     1      43.861   3.848   9.931  0.00  0.00    +0.000 NA
ATOM     28  C   UNL     1      44.256   2.450  10.169  0.00  0.00    +0.000 C 
ATOM     29  C   UNL     1      45.266   2.097   9.076  0.00  0.00    +0.000 C 
ATOM     30  C   UNL     1      45.429   3.373   8.268  0.00  0.00    +0.000 C 
ATOM     31  C   UNL     1      45.004   4.471   9.238  0.00  0.00    +0.000 C 
BRANCH  30  32
ATOM     32  O   UNL     1      44.553   3.333   7.141  0.00  0.00    +0.000 OA
ATOM     33  H   UNL     1      44.237   4.252   7.026  0.00  0.00    +0.000 HD
ENDBRANCH  30  32
ENDBRANCH  26  27
ENDBRANCH  23  26
ENDBRANCH   4  23
TORSDOF 8
ENDMDL
MODEL 5
REMARK VINA RESULT:    -6.965      2.000      2.786
REMARK INTER + INTRA:         -10.630
REMARK INTER:                  -9.669
REMARK INTRA:                  -0.961
REMARK UNBOUND:                -0.815
REMARK  Name = 
REMARK  8 active torsions:
REMARK  status: ('A' for Active; 'I' for Inactive)
REMARK    1  A    between atoms: C_2  and  C_20
REMARK    2  A    between atoms: N_3  and  C_4
REMARK    3  A    between atoms: C_4  and  C_5
REMARK    4  A    between atoms: C_8  and  C_9
REMARK    5  A    between atoms: C_9  and  O_10
REMARK    6  A    between atoms: C_9  and  C_11
REMARK    7  A    between atoms: C_11  and  N_12
REMARK    8  A    between atoms: C_15  and  O_16
REMARK                            x       y       z     vdW  Elec       q    Type
REMARK                         _______ _______ _______ _____ _____    ______ ____
ROOT
ATOM      1  C   UNL     1      47.254   6.674  13.291  0.00  0.00    +0.000 A 
ATOM      2  C   UNL     1      47.166   5.407  13.874  0.00  0.00    +0.000 A 
ATOM      3  C   UNL     1      46.186   4.502  13.466  0.00  0.00    +0.000 A 
ATOM      4  C   UNL     1      45.269   4.839  12.459  0.00  0.00    +0.000 A 
ATOM      5  C   UNL     1      45.385   6.095  11.844  0.00  0.00    +0.000 A 
ATOM      6  C   UNL     1      46.372   7.000  12.251  0.00  0.00    +0.000 A 
ENDROOT
BRANCH   1   7
ATOM      7  C   UNL     1      48.312   7.641  13.753  0.00  0.00    +0.000 C 
BRANCH   7  10
ATOM      8  O   UNL     1      50.144   6.530  15.590  0.00  0.00    +0.000 OA
ATOM      9  C   UNL     1      49.255   7.272  16.004  0.00  0.00    +0.000 C 
ATOM     10  N   UNL     1      48.289   7.795  15.183  0.00  0.00    +0.000 N 
ATOM     11  H   UNL     1      47.701   8.543  15.533  0.00  0.00    +0.000 HD
BRANCH   9  12
ATOM     12  C   UNL     1      49.134   7.600  17.429  0.00  0.00    +0.000 A 
ATOM     13  C   UNL     1      49.732   8.747  17.930  0.00  0.00    +0.000 A 
ATOM     14  S   UNL     1      49.525   8.948  19.611  0.00  0.00    +0.000 S 
ATOM     15  C   UNL     1      48.585   7.534  19.720  0.00  0.00    +0.000 A 
ATOM     16  N   UNL     1      48.060   7.134  20.911  0.00  0.00    +0.000 NA
ATOM     17  C   UNL     1      47.326   6.074  20.839  0.00  0.00    +0.000 A 
ATOM     18  N   UNL     1      47.078   5.370  19.691  0.00  0.00    +0.000 N 
ATOM     19  C   UNL     1      47.653   5.691  18.484  0.00  0.00    +0.000 A 
ATOM     20  O   UNL     1      47.519   4.958  17.507  0.00  0.00    +0.000 OA
ATOM     21  C   UNL     1      48.449   6.905  18.496  0.00  0.00    +0.000 A 
ATOM     22  H   UNL     1      46.518   4.533  19.708  0.00  0.00    +0.000 HD
ENDBRANCH   9  12
ENDBRANCH   7  10
ENDBRANCH   1   7
BRANCH   4  23
ATOM     23  C   UNL     1      44.195   3.838  12.070  0.00  0.00    +0.000 C 
BRANCH  23  24
ATOM     24  O   UNL     1      44.593   2.541  12.512  0.00  0.00    +0.000 OA
ATOM     25  H   UNL     1      45.562   2.522  12.522  0.00  0.00    +0.000 HD
ENDBRANCH  23  24
BRANCH  23  26
ATOM     26  C   UNL     1      43.878   3.865  10.544  0.00  0.00    +0.000 C 
BRANCH  26  27
ATOM     27  N   UNL     1      44.915   3.268   9.675  0.00  0.00    +0.000 NA
ATOM     28  C   UNL     1      45.412   4.227   8.675  0.00  0.00    +0.000 C 
ATOM     29  C   UNL     1      45.825   3.403   7.456  0.00  0.00    +0.000 C 
ATOM     30  C   UNL     1      45.491   1.967   7.824  0.00  0.00    +0.000 C 
ATOM     31  C   UNL     1      44.423   2.111   8.904  0.00  0.00    +0.000 C 
BRANCH  30  32
ATOM     32  O   UNL     1      46.655   1.332   8.353  0.00  0.00    +0.000 OA
ATOM     33  H   UNL     1      46.519   1.305   9.321  0.00  0.00    +0.000 HD
ENDBRANCH  30  32
ENDBRANCH  26  27
ENDBRANCH  23  26
ENDBRANCH   4  23
TORSDOF 8
ENDMDL
MODEL 6
REMARK VINA RESULT:    -6.938      2.257      3.675
REMARK INTER + INTRA:         -10.592
REMARK INTER:                  -9.663
REMARK INTRA:                  -0.929
REMARK UNBOUND:                -0.815
REMARK  Name = 
REMARK  8 active torsions:
REMARK  status: ('A' for Active; 'I' for Inactive)
REMARK    1  A    between atoms: C_2  and  C_20
REMARK    2  A    between atoms: N_3  and  C_4
REMARK    3  A    between atoms: C_4  and  C_5
REMARK    4  A    between atoms: C_8  and  C_9
REMARK    5  A    between atoms: C_9  and  O_10
REMARK    6  A    between atoms: C_9  and  C_11
REMARK    7  A    between atoms: C_11  and  N_12
REMARK    8  A    between atoms: C_15  and  O_16
REMARK                            x       y       z     vdW  Elec       q    Type
REMARK                         _______ _______ _______ _____ _____    ______ ____
ROOT
ATOM      1  C   UNL     1      46.336   4.650  13.510  0.00  0.00    +0.000 A 
ATOM      2  C   UNL     1      46.269   5.769  12.676  0.00  0.00    +0.000 A 
ATOM      3  C   UNL     1      45.761   5.662  11.380  0.00  0.00    +0.000 A 
ATOM      4  C   UNL     1      45.303   4.432  10.886  0.00  0.00    +0.000 A 
ATOM      5  C   UNL     1      45.330   3.318  11.739  0.00  0.00    +0.000 A 
ATOM      6  C   UNL     1      45.834   3.427  13.040  0.00  0.00    +0.000 A 
ENDROOT
BRANCH   1   7
ATOM      7  C   UNL     1      46.897   4.783  14.901  0.00  0.00    +0.000 C 
BRANCH   7  10
ATOM      8  O   UNL     1      48.322   5.609  17.192  0.00  0.00    +0.000 OA
ATOM      9  C   UNL     1      48.639   6.061  16.094  0.00  0.00    +0.000 C 
ATOM     10  N   UNL     1      47.952   5.760  14.946  0.00  0.00    +0.000 N 
ATOM     11  H   UNL     1      48.363   6.001  14.052  0.00  0.00    +0.000 HD
BRANCH   9  12
ATOM     12  C   UNL     1      49.748   7.011  15.948  0.00  0.00    +0.000 A 
ATOM     13  C   UNL     1      50.992   6.711  16.483  0.00  0.00    +0.000 A 
ATOM     14  S   UNL     1      52.150   7.944  16.257  0.00  0.00    +0.000 S 
ATOM     15  C   UNL     1      51.041   8.902  15.391  0.00  0.00    +0.000 A 
ATOM     16  N   UNL     1      51.409  10.109  14.881  0.00  0.00    +0.000 NA
ATOM     17  C   UNL     1      50.485  10.705  14.204  0.00  0.00    +0.000 A 
ATOM     18  N   UNL     1      49.224  10.211  13.999  0.00  0.00    +0.000 N 
ATOM     19  C   UNL     1      48.785   9.036  14.563  0.00  0.00    +0.000 A 
ATOM     20  O   UNL     1      47.608   8.695  14.472  0.00  0.00    +0.000 OA
ATOM     21  C   UNL     1      49.799   8.300  15.294  0.00  0.00    +0.000 A 
ATOM     22  H   UNL     1      48.539  10.740  13.483  0.00  0.00    +0.000 HD
ENDBRANCH   9  12
ENDBRANCH   7  10
ENDBRANCH   1   7
BRANCH   4  23
ATOM     23  C   UNL     1      44.792   4.351   9.458  0.00  0.00    +0.000 C 
BRANCH  23  24
ATOM     24  O   UNL     1      43.418   4.737   9.438  0.00  0.00    +0.000 OA
ATOM     25  H   UNL     1      43.382   5.668   9.170  0.00  0.00    +0.000 HD
ENDBRANCH  23  24
BRANCH  23  26
ATOM     26  C   UNL     1      45.015   2.945   8.823  0.00  0.00    +0.000 C 
BRANCH  26  27
ATOM     27  N   UNL     1      46.193   2.834   7.936  0.00  0.00    +0.000 NA
ATOM     28  C   UNL     1      45.948   3.447   6.620  0.00  0.00    +0.000 C 
ATOM     29  C   UNL     1      46.802   2.668   5.618  0.00  0.00    +0.000 C 
ATOM     30  C   UNL     1      47.482   1.587   6.442  0.00  0.00    +0.000 C 
ATOM     31  C   UNL     1      46.574   1.437   7.659  0.00  0.00    +0.000 C 
BRANCH  30  32
ATOM     32  O   UNL     1      48.777   2.038   6.836  0.00  0.00    +0.000 OA
ATOM     33  H   UNL     1      49.385   1.304   6.615  0.00  0.00    +0.000 HD
ENDBRANCH  30  32
ENDBRANCH  26  27
ENDBRANCH  23  26
ENDBRANCH   4  23
TORSDOF 8
ENDMDL
MODEL 7
REMARK VINA RESULT:    -6.845      3.270      5.495
REMARK INTER + INTRA:         -10.460
REMARK INTER:                  -9.498
REMARK INTRA:                  -0.963
REMARK UNBOUND:                -0.815
REMARK  Name = 
REMARK  8 active torsions:
REMARK  status: ('A' for Active; 'I' for Inactive)
REMARK    1  A    between atoms: C_2  and  C_20
REMARK    2  A    between atoms: N_3  and  C_4
REMARK    3  A    between atoms: C_4  and  C_5
REMARK    4  A    between atoms: C_8  and  C_9
REMARK    5  A    between atoms: C_9  and  O_10
REMARK    6  A    between atoms: C_9  and  C_11
REMARK    7  A    between atoms: C_11  and  N_12
REMARK    8  A    between atoms: C_15  and  O_16
REMARK                            x       y       z     vdW  Elec       q    Type
REMARK                         _______ _______ _______ _____ _____    ______ ____
ROOT
ATOM      1  C   UNL     1      47.539   4.454  15.967  0.00  0.00    +0.000 A 
ATOM      2  C   UNL     1      46.836   3.847  14.923  0.00  0.00    +0.000 A 
ATOM      3  C   UNL     1      46.719   4.477  13.683  0.00  0.00    +0.000 A 
ATOM      4  C   UNL     1      47.307   5.730  13.454  0.00  0.00    +0.000 A 
ATOM      5  C   UNL     1      48.049   6.319  14.488  0.00  0.00    +0.000 A 
ATOM      6  C   UNL     1      48.171   5.684  15.730  0.00  0.00    +0.000 A 
ENDROOT
BRANCH   1   7
ATOM      7  C   UNL     1      47.646   3.764  17.301  0.00  0.00    +0.000 C 
BRANCH   7  10
ATOM      8  O   UNL     1      49.228   1.715  16.176  0.00  0.00    +0.000 OA
ATOM      9  C   UNL     1      49.735   2.488  16.986  0.00  0.00    +0.000 C 
ATOM     10  N   UNL     1      49.015   3.464  17.625  0.00  0.00    +0.000 N 
ATOM     11  H   UNL     1      49.513   4.188  18.131  0.00  0.00    +0.000 HD
BRANCH   9  12
ATOM     12  C   UNL     1      51.147   2.375  17.371  0.00  0.00    +0.000 A 
ATOM     13  C   UNL     1      51.723   1.123  17.530  0.00  0.00    +0.000 A 
ATOM     14  S   UNL     1      53.357   1.179  18.019  0.00  0.00    +0.000 S 
ATOM     15  C   UNL     1      53.366   2.880  17.986  0.00  0.00    +0.000 A 
ATOM     16  N   UNL     1      54.494   3.579  18.288  0.00  0.00    +0.000 NA
ATOM     17  C   UNL     1      54.373   4.860  18.173  0.00  0.00    +0.000 A 
ATOM     18  N   UNL     1      53.226   5.507  17.797  0.00  0.00    +0.000 N 
ATOM     19  C   UNL     1      52.043   4.846  17.563  0.00  0.00    +0.000 A 
ATOM     20  O   UNL     1      51.002   5.469  17.363  0.00  0.00    +0.000 OA
ATOM     21  C   UNL     1      52.134   3.400  17.629  0.00  0.00    +0.000 A 
ATOM     22  H   UNL     1      53.191   6.512  17.754  0.00  0.00    +0.000 HD
ENDBRANCH   9  12
ENDBRANCH   7  10
ENDBRANCH   1   7
BRANCH   4  23
ATOM     23  C   UNL     1      47.124   6.397  12.102  0.00  0.00    +0.000 C 
BRANCH  23  24
ATOM     24  O   UNL     1      48.129   7.398  11.943  0.00  0.00    +0.000 OA
ATOM     25  H   UNL     1      47.722   8.148  11.481  0.00  0.00    +0.000 HD
ENDBRANCH  23  24
BRANCH  23  26
ATOM     26  C   UNL     1      45.688   6.973  11.910  0.00  0.00    +0.000 C 
BRANCH  26  27
ATOM     27  N   UNL     1      44.783   6.147  11.082  0.00  0.00    +0.000 NA
ATOM     28  C   UNL     1      43.716   5.530  11.887  0.00  0.00    +0.000 C 
ATOM     29  C   UNL     1      43.362   4.213  11.194  0.00  0.00    +0.000 C 
ATOM     30  C   UNL     1      44.311   4.128  10.010  0.00  0.00    +0.000 C 
ATOM     31  C   UNL     1      45.474   5.028  10.415  0.00  0.00    +0.000 C 
BRANCH  30  32
ATOM     32  O   UNL     1      43.662   4.641   8.847  0.00  0.00    +0.000 OA
ATOM     33  H   UNL     1      44.293   5.279   8.458  0.00  0.00    +0.000 HD
ENDBRANCH  30  32
ENDBRANCH  26  27
ENDBRANCH  23  26
ENDBRANCH   4  23
TORSDOF 8
ENDMDL
MODEL 8
REMARK VINA RESULT:    -6.802      2.939      4.356
REMARK INTER + INTRA:         -10.400
REMARK INTER:                  -9.420
REMARK INTRA:                  -0.980
REMARK UNBOUND:                -0.815
REMARK  Name = 
REMARK  8 active torsions:
REMARK  status: ('A' for Active; 'I' for Inactive)
REMARK    1  A    between atoms: C_2  and  C_20
REMARK    2  A    between atoms: N_3  and  C_4
REMARK    3  A    between atoms: C_4  and  C_5
REMARK    4  A    between atoms: C_8  and  C_9
REMARK    5  A    between atoms: C_9  and  O_10
REMARK    6  A    between atoms: C_9  and  C_11
REMARK    7  A    between atoms: C_11  and  N_12
REMARK    8  A    between atoms: C_15  and  O_16
REMARK                            x       y       z     vdW  Elec       q    Type
REMARK                         _______ _______ _______ _____ _____    ______ ____
ROOT
ATOM      1  C   UNL     1      46.683   5.557  13.221  0.00  0.00    +0.000 A 
ATOM      2  C   UNL     1      46.637   6.430  12.131  0.00  0.00    +0.000 A 
ATOM      3  C   UNL     1      46.003   6.056  10.945  0.00  0.00    +0.000 A 
ATOM      4  C   UNL     1      45.393   4.799  10.821  0.00  0.00    +0.000 A 
ATOM      5  C   UNL     1      45.402   3.939  11.929  0.00  0.00    +0.000 A 
ATOM      6  C   UNL     1      46.034   4.317  13.120  0.00  0.00    +0.000 A 
ENDROOT
BRANCH   1   7
ATOM      7  C   UNL     1      47.381   5.973  14.488  0.00  0.00    +0.000 C 
BRANCH   7  10
ATOM      8  O   UNL     1      47.935   8.716  14.857  0.00  0.00    +0.000 OA
ATOM      9  C   UNL     1      48.833   7.970  14.470  0.00  0.00    +0.000 C 
ATOM     10  N   UNL     1      48.623   6.641  14.203  0.00  0.00    +0.000 N 
ATOM     11  H   UNL     1      49.425   6.036  14.073  0.00  0.00    +0.000 HD
BRANCH   9  12
ATOM     12  C   UNL     1      50.186   8.473  14.206  0.00  0.00    +0.000 A 
ATOM     13  C   UNL     1      50.936   9.017  15.238  0.00  0.00    +0.000 A 
ATOM     14  S   UNL     1      52.466   9.589  14.744  0.00  0.00    +0.000 S 
ATOM     15  C   UNL     1      52.198   9.083  13.141  0.00  0.00    +0.000 A 
ATOM     16  N   UNL     1      53.150   9.260  12.185  0.00  0.00    +0.000 NA
ATOM     17  C   UNL     1      52.835   8.784  11.026  0.00  0.00    +0.000 A 
ATOM     18  N   UNL     1      51.652   8.160  10.732  0.00  0.00    +0.000 N 
ATOM     19  C   UNL     1      50.632   8.033  11.645  0.00  0.00    +0.000 A 
ATOM     20  O   UNL     1      49.535   7.593  11.308  0.00  0.00    +0.000 OA
ATOM     21  C   UNL     1      50.951   8.507  12.979  0.00  0.00    +0.000 A 
ATOM     22  H   UNL     1      51.457   7.836   9.799  0.00  0.00    +0.000 HD
ENDBRANCH   9  12
ENDBRANCH   7  10
ENDBRANCH   1   7
BRANCH   4  23
ATOM     23  C   UNL     1      44.746   4.418   9.501  0.00  0.00    +0.000 C 
BRANCH  23  24
ATOM     24  O   UNL     1      43.350   4.706   9.572  0.00  0.00    +0.000 OA
ATOM     25  H   UNL     1      43.013   4.737   8.663  0.00  0.00    +0.000 HD
ENDBRANCH  23  24
BRANCH  23  26
ATOM     26  C   UNL     1      45.018   2.933   9.109  0.00  0.00    +0.000 C 
BRANCH  26  27
ATOM     27  N   UNL     1      46.151   2.723   8.182  0.00  0.00    +0.000 NA
ATOM     28  C   UNL     1      45.978   3.472   6.927  0.00  0.00    +0.000 C 
ATOM     29  C   UNL     1      46.688   2.662   5.842  0.00  0.00    +0.000 C 
ATOM     30  C   UNL     1      47.213   1.428   6.557  0.00  0.00    +0.000 C 
ATOM     31  C   UNL     1      46.315   1.313   7.784  0.00  0.00    +0.000 C 
BRANCH  30  32
ATOM     32  O   UNL     1      48.568   1.649   6.947  0.00  0.00    +0.000 OA
ATOM     33  H   UNL     1      48.970   2.155   6.214  0.00  0.00    +0.000 HD
ENDBRANCH  30  32
ENDBRANCH  26  27
ENDBRANCH  23  26
ENDBRANCH   4  23
TORSDOF 8
ENDMDL
MODEL 9
REMARK VINA RESULT:    -6.692      3.989      7.997
REMARK INTER + INTRA:         -10.245
REMARK INTER:                  -8.472
REMARK INTRA:                  -1.772
REMARK UNBOUND:                -0.815
REMARK  Name = 
REMARK  8 active torsions:
REMARK  status: ('A' for Active; 'I' for Inactive)
REMARK    1  A    between atoms: C_2  and  C_20
REMARK    2  A    between atoms: N_3  and  C_4
REMARK    3  A    between atoms: C_4  and  C_5
REMARK    4  A    between atoms: C_8  and  C_9
REMARK    5  A    between atoms: C_9  and  O_10
REMARK    6  A    between atoms: C_9  and  C_11
REMARK    7  A    between atoms: C_11  and  N_12
REMARK    8  A    between atoms: C_15  and  O_16
REMARK                            x       y       z     vdW  Elec       q    Type
REMARK                         _______ _______ _______ _____ _____    ______ ____
ROOT
ATOM      1  C   UNL     1      49.037   8.250  15.781  0.00  0.00    +0.000 A 
ATOM      2  C   UNL     1      48.862   8.248  17.168  0.00  0.00    +0.000 A 
ATOM      3  C   UNL     1      49.651   7.435  17.983  0.00  0.00    +0.000 A 
ATOM      4  C   UNL     1      50.639   6.605  17.432  0.00  0.00    +0.000 A 
ATOM      5  C   UNL     1      50.843   6.640  16.045  0.00  0.00    +0.000 A 
ATOM      6  C   UNL     1      50.055   7.459  15.228  0.00  0.00    +0.000 A 
ENDROOT
BRANCH   1   7
ATOM      7  C   UNL     1      48.169   9.125  14.916  0.00  0.00    +0.000 C 
BRANCH   7  10
ATOM      8  O   UNL     1      47.808   8.760  12.141  0.00  0.00    +0.000 OA
ATOM      9  C   UNL     1      47.058   8.181  12.925  0.00  0.00    +0.000 C 
ATOM     10  N   UNL     1      47.127   8.362  14.282  0.00  0.00    +0.000 N 
ATOM     11  H   UNL     1      46.621   7.725  14.887  0.00  0.00    +0.000 HD
BRANCH   9  12
ATOM     12  C   UNL     1      45.987   7.298  12.447  0.00  0.00    +0.000 A 
ATOM     13  C   UNL     1      44.947   7.816  11.690  0.00  0.00    +0.000 A 
ATOM     14  S   UNL     1      43.772   6.657  11.257  0.00  0.00    +0.000 S 
ATOM     15  C   UNL     1      44.640   5.410  12.024  0.00  0.00    +0.000 A 
ATOM     16  N   UNL     1      44.183   4.129  12.008  0.00  0.00    +0.000 NA
ATOM     17  C   UNL     1      44.965   3.277  12.584  0.00  0.00    +0.000 A 
ATOM     18  N   UNL     1      46.155   3.591  13.185  0.00  0.00    +0.000 N 
ATOM     19  C   UNL     1      46.614   4.882  13.296  0.00  0.00    +0.000 A 
ATOM     20  O   UNL     1      47.615   5.140  13.961  0.00  0.00    +0.000 OA
ATOM     21  C   UNL     1      45.798   5.875  12.622  0.00  0.00    +0.000 A 
ATOM     22  H   UNL     1      46.706   2.882  13.641  0.00  0.00    +0.000 HD
ENDBRANCH   9  12
ENDBRANCH   7  10
ENDBRANCH   1   7
BRANCH   4  23
ATOM     23  C   UNL     1      51.450   5.709  18.352  0.00  0.00    +0.000 C 
BRANCH  23  24
ATOM     24  O   UNL     1      52.693   5.406  17.720  0.00  0.00    +0.000 OA
ATOM     25  H   UNL     1      52.543   5.418  16.763  0.00  0.00    +0.000 HD
ENDBRANCH  23  24
BRANCH  23  26
ATOM     26  C   UNL     1      50.675   4.422  18.767  0.00  0.00    +0.000 C 
BRANCH  26  27
ATOM     27  N   UNL     1      49.628   3.983  17.819  0.00  0.00    +0.000 NA
ATOM     28  C   UNL     1      48.294   3.974  18.441  0.00  0.00    +0.000 C 
ATOM     29  C   UNL     1      47.500   2.872  17.739  0.00  0.00    +0.000 C 
ATOM     30  C   UNL     1      48.474   2.263  16.743  0.00  0.00    +0.000 C 
ATOM     31  C   UNL     1      49.843   2.613  17.319  0.00  0.00    +0.000 C 
BRANCH  30  32
ATOM     32  O   UNL     1      48.294   2.879  15.469  0.00  0.00    +0.000 OA
ATOM     33  H   UNL     1      47.348   3.122  15.429  0.00  0.00    +0.000 HD
ENDBRANCH  30  32
ENDBRANCH  26  27
ENDBRANCH  23  26
ENDBRANCH   4  23
TORSDOF 8
ENDMDL
