MODEL 1
REMARK VINA RESULT:    -8.193      0.000      0.000
REMARK INTER + INTRA:         -11.710
REMARK INTER:                 -10.827
REMARK INTRA:                  -0.883
REMARK UNBOUND:                -0.883
REMARK  Name = 
REMARK  6 active torsions:
REMARK  status: ('A' for Active; 'I' for Inactive)
REMARK    1  A    between atoms: N_1  and  C_2
REMARK    2  A    between atoms: C_2  and  C_3
REMARK    3  A    between atoms: C_6  and  O_7
REMARK    4  A    between atoms: O_7  and  C_8
REMARK    5  A    between atoms: C_8  and  C_9
REMARK    6  A    between atoms: C_13  and  C_14
REMARK                            x       y       z     vdW  Elec       q    Type
REMARK                         _______ _______ _______ _____ _____    ______ ____
ROOT
ATOM      1  C   UNL     1      44.576   4.613  12.004  0.00  0.00    +0.000 A 
ATOM      2  C   UNL     1      45.419   3.706  12.657  0.00  0.00    +0.000 A 
ATOM      3  C   UNL     1      46.508   4.162  13.400  0.00  0.00    +0.000 A 
ATOM      4  F   UNL     1      47.270   3.235  14.003  0.00  0.00    +0.000 F 
ATOM      5  C   UNL     1      46.797   5.524  13.518  0.00  0.00    +0.000 A 
ATOM      6  C   UNL     1      45.960   6.423  12.852  0.00  0.00    +0.000 A 
ATOM      7  F   UNL     1      46.174   7.746  12.899  0.00  0.00    +0.000 F 
ATOM      8  C   UNL     1      44.862   5.979  12.107  0.00  0.00    +0.000 A 
ENDROOT
BRANCH   5   9
ATOM      9  C   UNL     1      47.946   6.018  14.318  0.00  0.00    +0.000 C 
ATOM     10  N   UNL     1      47.846   5.959  15.682  0.00  0.00    +0.000 N 
ATOM     11  O   UNL     1      48.962   6.471  13.808  0.00  0.00    +0.000 OA
ATOM     12  H   UNL     1      47.033   5.605  16.171  0.00  0.00    +0.000 HD
ATOM     13  H   UNL     1      48.622   6.304  16.230  0.00  0.00    +0.000 HD
ENDBRANCH   5   9
BRANCH   1  14
ATOM     14  C   UNL     1      43.394   4.114  11.208  0.00  0.00    +0.000 C 
BRANCH  14  15
ATOM     15  O   UNL     1      43.621   4.420   9.833  0.00  0.00    +0.000 OA
BRANCH  15  19
ATOM     16  C   UNL     1      46.514   2.313   7.664  0.00  0.00    +0.000 A 
ATOM     17  C   UNL     1      45.673   1.608   8.537  0.00  0.00    +0.000 A 
ATOM     18  C   UNL     1      44.690   2.270   9.283  0.00  0.00    +0.000 A 
ATOM     19  C   UNL     1      44.539   3.652   9.169  0.00  0.00    +0.000 A 
ATOM     20  C   UNL     1      45.379   4.360   8.308  0.00  0.00    +0.000 A 
ATOM     21  C   UNL     1      46.360   3.700   7.562  0.00  0.00    +0.000 A 
BRANCH  16  22
ATOM     22  C   UNL     1      47.570   1.591   6.866  0.00  0.00    +0.000 C 
BRANCH  22  23
ATOM     23  N   UNL     1      48.606   2.505   6.400  0.00  0.00    +0.000 NA
ATOM     24  H   UNL     1      48.779   2.336   5.411  0.00  0.00    +0.000 HD
ATOM     25  H   UNL     1      49.476   2.288   6.884  0.00  0.00    +0.000 HD
ENDBRANCH  22  23
ENDBRANCH  16  22
ENDBRANCH  15  19
ENDBRANCH  14  15
ENDBRANCH   1  14
TORSDOF 6
ENDMDL
MODEL 2
REMARK VINA RESULT:    -8.184      0.151      1.811
REMARK INTER + INTRA:         -11.699
REMARK INTER:                 -10.784
REMARK INTRA:                  -0.915
REMARK UNBOUND:                -0.883
REMARK  Name = 
REMARK  6 active torsions:
REMARK  status: ('A' for Active; 'I' for Inactive)
REMARK    1  A    between atoms: N_1  and  C_2
REMARK    2  A    between atoms: C_2  and  C_3
REMARK    3  A    between atoms: C_6  and  O_7
REMARK    4  A    between atoms: O_7  and  C_8
REMARK    5  A    between atoms: C_8  and  C_9
REMARK    6  A    between atoms: C_13  and  C_14
REMARK                            x       y       z     vdW  Elec       q    Type
REMARK                         _______ _______ _______ _____ _____    ______ ____
ROOT
ATOM      1  C   UNL     1      44.590   4.507  11.961  0.00  0.00    +0.000 A 
ATOM      2  C   UNL     1      44.836   5.884  11.985  0.00  0.00    +0.000 A 
ATOM      3  C   UNL     1      45.926   6.396  12.690  0.00  0.00    +0.000 A 
ATOM      4  F   UNL     1      46.101   7.727  12.665  0.00  0.00    +0.000 F 
ATOM      5  C   UNL     1      46.800   5.564  13.393  0.00  0.00    +0.000 A 
ATOM      6  C   UNL     1      46.541   4.191  13.377  0.00  0.00    +0.000 A 
ATOM      7  F   UNL     1      47.321   3.323  14.037  0.00  0.00    +0.000 F 
ATOM      8  C   UNL     1      45.454   3.665  12.670  0.00  0.00    +0.000 A 
ENDROOT
BRANCH   5   9
ATOM      9  C   UNL     1      47.969   6.099  14.135  0.00  0.00    +0.000 C 
ATOM     10  N   UNL     1      47.891   6.144  15.501  0.00  0.00    +0.000 N 
ATOM     11  O   UNL     1      48.983   6.496  13.577  0.00  0.00    +0.000 OA
ATOM     12  H   UNL     1      47.082   5.840  16.027  0.00  0.00    +0.000 HD
ATOM     13  H   UNL     1      48.682   6.517  16.009  0.00  0.00    +0.000 HD
ENDBRANCH   5   9
BRANCH   1  14
ATOM     14  C   UNL     1      43.414   3.958  11.188  0.00  0.00    +0.000 C 
BRANCH  14  15
ATOM     15  O   UNL     1      43.606   4.263   9.808  0.00  0.00    +0.000 OA
BRANCH  15  19
ATOM     16  C   UNL     1      46.597   2.303   7.634  0.00  0.00    +0.000 A 
ATOM     17  C   UNL     1      45.755   1.548   8.462  0.00  0.00    +0.000 A 
ATOM     18  C   UNL     1      44.740   2.160   9.207  0.00  0.00    +0.000 A 
ATOM     19  C   UNL     1      44.557   3.540   9.139  0.00  0.00    +0.000 A 
ATOM     20  C   UNL     1      45.399   4.298   8.322  0.00  0.00    +0.000 A 
ATOM     21  C   UNL     1      46.411   3.688   7.576  0.00  0.00    +0.000 A 
BRANCH  16  22
ATOM     22  C   UNL     1      47.688   1.635   6.835  0.00  0.00    +0.000 C 
BRANCH  22  23
ATOM     23  N   UNL     1      48.639   2.608   6.310  0.00  0.00    +0.000 NA
ATOM     24  H   UNL     1      49.109   2.210   5.500  0.00  0.00    +0.000 HD
ATOM     25  H   UNL     1      49.362   2.769   7.011  0.00  0.00    +0.000 HD
ENDBRANCH  22  23
ENDBRANCH  16  22
ENDBRANCH  15  19
ENDBRANCH  14  15
ENDBRANCH   1  14
TORSDOF 6
ENDMDL
MODEL 3
REMARK VINA RESULT:    -7.417      2.579      6.332
REMARK INTER + INTRA:         -10.685
REMARK INTER:                 -10.038
REMARK INTRA:                  -0.647
REMARK UNBOUND:                -0.883
REMARK  Name = 
REMARK  6 active torsions:
REMARK  status: ('A' for Active; 'I' for Inactive)
REMARK    1  A    between atoms: N_1  and  C_2
REMARK    2  A    between atoms: C_2  and  C_3
REMARK    3  A    between atoms: C_6  and  O_7
REMARK    4  A    between atoms: O_7  and  C_8
REMARK    5  A    between atoms: C_8  and  C_9
REMARK    6  A    between atoms: C_13  and  C_14
REMARK                            x       y       z     vdW  Elec       q    Type
REMARK                         _______ _______ _______ _____ _____    ______ ____
ROOT
ATOM      1  C   UNL     1      44.523   3.428   9.729  0.00  0.00    +0.000 A 
ATOM      2  C   UNL     1      44.715   2.078   9.416  0.00  0.00    +0.000 A 
ATOM      3  C   UNL     1      45.641   1.701   8.443  0.00  0.00    +0.000 A 
ATOM      4  F   UNL     1      45.775   0.388   8.200  0.00  0.00    +0.000 F 
ATOM      5  C   UNL     1      46.401   2.647   7.749  0.00  0.00    +0.000 A 
ATOM      6  C   UNL     1      46.193   3.994   8.055  0.00  0.00    +0.000 A 
ATOM      7  F   UNL     1      46.868   4.968   7.426  0.00  0.00    +0.000 F 
ATOM      8  C   UNL     1      45.271   4.385   9.033  0.00  0.00    +0.000 A 
ENDROOT
BRANCH   5   9
ATOM      9  C   UNL     1      47.397   2.255   6.721  0.00  0.00    +0.000 C 
ATOM     10  N   UNL     1      47.286   2.817   5.478  0.00  0.00    +0.000 N 
ATOM     11  O   UNL     1      48.299   1.458   6.943  0.00  0.00    +0.000 OA
ATOM     12  H   UNL     1      46.562   3.477   5.223  0.00  0.00    +0.000 HD
ATOM     13  H   UNL     1      47.957   2.545   4.773  0.00  0.00    +0.000 HD
ENDBRANCH   5   9
BRANCH   1  14
ATOM     14  C   UNL     1      43.526   3.829  10.790  0.00  0.00    +0.000 C 
BRANCH  14  15
ATOM     15  O   UNL     1      44.132   3.638  12.066  0.00  0.00    +0.000 OA
BRANCH  15  19
ATOM     16  C   UNL     1      46.969   6.378  13.468  0.00  0.00    +0.000 A 
ATOM     17  C   UNL     1      45.803   6.860  12.855  0.00  0.00    +0.000 A 
ATOM     18  C   UNL     1      44.827   5.982  12.372  0.00  0.00    +0.000 A 
ATOM     19  C   UNL     1      45.005   4.604  12.490  0.00  0.00    +0.000 A 
ATOM     20  C   UNL     1      46.167   4.118  13.091  0.00  0.00    +0.000 A 
ATOM     21  C   UNL     1      47.143   4.994  13.576  0.00  0.00    +0.000 A 
BRANCH  16  22
ATOM     22  C   UNL     1      48.016   7.332  13.985  0.00  0.00    +0.000 C 
BRANCH  22  23
ATOM     23  N   UNL     1      49.203   6.623  14.449  0.00  0.00    +0.000 NA
ATOM     24  H   UNL     1      48.915   5.806  14.983  0.00  0.00    +0.000 HD
ATOM     25  H   UNL     1      49.711   7.225  15.096  0.00  0.00    +0.000 HD
ENDBRANCH  22  23
ENDBRANCH  16  22
ENDBRANCH  15  19
ENDBRANCH  14  15
ENDBRANCH   1  14
TORSDOF 6
ENDMDL
MODEL 4
REMARK VINA RESULT:    -5.797      3.386      8.096
REMARK INTER + INTRA:          -8.544
REMARK INTER:                  -7.891
REMARK INTRA:                  -0.652
REMARK UNBOUND:                -0.883
REMARK  Name = 
REMARK  6 active torsions:
REMARK  status: ('A' for Active; 'I' for Inactive)
REMARK    1  A    between atoms: N_1  and  C_2
REMARK    2  A    between atoms: C_2  and  C_3
REMARK    3  A    between atoms: C_6  and  O_7
REMARK    4  A    between atoms: O_7  and  C_8
REMARK    5  A    between atoms: C_8  and  C_9
REMARK    6  A    between atoms: C_13  and  C_14
REMARK                            x       y       z     vdW  Elec       q    Type
REMARK                         _______ _______ _______ _____ _____    ______ ____
ROOT
ATOM      1  C   UNL     1      46.919   6.520  13.288  0.00  0.00    +0.000 A 
ATOM      2  C   UNL     1      46.080   7.423  12.627  0.00  0.00    +0.000 A 
ATOM      3  C   UNL     1      44.995   6.964  11.879  0.00  0.00    +0.000 A 
ATOM      4  F   UNL     1      44.232   7.889  11.275  0.00  0.00    +0.000 F 
ATOM      5  C   UNL     1      44.711   5.601  11.761  0.00  0.00    +0.000 A 
ATOM      6  C   UNL     1      45.561   4.704  12.412  0.00  0.00    +0.000 A 
ATOM      7  F   UNL     1      45.370   3.378  12.339  0.00  0.00    +0.000 F 
ATOM      8  C   UNL     1      46.649   5.152  13.169  0.00  0.00    +0.000 A 
ENDROOT
BRANCH   5   9
ATOM      9  C   UNL     1      43.552   5.105  10.978  0.00  0.00    +0.000 C 
ATOM     10  N   UNL     1      43.778   4.701   9.690  0.00  0.00    +0.000 N 
ATOM     11  O   UNL     1      42.419   5.046  11.437  0.00  0.00    +0.000 OA
ATOM     12  H   UNL     1      44.687   4.729   9.244  0.00  0.00    +0.000 HD
ATOM     13  H   UNL     1      42.989   4.371   9.151  0.00  0.00    +0.000 HD
ENDBRANCH   5   9
BRANCH   1  14
ATOM     14  C   UNL     1      48.087   7.024  14.104  0.00  0.00    +0.000 C 
BRANCH  14  15
ATOM     15  O   UNL     1      48.692   5.907  14.752  0.00  0.00    +0.000 OA
BRANCH  15  19
ATOM     16  C   UNL     1      48.310   5.525  18.902  0.00  0.00    +0.000 A 
ATOM     17  C   UNL     1      48.942   6.663  18.380  0.00  0.00    +0.000 A 
ATOM     18  C   UNL     1      49.092   6.834  16.998  0.00  0.00    +0.000 A 
ATOM     19  C   UNL     1      48.615   5.864  16.117  0.00  0.00    +0.000 A 
ATOM     20  C   UNL     1      47.993   4.725  16.632  0.00  0.00    +0.000 A 
ATOM     21  C   UNL     1      47.842   4.553  18.011  0.00  0.00    +0.000 A 
BRANCH  16  22
ATOM     22  C   UNL     1      48.154   5.349  20.391  0.00  0.00    +0.000 C 
BRANCH  22  23
ATOM     23  N   UNL     1      48.450   3.982  20.803  0.00  0.00    +0.000 NA
ATOM     24  H   UNL     1      47.829   3.344  20.310  0.00  0.00    +0.000 HD
ATOM     25  H   UNL     1      48.235   3.884  21.794  0.00  0.00    +0.000 HD
ENDBRANCH  22  23
ENDBRANCH  16  22
ENDBRANCH  15  19
ENDBRANCH  14  15
ENDBRANCH   1  14
TORSDOF 6
ENDMDL
MODEL 5
REMARK VINA RESULT:    -5.764      3.640      7.854
REMARK INTER + INTRA:          -8.500
REMARK INTER:                  -7.856
REMARK INTRA:                  -0.644
REMARK UNBOUND:                -0.883
REMARK  Name = 
REMARK  6 active torsions:
REMARK  status: ('A' for Active; 'I' for Inactive)
REMARK    1  A    between atoms: N_1  and  C_2
REMARK    2  A    between atoms: C_2  and  C_3
REMARK    3  A    between atoms: C_6  and  O_7
REMARK    4  A    between atoms: O_7  and  C_8
REMARK    5  A    between atoms: C_8  and  C_9
REMARK    6  A    between atoms: C_13  and  C_14
REMARK                            x       y       z     vdW  Elec       q    Type
REMARK                         _______ _______ _______ _____ _____    ______ ____
ROOT
ATOM      1  C   UNL     1      46.897   6.505  13.306  0.00  0.00    +0.000 A 
ATOM      2  C   UNL     1      46.617   5.137  13.220  0.00  0.00    +0.000 A 
ATOM      3  C   UNL     1      45.507   4.685  12.505  0.00  0.00    +0.000 A 
ATOM      4  F   UNL     1      45.304   3.359  12.462  0.00  0.00    +0.000 F 
ATOM      5  C   UNL     1      44.643   5.571  11.856  0.00  0.00    +0.000 A 
ATOM      6  C   UNL     1      44.920   6.937  11.958  0.00  0.00    +0.000 A 
ATOM      7  F   UNL     1      44.134   7.857  11.381  0.00  0.00    +0.000 F 
ATOM      8  C   UNL     1      46.032   7.403  12.669  0.00  0.00    +0.000 A 
ENDROOT
BRANCH   5   9
ATOM      9  C   UNL     1      43.468   5.099  11.082  0.00  0.00    +0.000 C 
ATOM     10  N   UNL     1      42.256   5.067  11.718  0.00  0.00    +0.000 N 
ATOM     11  O   UNL     1      43.545   4.741   9.915  0.00  0.00    +0.000 OA
ATOM     12  H   UNL     1      42.121   5.341  12.683  0.00  0.00    +0.000 HD
ATOM     13  H   UNL     1      41.456   4.737  11.197  0.00  0.00    +0.000 HD
ENDBRANCH   5   9
BRANCH   1  14
ATOM     14  C   UNL     1      48.105   6.987  14.075  0.00  0.00    +0.000 C 
BRANCH  14  15
ATOM     15  O   UNL     1      48.690   5.867  14.734  0.00  0.00    +0.000 OA
BRANCH  15  19
ATOM     16  C   UNL     1      48.315   5.525  18.888  0.00  0.00    +0.000 A 
ATOM     17  C   UNL     1      48.898   6.681  18.352  0.00  0.00    +0.000 A 
ATOM     18  C   UNL     1      49.044   6.840  16.969  0.00  0.00    +0.000 A 
ATOM     19  C   UNL     1      48.612   5.839  16.100  0.00  0.00    +0.000 A 
ATOM     20  C   UNL     1      48.038   4.681  16.629  0.00  0.00    +0.000 A 
ATOM     21  C   UNL     1      47.891   4.522  18.010  0.00  0.00    +0.000 A 
BRANCH  16  22
ATOM     22  C   UNL     1      48.163   5.362  20.380  0.00  0.00    +0.000 C 
BRANCH  22  23
ATOM     23  N   UNL     1      48.419   3.989  20.797  0.00  0.00    +0.000 NA
ATOM     24  H   UNL     1      48.941   3.510  20.066  0.00  0.00    +0.000 HD
ATOM     25  H   UNL     1      47.529   3.500  20.881  0.00  0.00    +0.000 HD
ENDBRANCH  22  23
ENDBRANCH  16  22
ENDBRANCH  15  19
ENDBRANCH  14  15
ENDBRANCH   1  14
TORSDOF 6
ENDMDL
MODEL 6
REMARK VINA RESULT:    -5.760      3.637      6.431
REMARK INTER + INTRA:          -8.496
REMARK INTER:                  -7.908
REMARK INTRA:                  -0.588
REMARK UNBOUND:                -0.883
REMARK  Name = 
REMARK  6 active torsions:
REMARK  status: ('A' for Active; 'I' for Inactive)
REMARK    1  A    between atoms: N_1  and  C_2
REMARK    2  A    between atoms: C_2  and  C_3
REMARK    3  A    between atoms: C_6  and  O_7
REMARK    4  A    between atoms: O_7  and  C_8
REMARK    5  A    between atoms: C_8  and  C_9
REMARK    6  A    between atoms: C_13  and  C_14
REMARK                            x       y       z     vdW  Elec       q    Type
REMARK                         _______ _______ _______ _____ _____    ______ ____
ROOT
ATOM      1  C   UNL     1      45.718   6.482  12.651  0.00  0.00    +0.000 A 
ATOM      2  C   UNL     1      44.623   6.552  11.783  0.00  0.00    +0.000 A 
ATOM      3  C   UNL     1      44.037   5.387  11.287  0.00  0.00    +0.000 A 
ATOM      4  F   UNL     1      42.987   5.532  10.463  0.00  0.00    +0.000 F 
ATOM      5  C   UNL     1      44.517   4.122  11.632  0.00  0.00    +0.000 A 
ATOM      6  C   UNL     1      45.620   4.058  12.487  0.00  0.00    +0.000 A 
ATOM      7  F   UNL     1      46.155   2.885  12.856  0.00  0.00    +0.000 F 
ATOM      8  C   UNL     1      46.214   5.219  12.995  0.00  0.00    +0.000 A 
ENDROOT
BRANCH   5   9
ATOM      9  C   UNL     1      43.892   2.877  11.119  0.00  0.00    +0.000 C 
ATOM     10  N   UNL     1      44.409   2.327   9.977  0.00  0.00    +0.000 N 
ATOM     11  O   UNL     1      42.944   2.334  11.672  0.00  0.00    +0.000 OA
ATOM     12  H   UNL     1      45.186   2.725   9.464  0.00  0.00    +0.000 HD
ATOM     13  H   UNL     1      43.980   1.484   9.619  0.00  0.00    +0.000 HD
ENDBRANCH   5   9
BRANCH   1  14
ATOM     14  C   UNL     1      46.342   7.746  13.192  0.00  0.00    +0.000 C 
BRANCH  14  15
ATOM     15  O   UNL     1      46.698   8.576  12.087  0.00  0.00    +0.000 OA
BRANCH  15  19
ATOM     16  C   UNL     1      50.817   8.918  11.432  0.00  0.00    +0.000 A 
ATOM     17  C   UNL     1      50.049  10.085  11.547  0.00  0.00    +0.000 A 
ATOM     18  C   UNL     1      48.667  10.020  11.767  0.00  0.00    +0.000 A 
ATOM     19  C   UNL     1      48.033   8.783  11.870  0.00  0.00    +0.000 A 
ATOM     20  C   UNL     1      48.793   7.617  11.748  0.00  0.00    +0.000 A 
ATOM     21  C   UNL     1      50.172   7.681  11.530  0.00  0.00    +0.000 A 
BRANCH  16  22
ATOM     22  C   UNL     1      52.304   8.999  11.195  0.00  0.00    +0.000 C 
BRANCH  22  23
ATOM     23  N   UNL     1      52.961   7.728  11.479  0.00  0.00    +0.000 NA
ATOM     24  H   UNL     1      53.758   7.894  12.090  0.00  0.00    +0.000 HD
ATOM     25  H   UNL     1      53.339   7.353  10.609  0.00  0.00    +0.000 HD
ENDBRANCH  22  23
ENDBRANCH  16  22
ENDBRANCH  15  19
ENDBRANCH  14  15
ENDBRANCH   1  14
TORSDOF 6
ENDMDL
MODEL 7
REMARK VINA RESULT:    -5.755      3.617      6.210
REMARK INTER + INTRA:          -8.489
REMARK INTER:                  -7.918
REMARK INTRA:                  -0.571
REMARK UNBOUND:                -0.883
REMARK  Name = 
REMARK  6 active torsions:
REMARK  status: ('A' for Active; 'I' for Inactive)
REMARK    1  A    between atoms: N_1  and  C_2
REMARK    2  A    between atoms: C_2  and  C_3
REMARK    3  A    between atoms: C_6  and  O_7
REMARK    4  A    between atoms: O_7  and  C_8
REMARK    5  A    between atoms: C_8  and  C_9
REMARK    6  A    between atoms: C_13  and  C_14
REMARK                            x       y       z     vdW  Elec       q    Type
REMARK                         _______ _______ _______ _____ _____    ______ ____
ROOT
ATOM      1  C   UNL     1      45.694   6.530  12.674  0.00  0.00    +0.000 A 
ATOM      2  C   UNL     1      46.195   5.282  13.060  0.00  0.00    +0.000 A 
ATOM      3  C   UNL     1      45.629   4.107  12.562  0.00  0.00    +0.000 A 
ATOM      4  F   UNL     1      46.165   2.947  12.973  0.00  0.00    +0.000 F 
ATOM      5  C   UNL     1      44.554   4.132  11.671  0.00  0.00    +0.000 A 
ATOM      6  C   UNL     1      44.049   5.381  11.301  0.00  0.00    +0.000 A 
ATOM      7  F   UNL     1      43.008   5.496  10.463  0.00  0.00    +0.000 F 
ATOM      8  C   UNL     1      44.609   6.567  11.790  0.00  0.00    +0.000 A 
ENDROOT
BRANCH   5   9
ATOM      9  C   UNL     1      43.955   2.888  11.126  0.00  0.00    +0.000 C 
ATOM     10  N   UNL     1      44.517   2.350   9.999  0.00  0.00    +0.000 N 
ATOM     11  O   UNL     1      42.991   2.337  11.640  0.00  0.00    +0.000 OA
ATOM     12  H   UNL     1      45.309   2.756   9.518  0.00  0.00    +0.000 HD
ATOM     13  H   UNL     1      44.105   1.508   9.620  0.00  0.00    +0.000 HD
ENDBRANCH   5   9
BRANCH   1  14
ATOM     14  C   UNL     1      46.315   7.798  13.209  0.00  0.00    +0.000 C 
BRANCH  14  15
ATOM     15  O   UNL     1      46.670   8.622  12.101  0.00  0.00    +0.000 OA
BRANCH  15  19
ATOM     16  C   UNL     1      50.781   8.866  11.360  0.00  0.00    +0.000 A 
ATOM     17  C   UNL     1      50.051  10.051  11.528  0.00  0.00    +0.000 A 
ATOM     18  C   UNL     1      48.673  10.019  11.778  0.00  0.00    +0.000 A 
ATOM     19  C   UNL     1      48.005   8.797  11.859  0.00  0.00    +0.000 A 
ATOM     20  C   UNL     1      48.727   7.615  11.684  0.00  0.00    +0.000 A 
ATOM     21  C   UNL     1      50.102   7.645  11.436  0.00  0.00    +0.000 A 
BRANCH  16  22
ATOM     22  C   UNL     1      52.264   8.911  11.090  0.00  0.00    +0.000 C 
BRANCH  22  23
ATOM     23  N   UNL     1      52.971   7.858  11.810  0.00  0.00    +0.000 NA
ATOM     24  H   UNL     1      53.180   8.181  12.752  0.00  0.00    +0.000 HD
ATOM     25  H   UNL     1      53.869   7.697  11.356  0.00  0.00    +0.000 HD
ENDBRANCH  22  23
ENDBRANCH  16  22
ENDBRANCH  15  19
ENDBRANCH  14  15
ENDBRANCH   1  14
TORSDOF 6
ENDMDL
MODEL 8
REMARK VINA RESULT:    -5.724      2.984      4.072
REMARK INTER + INTRA:          -8.448
REMARK INTER:                  -7.826
REMARK INTRA:                  -0.621
REMARK UNBOUND:                -0.883
REMARK  Name = 
REMARK  6 active torsions:
REMARK  status: ('A' for Active; 'I' for Inactive)
REMARK    1  A    between atoms: N_1  and  C_2
REMARK    2  A    between atoms: C_2  and  C_3
REMARK    3  A    between atoms: C_6  and  O_7
REMARK    4  A    between atoms: O_7  and  C_8
REMARK    5  A    between atoms: C_8  and  C_9
REMARK    6  A    between atoms: C_13  and  C_14
REMARK                            x       y       z     vdW  Elec       q    Type
REMARK                         _______ _______ _______ _____ _____    ______ ____
ROOT
ATOM      1  C   UNL     1      47.575   5.541  14.793  0.00  0.00    +0.000 A 
ATOM      2  C   UNL     1      47.159   4.320  15.333  0.00  0.00    +0.000 A 
ATOM      3  C   UNL     1      47.702   3.854  16.531  0.00  0.00    +0.000 A 
ATOM      4  F   UNL     1      47.251   2.676  16.991  0.00  0.00    +0.000 F 
ATOM      5  C   UNL     1      48.673   4.579  17.226  0.00  0.00    +0.000 A 
ATOM      6  C   UNL     1      49.096   5.790  16.674  0.00  0.00    +0.000 A 
ATOM      7  F   UNL     1      50.035   6.542  17.267  0.00  0.00    +0.000 F 
ATOM      8  C   UNL     1      48.555   6.271  15.476  0.00  0.00    +0.000 A 
ENDROOT
BRANCH   5   9
ATOM      9  C   UNL     1      49.247   4.096  18.507  0.00  0.00    +0.000 C 
ATOM     10  N   UNL     1      50.403   3.365  18.453  0.00  0.00    +0.000 N 
ATOM     11  O   UNL     1      48.730   4.325  19.593  0.00  0.00    +0.000 OA
ATOM     12  H   UNL     1      50.880   3.132  17.591  0.00  0.00    +0.000 HD
ATOM     13  H   UNL     1      50.792   3.027  19.323  0.00  0.00    +0.000 HD
ENDBRANCH   5   9
BRANCH   1  14
ATOM     14  C   UNL     1      46.977   6.045  13.501  0.00  0.00    +0.000 C 
BRANCH  14  15
ATOM     15  O   UNL     1      45.710   5.416  13.321  0.00  0.00    +0.000 OA
BRANCH  15  19
ATOM     16  C   UNL     1      45.014   4.003   9.444  0.00  0.00    +0.000 A 
ATOM     17  C   UNL     1      44.734   3.165  10.532  0.00  0.00    +0.000 A 
ATOM     18  C   UNL     1      44.950   3.594  11.847  0.00  0.00    +0.000 A 
ATOM     19  C   UNL     1      45.456   4.870  12.092  0.00  0.00    +0.000 A 
ATOM     20  C   UNL     1      45.744   5.707  11.011  0.00  0.00    +0.000 A 
ATOM     21  C   UNL     1      45.527   5.279   9.698  0.00  0.00    +0.000 A 
BRANCH  16  22
ATOM     22  C   UNL     1      44.778   3.532   8.031  0.00  0.00    +0.000 C 
BRANCH  22  23
ATOM     23  N   UNL     1      45.886   3.891   7.155  0.00  0.00    +0.000 NA
ATOM     24  H   UNL     1      46.189   4.839   7.372  0.00  0.00    +0.000 HD
ATOM     25  H   UNL     1      45.550   3.911   6.193  0.00  0.00    +0.000 HD
ENDBRANCH  22  23
ENDBRANCH  16  22
ENDBRANCH  15  19
ENDBRANCH  14  15
ENDBRANCH   1  14
TORSDOF 6
ENDMDL
MODEL 9
REMARK VINA RESULT:    -5.692      2.625      3.210
REMARK INTER + INTRA:          -8.405
REMARK INTER:                  -7.912
REMARK INTRA:                  -0.493
REMARK UNBOUND:                -0.883
REMARK  Name = 
REMARK  6 active torsions:
REMARK  status: ('A' for Active; 'I' for Inactive)
REMARK    1  A    between atoms: N_1  and  C_2
REMARK    2  A    between atoms: C_2  and  C_3
REMARK    3  A    between atoms: C_6  and  O_7
REMARK    4  A    between atoms: O_7  and  C_8
REMARK    5  A    between atoms: C_8  and  C_9
REMARK    6  A    between atoms: C_13  and  C_14
REMARK                            x       y       z     vdW  Elec       q    Type
REMARK                         _______ _______ _______ _____ _____    ______ ____
ROOT
ATOM      1  C   UNL     1      46.496   6.373  12.965  0.00  0.00    +0.000 A 
ATOM      2  C   UNL     1      47.870   6.244  12.736  0.00  0.00    +0.000 A 
ATOM      3  C   UNL     1      48.646   7.364  12.433  0.00  0.00    +0.000 A 
ATOM      4  F   UNL     1      49.958   7.164  12.230  0.00  0.00    +0.000 F 
ATOM      5  C   UNL     1      48.086   8.641  12.347  0.00  0.00    +0.000 A 
ATOM      6  C   UNL     1      46.711   8.761  12.563  0.00  0.00    +0.000 A 
ATOM      7  F   UNL     1      46.090   9.947  12.484  0.00  0.00    +0.000 F 
ATOM      8  C   UNL     1      45.923   7.647  12.872  0.00  0.00    +0.000 A 
ENDROOT
BRANCH   5   9
ATOM      9  C   UNL     1      48.906   9.839  12.039  0.00  0.00    +0.000 C 
ATOM     10  N   UNL     1      49.719  10.327  13.026  0.00  0.00    +0.000 N 
ATOM     11  O   UNL     1      48.879  10.398  10.951  0.00  0.00    +0.000 OA
ATOM     12  H   UNL     1      49.786   9.920  13.951  0.00  0.00    +0.000 HD
ATOM     13  H   UNL     1      50.272  11.149  12.822  0.00  0.00    +0.000 HD
ENDBRANCH   5   9
BRANCH   1  14
ATOM     14  C   UNL     1      45.663   5.159  13.301  0.00  0.00    +0.000 C 
BRANCH  14  15
ATOM     15  O   UNL     1      44.586   5.086  12.370  0.00  0.00    +0.000 OA
BRANCH  15  19
ATOM     16  C   UNL     1      45.486   3.635   8.549  0.00  0.00    +0.000 A 
ATOM     17  C   UNL     1      44.978   2.748   9.510  0.00  0.00    +0.000 A 
ATOM     18  C   UNL     1      44.663   3.189  10.801  0.00  0.00    +0.000 A 
ATOM     19  C   UNL     1      44.855   4.524  11.151  0.00  0.00    +0.000 A 
ATOM     20  C   UNL     1      45.368   5.410  10.201  0.00  0.00    +0.000 A 
ATOM     21  C   UNL     1      45.682   4.972   8.911  0.00  0.00    +0.000 A 
BRANCH  16  22
ATOM     22  C   UNL     1      45.824   3.151   7.162  0.00  0.00    +0.000 C 
BRANCH  22  23
ATOM     23  N   UNL     1      46.822   4.003   6.526  0.00  0.00    +0.000 NA
ATOM     24  H   UNL     1      46.613   4.976   6.739  0.00  0.00    +0.000 HD
ATOM     25  H   UNL     1      46.740   3.906   5.515  0.00  0.00    +0.000 HD
ENDBRANCH  22  23
ENDBRANCH  16  22
ENDBRANCH  15  19
ENDBRANCH  14  15
ENDBRANCH   1  14
TORSDOF 6
ENDMDL
