MODEL 1
REMARK VINA RESULT:    -8.963      0.000      0.000
REMARK INTER + INTRA:         -13.482
REMARK INTER:                 -12.630
REMARK INTRA:                  -0.852
REMARK UNBOUND:                -0.852
REMARK  Name = 
REMARK  9 active torsions:
REMARK  status: ('A' for Active; 'I' for Inactive)
REMARK    1  A    between atoms: C_1  and  C_2
REMARK    2  A    between atoms: C_2  and  C_3
REMARK    3  A    between atoms: C_5  and  O_6
REMARK    4  A    between atoms: O_6  and  C_7
REMARK    5  A    between atoms: C_11  and  C_12
REMARK    6  A    between atoms: C_12  and  C_13
REMARK    7  A    between atoms: C_13  and  N_14
REMARK    8  A    between atoms: N_14  and  C_15
REMARK    9  A    between atoms: C_18  and  C_19
REMARK                            x       y       z     vdW  Elec       q    Type
REMARK                         _______ _______ _______ _____ _____    ______ ____
ROOT
ATOM      1  C   UNL     1      43.350   5.540  12.257  0.00  0.00    +0.000 C 
ENDROOT
BRANCH   1   6
ATOM      2  C   UNL     1      46.870   5.062  13.739  0.00  0.00    +0.000 A 
ATOM      3  C   UNL     1      47.598   6.015  13.037  0.00  0.00    +0.000 A 
ATOM      4  C   UNL     1      46.948   6.849  12.120  0.00  0.00    +0.000 A 
ATOM      5  C   UNL     1      45.573   6.714  11.880  0.00  0.00    +0.000 A 
ATOM      6  C   UNL     1      44.834   5.734  12.551  0.00  0.00    +0.000 A 
ATOM      7  C   UNL     1      45.508   4.930  13.480  0.00  0.00    +0.000 A 
BRANCH   2   8
ATOM      8  O   UNL     1      47.545   4.255  14.625  0.00  0.00    +0.000 OA
BRANCH   8  13
ATOM      9  C   UNL     1      48.402   3.112  18.872  0.00  0.00    +0.000 C 
ATOM     10  C   UNL     1      48.416   3.290  17.361  0.00  0.00    +0.000 C 
ATOM     11  C   UNL     1      49.216   2.200  16.656  0.00  0.00    +0.000 C 
ATOM     12  C   UNL     1      48.642   4.730  16.858  0.00  0.00    +0.000 C 
ATOM     13  C   UNL     1      47.358   4.499  16.044  0.00  0.00    +0.000 C 
ATOM     14  O   UNL     1      47.060   3.317  16.850  0.00  0.00    +0.000 OA
ENDBRANCH   8  13
ENDBRANCH   2   8
ENDBRANCH   1   6
BRANCH   1  15
ATOM     15  C   UNL     1      43.077   4.536  11.124  0.00  0.00    +0.000 C 
BRANCH  15  16
ATOM     16  N   UNL     1      43.712   4.882   9.854  0.00  0.00    +0.000 N 
ATOM     17  H   UNL     1      44.119   5.813   9.834  0.00  0.00    +0.000 HD
BRANCH  16  18
ATOM     18  C   UNL     1      44.584   3.922   9.302  0.00  0.00    +0.000 A 
ATOM     19  C   UNL     1      44.487   2.543   9.547  0.00  0.00    +0.000 A 
ATOM     20  C   UNL     1      45.328   1.625   8.909  0.00  0.00    +0.000 A 
ATOM     21  C   UNL     1      46.263   2.062   7.972  0.00  0.00    +0.000 A 
ATOM     22  C   UNL     1      46.367   3.431   7.700  0.00  0.00    +0.000 A 
ATOM     23  C   UNL     1      45.530   4.344   8.358  0.00  0.00    +0.000 A 
BRANCH  21  24
ATOM     24  C   UNL     1      47.113   1.042   7.303  0.00  0.00    +0.000 C 
ATOM     25  N   UNL     1      46.808  -0.273   7.525  0.00  0.00    +0.000 N 
ATOM     26  O   UNL     1      48.076   1.353   6.616  0.00  0.00    +0.000 OA
ATOM     27  H   UNL     1      46.196  -0.567   8.272  0.00  0.00    +0.000 HD
ATOM     28  H   UNL     1      47.473  -0.947   7.168  0.00  0.00    +0.000 HD
ENDBRANCH  21  24
ENDBRANCH  16  18
ENDBRANCH  15  16
ENDBRANCH   1  15
TORSDOF 7
ENDMDL
MODEL 2
REMARK VINA RESULT:    -8.895      0.985      1.344
REMARK INTER + INTRA:         -13.387
REMARK INTER:                 -12.333
REMARK INTRA:                  -1.053
REMARK UNBOUND:                -0.852
REMARK  Name = 
REMARK  9 active torsions:
REMARK  status: ('A' for Active; 'I' for Inactive)
REMARK    1  A    between atoms: C_1  and  C_2
REMARK    2  A    between atoms: C_2  and  C_3
REMARK    3  A    between atoms: C_5  and  O_6
REMARK    4  A    between atoms: O_6  and  C_7
REMARK    5  A    between atoms: C_11  and  C_12
REMARK    6  A    between atoms: C_12  and  C_13
REMARK    7  A    between atoms: C_13  and  N_14
REMARK    8  A    between atoms: N_14  and  C_15
REMARK    9  A    between atoms: C_18  and  C_19
REMARK                            x       y       z     vdW  Elec       q    Type
REMARK                         _______ _______ _______ _____ _____    ______ ____
ROOT
ATOM      1  C   UNL     1      43.494   5.820  12.039  0.00  0.00    +0.000 C 
ENDROOT
BRANCH   1   6
ATOM      2  C   UNL     1      46.818   4.906  13.750  0.00  0.00    +0.000 A 
ATOM      3  C   UNL     1      47.704   5.767  13.112  0.00  0.00    +0.000 A 
ATOM      4  C   UNL     1      47.225   6.679  12.165  0.00  0.00    +0.000 A 
ATOM      5  C   UNL     1      45.864   6.715  11.830  0.00  0.00    +0.000 A 
ATOM      6  C   UNL     1      44.966   5.830  12.435  0.00  0.00    +0.000 A 
ATOM      7  C   UNL     1      45.472   4.943  13.397  0.00  0.00    +0.000 A 
BRANCH   2   8
ATOM      8  O   UNL     1      47.327   4.017  14.668  0.00  0.00    +0.000 OA
BRANCH   8  13
ATOM      9  C   UNL     1      48.497   3.245  18.924  0.00  0.00    +0.000 C 
ATOM     10  C   UNL     1      48.416   3.315  17.407  0.00  0.00    +0.000 C 
ATOM     11  C   UNL     1      49.255   2.237  16.730  0.00  0.00    +0.000 C 
ATOM     12  C   UNL     1      48.505   4.728  16.795  0.00  0.00    +0.000 C 
ATOM     13  C   UNL     1      47.200   4.348  16.076  0.00  0.00    +0.000 C 
ATOM     14  O   UNL     1      47.035   3.209  16.976  0.00  0.00    +0.000 OA
ENDBRANCH   8  13
ENDBRANCH   2   8
ENDBRANCH   1   6
BRANCH   1  15
ATOM     15  C   UNL     1      43.229   5.137  10.686  0.00  0.00    +0.000 C 
BRANCH  15  16
ATOM     16  N   UNL     1      43.702   3.756  10.611  0.00  0.00    +0.000 N 
ATOM     17  H   UNL     1      42.968   3.060  10.707  0.00  0.00    +0.000 HD
BRANCH  16  18
ATOM     18  C   UNL     1      44.577   3.445   9.552  0.00  0.00    +0.000 A 
ATOM     19  C   UNL     1      45.256   4.407   8.788  0.00  0.00    +0.000 A 
ATOM     20  C   UNL     1      46.177   4.043   7.799  0.00  0.00    +0.000 A 
ATOM     21  C   UNL     1      46.475   2.699   7.580  0.00  0.00    +0.000 A 
ATOM     22  C   UNL     1      45.822   1.722   8.339  0.00  0.00    +0.000 A 
ATOM     23  C   UNL     1      44.888   2.099   9.317  0.00  0.00    +0.000 A 
BRANCH  21  24
ATOM     24  C   UNL     1      47.481   2.367   6.536  0.00  0.00    +0.000 C 
ATOM     25  N   UNL     1      47.405   3.048   5.352  0.00  0.00    +0.000 N 
ATOM     26  O   UNL     1      48.318   1.492   6.701  0.00  0.00    +0.000 OA
ATOM     27  H   UNL     1      46.591   3.583   5.087  0.00  0.00    +0.000 HD
ATOM     28  H   UNL     1      48.013   2.719   4.613  0.00  0.00    +0.000 HD
ENDBRANCH  21  24
ENDBRANCH  16  18
ENDBRANCH  15  16
ENDBRANCH   1  15
TORSDOF 7
ENDMDL
MODEL 3
REMARK VINA RESULT:    -7.749      1.833      2.361
REMARK INTER + INTRA:         -11.772
REMARK INTER:                 -11.074
REMARK INTRA:                  -0.698
REMARK UNBOUND:                -0.852
REMARK  Name = 
REMARK  9 active torsions:
REMARK  status: ('A' for Active; 'I' for Inactive)
REMARK    1  A    between atoms: C_1  and  C_2
REMARK    2  A    between atoms: C_2  and  C_3
REMARK    3  A    between atoms: C_5  and  O_6
REMARK    4  A    between atoms: O_6  and  C_7
REMARK    5  A    between atoms: C_11  and  C_12
REMARK    6  A    between atoms: C_12  and  C_13
REMARK    7  A    between atoms: C_13  and  N_14
REMARK    8  A    between atoms: N_14  and  C_15
REMARK    9  A    between atoms: C_18  and  C_19
REMARK                            x       y       z     vdW  Elec       q    Type
REMARK                         _______ _______ _______ _____ _____    ______ ____
ROOT
ATOM      1  C   UNL     1      45.087   4.469  11.963  0.00  0.00    +0.000 C 
ENDROOT
BRANCH   1   6
ATOM      2  C   UNL     1      47.999   6.165  13.821  0.00  0.00    +0.000 A 
ATOM      3  C   UNL     1      48.347   7.173  12.929  0.00  0.00    +0.000 A 
ATOM      4  C   UNL     1      47.612   7.341  11.750  0.00  0.00    +0.000 A 
ATOM      5  C   UNL     1      46.545   6.485  11.444  0.00  0.00    +0.000 A 
ATOM      6  C   UNL     1      46.207   5.442  12.312  0.00  0.00    +0.000 A 
ATOM      7  C   UNL     1      46.947   5.313  13.496  0.00  0.00    +0.000 A 
BRANCH   2   8
ATOM      8  O   UNL     1      48.751   6.024  14.965  0.00  0.00    +0.000 OA
BRANCH   8  13
ATOM      9  C   UNL     1      50.305   8.525  18.342  0.00  0.00    +0.000 C 
ATOM     10  C   UNL     1      49.729   7.421  17.468  0.00  0.00    +0.000 C 
ATOM     11  C   UNL     1      48.949   6.390  18.276  0.00  0.00    +0.000 C 
ATOM     12  C   UNL     1      50.674   6.862  16.385  0.00  0.00    +0.000 C 
ATOM     13  C   UNL     1      49.519   7.170  15.417  0.00  0.00    +0.000 C 
ATOM     14  O   UNL     1      48.879   7.991  16.441  0.00  0.00    +0.000 OA
ENDBRANCH   8  13
ENDBRANCH   2   8
ENDBRANCH   1   6
BRANCH   1  15
ATOM     15  C   UNL     1      43.872   5.144  11.303  0.00  0.00    +0.000 C 
BRANCH  15  16
ATOM     16  N   UNL     1      43.790   4.944   9.858  0.00  0.00    +0.000 N 
ATOM     17  H   UNL     1      43.811   5.805   9.318  0.00  0.00    +0.000 HD
BRANCH  16  18
ATOM     18  C   UNL     1      44.639   3.965   9.306  0.00  0.00    +0.000 A 
ATOM     19  C   UNL     1      44.499   2.587   9.536  0.00  0.00    +0.000 A 
ATOM     20  C   UNL     1      45.320   1.651   8.898  0.00  0.00    +0.000 A 
ATOM     21  C   UNL     1      46.278   2.069   7.976  0.00  0.00    +0.000 A 
ATOM     22  C   UNL     1      46.426   3.437   7.720  0.00  0.00    +0.000 A 
ATOM     23  C   UNL     1      45.608   4.368   8.377  0.00  0.00    +0.000 A 
BRANCH  21  24
ATOM     24  C   UNL     1      47.106   1.031   7.307  0.00  0.00    +0.000 C 
ATOM     25  N   UNL     1      46.881  -0.272   7.655  0.00  0.00    +0.000 N 
ATOM     26  O   UNL     1      47.985   1.322   6.508  0.00  0.00    +0.000 OA
ATOM     27  H   UNL     1      46.355  -0.529   8.478  0.00  0.00    +0.000 HD
ATOM     28  H   UNL     1      47.538  -0.948   7.288  0.00  0.00    +0.000 HD
ENDBRANCH  21  24
ENDBRANCH  16  18
ENDBRANCH  15  16
ENDBRANCH   1  15
TORSDOF 7
ENDMDL
MODEL 4
REMARK VINA RESULT:    -7.328      3.048      4.801
REMARK INTER + INTRA:         -11.179
REMARK INTER:                 -10.275
REMARK INTRA:                  -0.903
REMARK UNBOUND:                -0.852
REMARK  Name = 
REMARK  9 active torsions:
REMARK  status: ('A' for Active; 'I' for Inactive)
REMARK    1  A    between atoms: C_1  and  C_2
REMARK    2  A    between atoms: C_2  and  C_3
REMARK    3  A    between atoms: C_5  and  O_6
REMARK    4  A    between atoms: O_6  and  C_7
REMARK    5  A    between atoms: C_11  and  C_12
REMARK    6  A    between atoms: C_12  and  C_13
REMARK    7  A    between atoms: C_13  and  N_14
REMARK    8  A    between atoms: N_14  and  C_15
REMARK    9  A    between atoms: C_18  and  C_19
REMARK                            x       y       z     vdW  Elec       q    Type
REMARK                         _______ _______ _______ _____ _____    ______ ____
ROOT
ATOM      1  C   UNL     1      45.094   4.834  12.091  0.00  0.00    +0.000 C 
ENDROOT
BRANCH   1   6
ATOM      2  C   UNL     1      48.133   7.163  12.488  0.00  0.00    +0.000 A 
ATOM      3  C   UNL     1      48.565   6.838  13.769  0.00  0.00    +0.000 A 
ATOM      4  C   UNL     1      47.909   5.833  14.489  0.00  0.00    +0.000 A 
ATOM      5  C   UNL     1      46.802   5.168  13.944  0.00  0.00    +0.000 A 
ATOM      6  C   UNL     1      46.332   5.509  12.672  0.00  0.00    +0.000 A 
ATOM      7  C   UNL     1      47.023   6.504  11.965  0.00  0.00    +0.000 A 
BRANCH   2   8
ATOM      8  O   UNL     1      48.796   8.163  11.815  0.00  0.00    +0.000 OA
BRANCH   8  13
ATOM      9  C   UNL     1      52.593  10.455  11.182  0.00  0.00    +0.000 C 
ATOM     10  C   UNL     1      51.145  10.007  11.309  0.00  0.00    +0.000 C 
ATOM     11  C   UNL     1      50.185  10.926  10.561  0.00  0.00    +0.000 C 
ATOM     12  C   UNL     1      50.701   9.565  12.718  0.00  0.00    +0.000 C 
ATOM     13  C   UNL     1      50.228   8.282  12.016  0.00  0.00    +0.000 C 
ATOM     14  O   UNL     1      51.000   8.646  10.830  0.00  0.00    +0.000 OA
ENDBRANCH   8  13
ENDBRANCH   2   8
ENDBRANCH   1   6
BRANCH   1  15
ATOM     15  C   UNL     1      44.365   5.689  11.041  0.00  0.00    +0.000 C 
BRANCH  15  16
ATOM     16  N   UNL     1      43.833   4.927   9.914  0.00  0.00    +0.000 N 
ATOM     17  H   UNL     1      43.309   5.485   9.246  0.00  0.00    +0.000 HD
BRANCH  16  18
ATOM     18  C   UNL     1      44.725   4.047   9.270  0.00  0.00    +0.000 A 
ATOM     19  C   UNL     1      44.640   2.648   9.350  0.00  0.00    +0.000 A 
ATOM     20  C   UNL     1      45.502   1.818   8.624  0.00  0.00    +0.000 A 
ATOM     21  C   UNL     1      46.447   2.371   7.761  0.00  0.00    +0.000 A 
ATOM     22  C   UNL     1      46.540   3.763   7.653  0.00  0.00    +0.000 A 
ATOM     23  C   UNL     1      45.681   4.585   8.398  0.00  0.00    +0.000 A 
BRANCH  21  24
ATOM     24  C   UNL     1      47.319   1.444   6.993  0.00  0.00    +0.000 C 
ATOM     25  N   UNL     1      48.393   1.986   6.343  0.00  0.00    +0.000 N 
ATOM     26  O   UNL     1      47.072   0.250   6.903  0.00  0.00    +0.000 OA
ATOM     27  H   UNL     1      48.485   2.980   6.185  0.00  0.00    +0.000 HD
ATOM     28  H   UNL     1      48.896   1.364   5.724  0.00  0.00    +0.000 HD
ENDBRANCH  21  24
ENDBRANCH  16  18
ENDBRANCH  15  16
ENDBRANCH   1  15
TORSDOF 7
ENDMDL
MODEL 5
REMARK VINA RESULT:    -6.783      2.925      8.005
REMARK INTER + INTRA:         -10.411
REMARK INTER:                  -9.451
REMARK INTRA:                  -0.960
REMARK UNBOUND:                -0.852
REMARK  Name = 
REMARK  9 active torsions:
REMARK  status: ('A' for Active; 'I' for Inactive)
REMARK    1  A    between atoms: C_1  and  C_2
REMARK    2  A    between atoms: C_2  and  C_3
REMARK    3  A    between atoms: C_5  and  O_6
REMARK    4  A    between atoms: O_6  and  C_7
REMARK    5  A    between atoms: C_11  and  C_12
REMARK    6  A    between atoms: C_12  and  C_13
REMARK    7  A    between atoms: C_13  and  N_14
REMARK    8  A    between atoms: N_14  and  C_15
REMARK    9  A    between atoms: C_18  and  C_19
REMARK                            x       y       z     vdW  Elec       q    Type
REMARK                         _______ _______ _______ _____ _____    ______ ____
ROOT
ATOM      1  C   UNL     1      46.643   7.797  12.030  0.00  0.00    +0.000 C 
ENDROOT
BRANCH   1   6
ATOM      2  C   UNL     1      44.970   4.634  10.612  0.00  0.00    +0.000 A 
ATOM      3  C   UNL     1      43.878   4.495  11.460  0.00  0.00    +0.000 A 
ATOM      4  C   UNL     1      43.649   5.447  12.460  0.00  0.00    +0.000 A 
ATOM      5  C   UNL     1      44.526   6.527  12.634  0.00  0.00    +0.000 A 
ATOM      6  C   UNL     1      45.651   6.660  11.814  0.00  0.00    +0.000 A 
ATOM      7  C   UNL     1      45.840   5.704  10.806  0.00  0.00    +0.000 A 
BRANCH   2   8
ATOM      8  O   UNL     1      45.168   3.674   9.647  0.00  0.00    +0.000 OA
BRANCH   8  13
ATOM      9  C   UNL     1      46.870   2.928   5.570  0.00  0.00    +0.000 C 
ATOM     10  C   UNL     1      46.342   2.810   6.992  0.00  0.00    +0.000 C 
ATOM     11  C   UNL     1      46.825   1.541   7.687  0.00  0.00    +0.000 C 
ATOM     12  C   UNL     1      44.854   3.165   7.186  0.00  0.00    +0.000 C 
ATOM     13  C   UNL     1      45.367   4.117   8.279  0.00  0.00    +0.000 C 
ATOM     14  O   UNL     1      46.727   3.974   7.765  0.00  0.00    +0.000 OA
ENDBRANCH   8  13
ENDBRANCH   2   8
ENDBRANCH   1   6
BRANCH   1  15
ATOM     15  C   UNL     1      48.034   7.319  12.480  0.00  0.00    +0.000 C 
BRANCH  15  16
ATOM     16  N   UNL     1      48.357   7.646  13.867  0.00  0.00    +0.000 N 
ATOM     17  H   UNL     1      47.867   8.460  14.227  0.00  0.00    +0.000 HD
BRANCH  16  18
ATOM     18  C   UNL     1      48.339   6.580  14.789  0.00  0.00    +0.000 A 
ATOM     19  C   UNL     1      49.017   6.595  16.018  0.00  0.00    +0.000 A 
ATOM     20  C   UNL     1      48.900   5.543  16.933  0.00  0.00    +0.000 A 
ATOM     21  C   UNL     1      48.061   4.464  16.658  0.00  0.00    +0.000 A 
ATOM     22  C   UNL     1      47.364   4.434  15.446  0.00  0.00    +0.000 A 
ATOM     23  C   UNL     1      47.501   5.487  14.529  0.00  0.00    +0.000 A 
BRANCH  21  24
ATOM     24  C   UNL     1      47.952   3.386  17.676  0.00  0.00    +0.000 C 
ATOM     25  N   UNL     1      46.788   2.670  17.710  0.00  0.00    +0.000 N 
ATOM     26  O   UNL     1      48.843   3.170  18.486  0.00  0.00    +0.000 OA
ATOM     27  H   UNL     1      45.949   2.978  17.241  0.00  0.00    +0.000 HD
ATOM     28  H   UNL     1      46.683   2.032  18.489  0.00  0.00    +0.000 HD
ENDBRANCH  21  24
ENDBRANCH  16  18
ENDBRANCH  15  16
ENDBRANCH   1  15
TORSDOF 7
ENDMDL
MODEL 6
REMARK VINA RESULT:    -6.596      3.702      7.964
REMARK INTER + INTRA:         -10.147
REMARK INTER:                  -9.540
REMARK INTRA:                  -0.606
REMARK UNBOUND:                -0.852
REMARK  Name = 
REMARK  9 active torsions:
REMARK  status: ('A' for Active; 'I' for Inactive)
REMARK    1  A    between atoms: C_1  and  C_2
REMARK    2  A    between atoms: C_2  and  C_3
REMARK    3  A    between atoms: C_5  and  O_6
REMARK    4  A    between atoms: O_6  and  C_7
REMARK    5  A    between atoms: C_11  and  C_12
REMARK    6  A    between atoms: C_12  and  C_13
REMARK    7  A    between atoms: C_13  and  N_14
REMARK    8  A    between atoms: N_14  and  C_15
REMARK    9  A    between atoms: C_18  and  C_19
REMARK                            x       y       z     vdW  Elec       q    Type
REMARK                         _______ _______ _______ _____ _____    ______ ____
ROOT
ATOM      1  C   UNL     1      48.322   5.929  14.362  0.00  0.00    +0.000 C 
ENDROOT
BRANCH   1   6
ATOM      2  C   UNL     1      44.810   5.530  12.839  0.00  0.00    +0.000 A 
ATOM      3  C   UNL     1      44.631   6.765  12.227  0.00  0.00    +0.000 A 
ATOM      4  C   UNL     1      45.661   7.712  12.261  0.00  0.00    +0.000 A 
ATOM      5  C   UNL     1      46.863   7.439  12.929  0.00  0.00    +0.000 A 
ATOM      6  C   UNL     1      47.043   6.215  13.582  0.00  0.00    +0.000 A 
ATOM      7  C   UNL     1      46.003   5.278  13.512  0.00  0.00    +0.000 A 
BRANCH   2   8
ATOM      8  O   UNL     1      43.772   4.628  12.793  0.00  0.00    +0.000 OA
BRANCH   8  13
ATOM      9  C   UNL     1      44.438   1.954   9.260  0.00  0.00    +0.000 C 
ATOM     10  C   UNL     1      44.291   3.133  10.211  0.00  0.00    +0.000 C 
ATOM     11  C   UNL     1      44.056   4.446   9.473  0.00  0.00    +0.000 C 
ATOM     12  C   UNL     1      45.296   3.181  11.379  0.00  0.00    +0.000 C 
ATOM     13  C   UNL     1      44.046   3.303  12.266  0.00  0.00    +0.000 C 
ATOM     14  O   UNL     1      43.208   2.889  11.144  0.00  0.00    +0.000 OA
ENDBRANCH   8  13
ENDBRANCH   2   8
ENDBRANCH   1   6
BRANCH   1  15
ATOM     15  C   UNL     1      48.423   6.712  15.682  0.00  0.00    +0.000 C 
BRANCH  15  16
ATOM     16  N   UNL     1      48.164   5.908  16.874  0.00  0.00    +0.000 N 
ATOM     17  H   UNL     1      47.203   5.586  16.956  0.00  0.00    +0.000 HD
BRANCH  16  18
ATOM     18  C   UNL     1      49.083   4.877  17.153  0.00  0.00    +0.000 A 
ATOM     19  C   UNL     1      48.745   3.514  17.184  0.00  0.00    +0.000 A 
ATOM     20  C   UNL     1      49.713   2.524  17.386  0.00  0.00    +0.000 A 
ATOM     21  C   UNL     1      51.056   2.872  17.519  0.00  0.00    +0.000 A 
ATOM     22  C   UNL     1      51.418   4.223  17.477  0.00  0.00    +0.000 A 
ATOM     23  C   UNL     1      50.437   5.209  17.290  0.00  0.00    +0.000 A 
BRANCH  21  24
ATOM     24  C   UNL     1      52.047   1.779  17.705  0.00  0.00    +0.000 C 
ATOM     25  N   UNL     1      51.560   0.526  17.955  0.00  0.00    +0.000 N 
ATOM     26  O   UNL     1      53.252   1.989  17.681  0.00  0.00    +0.000 OA
ATOM     27  H   UNL     1      50.602   0.363  18.231  0.00  0.00    +0.000 HD
ATOM     28  H   UNL     1      52.247  -0.173  18.205  0.00  0.00    +0.000 HD
ENDBRANCH  21  24
ENDBRANCH  16  18
ENDBRANCH  15  16
ENDBRANCH   1  15
TORSDOF 7
ENDMDL
MODEL 7
REMARK VINA RESULT:    -6.544      2.778      4.348
REMARK INTER + INTRA:         -10.074
REMARK INTER:                  -9.075
REMARK INTRA:                  -0.999
REMARK UNBOUND:                -0.852
REMARK  Name = 
REMARK  9 active torsions:
REMARK  status: ('A' for Active; 'I' for Inactive)
REMARK    1  A    between atoms: C_1  and  C_2
REMARK    2  A    between atoms: C_2  and  C_3
REMARK    3  A    between atoms: C_5  and  O_6
REMARK    4  A    between atoms: O_6  and  C_7
REMARK    5  A    between atoms: C_11  and  C_12
REMARK    6  A    between atoms: C_12  and  C_13
REMARK    7  A    between atoms: C_13  and  N_14
REMARK    8  A    between atoms: N_14  and  C_15
REMARK    9  A    between atoms: C_18  and  C_19
REMARK                            x       y       z     vdW  Elec       q    Type
REMARK                         _______ _______ _______ _____ _____    ______ ____
ROOT
ATOM      1  C   UNL     1      48.373   7.966  11.968  0.00  0.00    +0.000 C 
ENDROOT
BRANCH   1   6
ATOM      2  C   UNL     1      50.132   6.986  15.248  0.00  0.00    +0.000 A 
ATOM      3  C   UNL     1      51.226   7.843  15.243  0.00  0.00    +0.000 A 
ATOM      4  C   UNL     1      51.374   8.773  14.208  0.00  0.00    +0.000 A 
ATOM      5  C   UNL     1      50.444   8.832  13.160  0.00  0.00    +0.000 A 
ATOM      6  C   UNL     1      49.358   7.951  13.131  0.00  0.00    +0.000 A 
ATOM      7  C   UNL     1      49.225   7.046  14.194  0.00  0.00    +0.000 A 
BRANCH   2   8
ATOM      8  O   UNL     1      50.025   6.078  16.277  0.00  0.00    +0.000 OA
BRANCH   8  13
ATOM      9  C   UNL     1      47.325   2.794  17.691  0.00  0.00    +0.000 C 
ATOM     10  C   UNL     1      48.511   3.682  17.345  0.00  0.00    +0.000 C 
ATOM     11  C   UNL     1      49.820   2.903  17.284  0.00  0.00    +0.000 C 
ATOM     12  C   UNL     1      48.563   5.043  18.067  0.00  0.00    +0.000 C 
ATOM     13  C   UNL     1      48.696   5.632  16.654  0.00  0.00    +0.000 C 
ATOM     14  O   UNL     1      48.277   4.355  16.082  0.00  0.00    +0.000 OA
ENDBRANCH   8  13
ENDBRANCH   2   8
ENDBRANCH   1   6
BRANCH   1  15
ATOM     15  C   UNL     1      47.018   8.602  12.321  0.00  0.00    +0.000 C 
BRANCH  15  16
ATOM     16  N   UNL     1      46.186   7.786  13.202  0.00  0.00    +0.000 N 
ATOM     17  H   UNL     1      45.441   8.300  13.664  0.00  0.00    +0.000 HD
BRANCH  16  18
ATOM     18  C   UNL     1      45.723   6.562  12.678  0.00  0.00    +0.000 A 
ATOM     19  C   UNL     1      45.856   5.328  13.334  0.00  0.00    +0.000 A 
ATOM     20  C   UNL     1      45.306   4.154  12.808  0.00  0.00    +0.000 A 
ATOM     21  C   UNL     1      44.568   4.194  11.626  0.00  0.00    +0.000 A 
ATOM     22  C   UNL     1      44.410   5.414  10.961  0.00  0.00    +0.000 A 
ATOM     23  C   UNL     1      44.979   6.583  11.490  0.00  0.00    +0.000 A 
BRANCH  21  24
ATOM     24  C   UNL     1      43.984   2.922  11.124  0.00  0.00    +0.000 C 
ATOM     25  N   UNL     1      44.604   2.320  10.064  0.00  0.00    +0.000 N 
ATOM     26  O   UNL     1      42.963   2.447  11.603  0.00  0.00    +0.000 OA
ATOM     27  H   UNL     1      45.281   2.801   9.490  0.00  0.00    +0.000 HD
ATOM     28  H   UNL     1      44.119   1.531   9.658  0.00  0.00    +0.000 HD
ENDBRANCH  21  24
ENDBRANCH  16  18
ENDBRANCH  15  16
ENDBRANCH   1  15
TORSDOF 7
ENDMDL
MODEL 8
REMARK VINA RESULT:    -6.476      3.454      8.599
REMARK INTER + INTRA:          -9.978
REMARK INTER:                  -9.376
REMARK INTRA:                  -0.603
REMARK UNBOUND:                -0.852
REMARK  Name = 
REMARK  9 active torsions:
REMARK  status: ('A' for Active; 'I' for Inactive)
REMARK    1  A    between atoms: C_1  and  C_2
REMARK    2  A    between atoms: C_2  and  C_3
REMARK    3  A    between atoms: C_5  and  O_6
REMARK    4  A    between atoms: O_6  and  C_7
REMARK    5  A    between atoms: C_11  and  C_12
REMARK    6  A    between atoms: C_12  and  C_13
REMARK    7  A    between atoms: C_13  and  N_14
REMARK    8  A    between atoms: N_14  and  C_15
REMARK    9  A    between atoms: C_18  and  C_19
REMARK                            x       y       z     vdW  Elec       q    Type
REMARK                         _______ _______ _______ _____ _____    ______ ____
ROOT
ATOM      1  C   UNL     1      45.942   5.447  13.951  0.00  0.00    +0.000 C 
ENDROOT
BRANCH   1   6
ATOM      2  C   UNL     1      44.819   4.027  10.554  0.00  0.00    +0.000 A 
ATOM      3  C   UNL     1      43.513   4.498  10.475  0.00  0.00    +0.000 A 
ATOM      4  C   UNL     1      43.007   5.316  11.492  0.00  0.00    +0.000 A 
ATOM      5  C   UNL     1      43.794   5.643  12.605  0.00  0.00    +0.000 A 
ATOM      6  C   UNL     1      45.097   5.146  12.718  0.00  0.00    +0.000 A 
ATOM      7  C   UNL     1      45.583   4.349  11.673  0.00  0.00    +0.000 A 
BRANCH   2   8
ATOM      8  O   UNL     1      45.278   3.219   9.541  0.00  0.00    +0.000 OA
BRANCH   8  13
ATOM      9  C   UNL     1      47.035   3.003   5.424  0.00  0.00    +0.000 C 
ATOM     10  C   UNL     1      46.513   2.707   6.822  0.00  0.00    +0.000 C 
ATOM     11  C   UNL     1      47.078   1.409   7.390  0.00  0.00    +0.000 C 
ATOM     12  C   UNL     1      45.004   2.942   7.038  0.00  0.00    +0.000 C 
ATOM     13  C   UNL     1      45.450   3.810   8.226  0.00  0.00    +0.000 C 
ATOM     14  O   UNL     1      46.818   3.810   7.712  0.00  0.00    +0.000 OA
ENDBRANCH   8  13
ENDBRANCH   2   8
ENDBRANCH   1   6
BRANCH   1  15
ATOM     15  C   UNL     1      46.914   4.313  14.319  0.00  0.00    +0.000 C 
BRANCH  15  16
ATOM     16  N   UNL     1      46.808   3.863  15.705  0.00  0.00    +0.000 N 
ATOM     17  H   UNL     1      46.213   3.049  15.832  0.00  0.00    +0.000 HD
BRANCH  16  18
ATOM     18  C   UNL     1      48.014   3.741  16.424  0.00  0.00    +0.000 A 
ATOM     19  C   UNL     1      48.666   2.521  16.658  0.00  0.00    +0.000 A 
ATOM     20  C   UNL     1      49.904   2.464  17.308  0.00  0.00    +0.000 A 
ATOM     21  C   UNL     1      50.544   3.638  17.702  0.00  0.00    +0.000 A 
ATOM     22  C   UNL     1      49.920   4.868  17.466  0.00  0.00    +0.000 A 
ATOM     23  C   UNL     1      48.671   4.912  16.827  0.00  0.00    +0.000 A 
BRANCH  21  24
ATOM     24  C   UNL     1      51.870   3.523  18.365  0.00  0.00    +0.000 C 
ATOM     25  N   UNL     1      52.669   2.476  17.995  0.00  0.00    +0.000 N 
ATOM     26  O   UNL     1      52.226   4.302  19.238  0.00  0.00    +0.000 OA
ATOM     27  H   UNL     1      52.316   1.684  17.477  0.00  0.00    +0.000 HD
ATOM     28  H   UNL     1      53.506   2.342  18.546  0.00  0.00    +0.000 HD
ENDBRANCH  21  24
ENDBRANCH  16  18
ENDBRANCH  15  16
ENDBRANCH   1  15
TORSDOF 7
ENDMDL
MODEL 9
REMARK VINA RESULT:    -6.419      2.837      3.572
REMARK INTER + INTRA:          -9.898
REMARK INTER:                  -9.231
REMARK INTRA:                  -0.667
REMARK UNBOUND:                -0.852
REMARK  Name = 
REMARK  9 active torsions:
REMARK  status: ('A' for Active; 'I' for Inactive)
REMARK    1  A    between atoms: C_1  and  C_2
REMARK    2  A    between atoms: C_2  and  C_3
REMARK    3  A    between atoms: C_5  and  O_6
REMARK    4  A    between atoms: O_6  and  C_7
REMARK    5  A    between atoms: C_11  and  C_12
REMARK    6  A    between atoms: C_12  and  C_13
REMARK    7  A    between atoms: C_13  and  N_14
REMARK    8  A    between atoms: N_14  and  C_15
REMARK    9  A    between atoms: C_18  and  C_19
REMARK                            x       y       z     vdW  Elec       q    Type
REMARK                         _______ _______ _______ _____ _____    ______ ____
ROOT
ATOM      1  C   UNL     1      45.767   6.160  11.924  0.00  0.00    +0.000 C 
ENDROOT
BRANCH   1   6
ATOM      2  C   UNL     1      48.220   8.761  13.350  0.00  0.00    +0.000 A 
ATOM      3  C   UNL     1      47.646   9.950  12.916  0.00  0.00    +0.000 A 
ATOM      4  C   UNL     1      46.440   9.920  12.206  0.00  0.00    +0.000 A 
ATOM      5  C   UNL     1      45.818   8.701  11.902  0.00  0.00    +0.000 A 
ATOM      6  C   UNL     1      46.403   7.494  12.298  0.00  0.00    +0.000 A 
ATOM      7  C   UNL     1      47.599   7.557  13.028  0.00  0.00    +0.000 A 
BRANCH   2   8
ATOM      8  O   UNL     1      49.410   8.829  14.037  0.00  0.00    +0.000 OA
BRANCH   8  13
ATOM      9  C   UNL     1      52.276   6.498  16.572  0.00  0.00    +0.000 C 
ATOM     10  C   UNL     1      51.290   7.513  16.014  0.00  0.00    +0.000 C 
ATOM     11  C   UNL     1      51.351   8.846  16.752  0.00  0.00    +0.000 C 
ATOM     12  C   UNL     1      49.880   6.976  15.698  0.00  0.00    +0.000 C 
ATOM     13  C   UNL     1      50.110   7.586  14.306  0.00  0.00    +0.000 C 
ATOM     14  O   UNL     1      51.535   7.719  14.600  0.00  0.00    +0.000 OA
ENDBRANCH   8  13
ENDBRANCH   2   8
ENDBRANCH   1   6
BRANCH   1  15
ATOM     15  C   UNL     1      44.925   6.222  10.638  0.00  0.00    +0.000 C 
BRANCH  15  16
ATOM     16  N   UNL     1      44.307   4.951  10.268  0.00  0.00    +0.000 N 
ATOM     17  H   UNL     1      43.319   5.021  10.038  0.00  0.00    +0.000 HD
BRANCH  16  18
ATOM     18  C   UNL     1      45.002   4.159   9.331  0.00  0.00    +0.000 A 
ATOM     19  C   UNL     1      45.859   4.680   8.349  0.00  0.00    +0.000 A 
ATOM     20  C   UNL     1      46.588   3.844   7.496  0.00  0.00    +0.000 A 
ATOM     21  C   UNL     1      46.511   2.459   7.635  0.00  0.00    +0.000 A 
ATOM     22  C   UNL     1      45.675   1.918   8.617  0.00  0.00    +0.000 A 
ATOM     23  C   UNL     1      44.936   2.765   9.457  0.00  0.00    +0.000 A 
BRANCH  21  24
ATOM     24  C   UNL     1      47.328   1.618   6.720  0.00  0.00    +0.000 C 
ATOM     25  N   UNL     1      48.303   2.244   5.994  0.00  0.00    +0.000 N 
ATOM     26  O   UNL     1      47.116   0.422   6.581  0.00  0.00    +0.000 OA
ATOM     27  H   UNL     1      48.340   3.248   5.891  0.00  0.00    +0.000 HD
ATOM     28  H   UNL     1      48.758   1.682   5.287  0.00  0.00    +0.000 HD
ENDBRANCH  21  24
ENDBRANCH  16  18
ENDBRANCH  15  16
ENDBRANCH   1  15
TORSDOF 7
ENDMDL
