MODEL 1
REMARK VINA RESULT:    -8.412      0.000      0.000
REMARK INTER + INTRA:         -11.246
REMARK INTER:                 -10.625
REMARK INTRA:                  -0.622
REMARK UNBOUND:                -0.622
REMARK  Name = 
REMARK  5 active torsions:
REMARK  status: ('A' for Active; 'I' for Inactive)
REMARK    1  A    between atoms: C_2  and  C_4
REMARK    2  A    between atoms: N_8  and  C_9
REMARK    3  A    between atoms: C_9  and  C_10
REMARK    4  A    between atoms: C_14  and  N_15
REMARK    5  A    between atoms: C_18  and  O_19
REMARK                            x       y       z     vdW  Elec       q    Type
REMARK                         _______ _______ _______ _____ _____    ______ ____
ROOT
ATOM      1  C   UNL     1      43.457   4.862  11.006  0.00  0.00    +0.000 C 
ENDROOT
BRANCH   1   6
ATOM      2  C   UNL     1      46.505   2.723   7.493  0.00  0.00    +0.000 A 
ATOM      3  C   UNL     1      46.084   4.035   7.669  0.00  0.00    +0.000 A 
ATOM      4  C   UNL     1      45.232   4.337   8.730  0.00  0.00    +0.000 A 
ATOM      5  C   UNL     1      44.813   3.333   9.601  0.00  0.00    +0.000 A 
ATOM      6  N   UNL     1      43.994   3.567  10.674  0.00  0.00    +0.000 N 
ATOM      7  N   UNL     1      45.205   2.056   9.427  0.00  0.00    +0.000 NA
ATOM      8  C   UNL     1      46.028   1.771   8.379  0.00  0.00    +0.000 A 
ATOM      9  H   UNL     1      43.756   2.747  11.218  0.00  0.00    +0.000 HD
BRANCH   2  11
ATOM     10  N   UNL     1      47.329   3.026   5.230  0.00  0.00    +0.000 N 
ATOM     11  C   UNL     1      47.411   2.318   6.400  0.00  0.00    +0.000 C 
ATOM     12  O   UNL     1      48.220   1.411   6.538  0.00  0.00    +0.000 OA
ATOM     13  H   UNL     1      48.016   2.802   4.521  0.00  0.00    +0.000 HD
ATOM     14  H   UNL     1      46.861   3.916   5.161  0.00  0.00    +0.000 HD
ENDBRANCH   2  11
ENDBRANCH   1   6
BRANCH   1  15
ATOM     15  C   UNL     1      44.468   5.724  11.699  0.00  0.00    +0.000 A 
ATOM     16  C   UNL     1      44.585   7.073  11.407  0.00  0.00    +0.000 A 
ATOM     17  N   UNL     1      45.518   7.876  11.951  0.00  0.00    +0.000 NA
ATOM     18  C   UNL     1      46.369   7.301  12.842  0.00  0.00    +0.000 A 
ATOM     19  C   UNL     1      46.358   5.960  13.242  0.00  0.00    +0.000 A 
ATOM     20  C   UNL     1      45.361   5.184  12.637  0.00  0.00    +0.000 A 
BRANCH  19  21
ATOM     21  N   UNL     1      47.263   5.418  14.135  0.00  0.00    +0.000 N 
ATOM     22  C   UNL     1      48.434   6.162  14.603  0.00  0.00    +0.000 C 
ATOM     23  C   UNL     1      48.423   6.217  16.128  0.00  0.00    +0.000 C 
ATOM     24  C   UNL     1      48.282   4.824  16.742  0.00  0.00    +0.000 C 
ATOM     25  C   UNL     1      47.118   4.040  16.139  0.00  0.00    +0.000 C 
ATOM     26  C   UNL     1      47.151   4.038  14.610  0.00  0.00    +0.000 C 
BRANCH  24  27
ATOM     27  O   UNL     1      49.500   4.091  16.612  0.00  0.00    +0.000 OA
ATOM     28  H   UNL     1      49.318   3.247  16.168  0.00  0.00    +0.000 HD
ENDBRANCH  24  27
ENDBRANCH  19  21
ENDBRANCH   1  15
TORSDOF 5
ENDMDL
MODEL 2
REMARK VINA RESULT:    -8.049      2.243      3.339
REMARK INTER + INTRA:         -10.788
REMARK INTER:                 -10.180
REMARK INTRA:                  -0.608
REMARK UNBOUND:                -0.622
REMARK  Name = 
REMARK  5 active torsions:
REMARK  status: ('A' for Active; 'I' for Inactive)
REMARK    1  A    between atoms: C_2  and  C_4
REMARK    2  A    between atoms: N_8  and  C_9
REMARK    3  A    between atoms: C_9  and  C_10
REMARK    4  A    between atoms: C_14  and  N_15
REMARK    5  A    between atoms: C_18  and  O_19
REMARK                            x       y       z     vdW  Elec       q    Type
REMARK                         _______ _______ _______ _____ _____    ______ ____
ROOT
ATOM      1  C   UNL     1      43.461   4.812  10.834  0.00  0.00    +0.000 C 
ENDROOT
BRANCH   1   6
ATOM      2  C   UNL     1      46.383   2.198   7.542  0.00  0.00    +0.000 A 
ATOM      3  C   UNL     1      45.911   1.876   8.808  0.00  0.00    +0.000 A 
ATOM      4  C   UNL     1      45.124   2.801   9.493  0.00  0.00    +0.000 A 
ATOM      5  C   UNL     1      44.816   4.029   8.910  0.00  0.00    +0.000 A 
ATOM      6  N   UNL     1      44.031   4.971   9.521  0.00  0.00    +0.000 N 
ATOM      7  N   UNL     1      45.284   4.353   7.689  0.00  0.00    +0.000 NA
ATOM      8  C   UNL     1      46.062   3.446   7.035  0.00  0.00    +0.000 A 
ATOM      9  H   UNL     1      43.897   5.824   8.993  0.00  0.00    +0.000 HD
BRANCH   2  11
ATOM     10  N   UNL     1      48.263   1.827   6.052  0.00  0.00    +0.000 N 
ATOM     11  C   UNL     1      47.217   1.277   6.746  0.00  0.00    +0.000 C 
ATOM     12  O   UNL     1      47.007   0.072   6.727  0.00  0.00    +0.000 OA
ATOM     13  H   UNL     1      48.883   1.177   5.584  0.00  0.00    +0.000 HD
ATOM     14  H   UNL     1      48.611   2.755   6.232  0.00  0.00    +0.000 HD
ENDBRANCH   2  11
ENDBRANCH   1   6
BRANCH   1  15
ATOM     15  C   UNL     1      44.496   4.937  11.911  0.00  0.00    +0.000 A 
ATOM     16  C   UNL     1      44.556   4.036  12.961  0.00  0.00    +0.000 A 
ATOM     17  N   UNL     1      45.421   4.141  13.987  0.00  0.00    +0.000 NA
ATOM     18  C   UNL     1      46.277   5.197  13.952  0.00  0.00    +0.000 A 
ATOM     19  C   UNL     1      46.341   6.173  12.951  0.00  0.00    +0.000 A 
ATOM     20  C   UNL     1      45.413   6.000  11.916  0.00  0.00    +0.000 A 
BRANCH  19  21
ATOM     21  N   UNL     1      47.215   7.243  12.976  0.00  0.00    +0.000 N 
ATOM     22  C   UNL     1      48.664   7.066  12.855  0.00  0.00    +0.000 C 
ATOM     23  C   UNL     1      49.182   7.904  11.691  0.00  0.00    +0.000 C 
ATOM     24  C   UNL     1      48.738   9.362  11.803  0.00  0.00    +0.000 C 
ATOM     25  C   UNL     1      47.236   9.494  12.045  0.00  0.00    +0.000 C 
ATOM     26  C   UNL     1      46.756   8.614  13.200  0.00  0.00    +0.000 C 
BRANCH  24  27
ATOM     27  O   UNL     1      49.471  10.033  12.827  0.00  0.00    +0.000 OA
ATOM     28  H   UNL     1      49.984   9.380  13.332  0.00  0.00    +0.000 HD
ENDBRANCH  24  27
ENDBRANCH  19  21
ENDBRANCH   1  15
TORSDOF 5
ENDMDL
MODEL 3
REMARK VINA RESULT:    -7.393      2.576      6.923
REMARK INTER + INTRA:          -9.959
REMARK INTER:                  -9.130
REMARK INTRA:                  -0.829
REMARK UNBOUND:                -0.622
REMARK  Name = 
REMARK  5 active torsions:
REMARK  status: ('A' for Active; 'I' for Inactive)
REMARK    1  A    between atoms: C_2  and  C_4
REMARK    2  A    between atoms: N_8  and  C_9
REMARK    3  A    between atoms: C_9  and  C_10
REMARK    4  A    between atoms: C_14  and  N_15
REMARK    5  A    between atoms: C_18  and  O_19
REMARK                            x       y       z     vdW  Elec       q    Type
REMARK                         _______ _______ _______ _____ _____    ______ ____
ROOT
ATOM      1  C   UNL     1      44.707   6.105  12.919  0.00  0.00    +0.000 C 
ENDROOT
BRANCH   1   6
ATOM      2  C   UNL     1      49.513   7.685  12.141  0.00  0.00    +0.000 A 
ATOM      3  C   UNL     1      48.360   7.845  11.385  0.00  0.00    +0.000 A 
ATOM      4  C   UNL     1      47.165   7.293  11.846  0.00  0.00    +0.000 A 
ATOM      5  C   UNL     1      47.136   6.592  13.050  0.00  0.00    +0.000 A 
ATOM      6  N   UNL     1      45.992   6.043  13.567  0.00  0.00    +0.000 N 
ATOM      7  N   UNL     1      48.254   6.419  13.780  0.00  0.00    +0.000 NA
ATOM      8  C   UNL     1      49.417   6.954  13.313  0.00  0.00    +0.000 A 
ATOM      9  H   UNL     1      46.112   5.549  14.443  0.00  0.00    +0.000 HD
BRANCH   2  11
ATOM     10  N   UNL     1      51.679   7.396  11.084  0.00  0.00    +0.000 N 
ATOM     11  C   UNL     1      50.817   8.242  11.731  0.00  0.00    +0.000 C 
ATOM     12  O   UNL     1      51.108   9.414  11.930  0.00  0.00    +0.000 OA
ATOM     13  H   UNL     1      52.531   7.810  10.725  0.00  0.00    +0.000 HD
ATOM     14  H   UNL     1      51.388   6.514  10.691  0.00  0.00    +0.000 HD
ENDBRANCH   2  11
ENDBRANCH   1   6
BRANCH   1  15
ATOM     15  C   UNL     1      44.357   4.812  12.248  0.00  0.00    +0.000 A 
ATOM     16  C   UNL     1      43.643   3.827  12.911  0.00  0.00    +0.000 A 
ATOM     17  N   UNL     1      43.361   2.623  12.379  0.00  0.00    +0.000 NA
ATOM     18  C   UNL     1      43.806   2.400  11.114  0.00  0.00    +0.000 A 
ATOM     19  C   UNL     1      44.523   3.304  10.322  0.00  0.00    +0.000 A 
ATOM     20  C   UNL     1      44.780   4.535  10.939  0.00  0.00    +0.000 A 
BRANCH  19  21
ATOM     21  N   UNL     1      44.976   3.018   9.048  0.00  0.00    +0.000 N 
ATOM     22  C   UNL     1      45.285   4.070   8.078  0.00  0.00    +0.000 C 
ATOM     23  C   UNL     1      46.720   3.904   7.589  0.00  0.00    +0.000 C 
ATOM     24  C   UNL     1      46.983   2.487   7.078  0.00  0.00    +0.000 C 
ATOM     25  C   UNL     1      46.536   1.420   8.075  0.00  0.00    +0.000 C 
ATOM     26  C   UNL     1      45.104   1.644   8.562  0.00  0.00    +0.000 C 
BRANCH  24  27
ATOM     27  O   UNL     1      46.353   2.285   5.813  0.00  0.00    +0.000 OA
ATOM     28  H   UNL     1      46.252   1.332   5.656  0.00  0.00    +0.000 HD
ENDBRANCH  24  27
ENDBRANCH  19  21
ENDBRANCH   1  15
TORSDOF 5
ENDMDL
MODEL 4
REMARK VINA RESULT:    -6.999      2.872      4.838
REMARK INTER + INTRA:          -9.461
REMARK INTER:                  -8.700
REMARK INTRA:                  -0.761
REMARK UNBOUND:                -0.622
REMARK  Name = 
REMARK  5 active torsions:
REMARK  status: ('A' for Active; 'I' for Inactive)
REMARK    1  A    between atoms: C_2  and  C_4
REMARK    2  A    between atoms: N_8  and  C_9
REMARK    3  A    between atoms: C_9  and  C_10
REMARK    4  A    between atoms: C_14  and  N_15
REMARK    5  A    between atoms: C_18  and  O_19
REMARK                            x       y       z     vdW  Elec       q    Type
REMARK                         _______ _______ _______ _____ _____    ______ ____
ROOT
ATOM      1  C   UNL     1      47.795   8.517  13.401  0.00  0.00    +0.000 C 
ENDROOT
BRANCH   1   6
ATOM      2  C   UNL     1      44.731   5.195  10.997  0.00  0.00    +0.000 A 
ATOM      3  C   UNL     1      45.966   5.726  10.647  0.00  0.00    +0.000 A 
ATOM      4  C   UNL     1      46.582   6.633  11.508  0.00  0.00    +0.000 A 
ATOM      5  C   UNL     1      45.964   6.997  12.703  0.00  0.00    +0.000 A 
ATOM      6  N   UNL     1      46.526   7.866  13.601  0.00  0.00    +0.000 N 
ATOM      7  N   UNL     1      44.759   6.497  13.041  0.00  0.00    +0.000 NA
ATOM      8  C   UNL     1      44.162   5.621  12.186  0.00  0.00    +0.000 A 
ATOM      9  H   UNL     1      45.965   8.055  14.423  0.00  0.00    +0.000 HD
BRANCH   2  11
ATOM     10  N   UNL     1      44.100   4.401   8.792  0.00  0.00    +0.000 N 
ATOM     11  C   UNL     1      44.013   4.225  10.148  0.00  0.00    +0.000 C 
ATOM     12  O   UNL     1      43.391   3.286  10.627  0.00  0.00    +0.000 OA
ATOM     13  H   UNL     1      43.682   3.680   8.217  0.00  0.00    +0.000 HD
ATOM     14  H   UNL     1      44.787   5.001   8.361  0.00  0.00    +0.000 HD
ENDBRANCH   2  11
ENDBRANCH   1   6
BRANCH   1  15
ATOM     15  C   UNL     1      48.851   7.972  14.315  0.00  0.00    +0.000 A 
ATOM     16  C   UNL     1      50.182   8.332  14.174  0.00  0.00    +0.000 A 
ATOM     17  N   UNL     1      51.176   7.821  14.923  0.00  0.00    +0.000 NA
ATOM     18  C   UNL     1      50.818   6.913  15.869  0.00  0.00    +0.000 A 
ATOM     19  C   UNL     1      49.518   6.468  16.132  0.00  0.00    +0.000 A 
ATOM     20  C   UNL     1      48.534   7.041  15.317  0.00  0.00    +0.000 A 
BRANCH  19  21
ATOM     21  N   UNL     1      49.210   5.521  17.091  0.00  0.00    +0.000 N 
ATOM     22  C   UNL     1      47.904   5.480  17.751  0.00  0.00    +0.000 C 
ATOM     23  C   UNL     1      47.284   4.099  17.566  0.00  0.00    +0.000 C 
ATOM     24  C   UNL     1      48.240   2.988  18.002  0.00  0.00    +0.000 C 
ATOM     25  C   UNL     1      49.626   3.138  17.379  0.00  0.00    +0.000 C 
ATOM     26  C   UNL     1      50.194   4.547  17.562  0.00  0.00    +0.000 C 
BRANCH  24  27
ATOM     27  O   UNL     1      48.334   2.936  19.425  0.00  0.00    +0.000 OA
ATOM     28  H   UNL     1      47.657   3.518  19.811  0.00  0.00    +0.000 HD
ENDBRANCH  24  27
ENDBRANCH  19  21
ENDBRANCH   1  15
TORSDOF 5
ENDMDL
MODEL 5
REMARK VINA RESULT:    -6.870      3.761      8.486
REMARK INTER + INTRA:          -9.298
REMARK INTER:                  -8.792
REMARK INTRA:                  -0.506
REMARK UNBOUND:                -0.622
REMARK  Name = 
REMARK  5 active torsions:
REMARK  status: ('A' for Active; 'I' for Inactive)
REMARK    1  A    between atoms: C_2  and  C_4
REMARK    2  A    between atoms: N_8  and  C_9
REMARK    3  A    between atoms: C_9  and  C_10
REMARK    4  A    between atoms: C_14  and  N_15
REMARK    5  A    between atoms: C_18  and  O_19
REMARK                            x       y       z     vdW  Elec       q    Type
REMARK                         _______ _______ _______ _____ _____    ______ ____
ROOT
ATOM      1  C   UNL     1      47.511   3.672  16.890  0.00  0.00    +0.000 C 
ENDROOT
BRANCH   1   6
ATOM      2  C   UNL     1      52.347   2.399  17.988  0.00  0.00    +0.000 A 
ATOM      3  C   UNL     1      51.628   3.565  18.217  0.00  0.00    +0.000 A 
ATOM      4  C   UNL     1      50.301   3.637  17.797  0.00  0.00    +0.000 A 
ATOM      5  C   UNL     1      49.707   2.550  17.159  0.00  0.00    +0.000 A 
ATOM      6  N   UNL     1      48.402   2.550  16.741  0.00  0.00    +0.000 N 
ATOM      7  N   UNL     1      50.403   1.421  16.920  0.00  0.00    +0.000 NA
ATOM      8  C   UNL     1      51.703   1.368  17.324  0.00  0.00    +0.000 A 
ATOM      9  H   UNL     1      48.101   1.700  16.280  0.00  0.00    +0.000 HD
BRANCH   2  11
ATOM     10  N   UNL     1      54.657   3.136  17.906  0.00  0.00    +0.000 N 
ATOM     11  C   UNL     1      53.753   2.235  18.405  0.00  0.00    +0.000 C 
ATOM     12  O   UNL     1      54.096   1.356  19.183  0.00  0.00    +0.000 OA
ATOM     13  H   UNL     1      55.601   3.073  18.270  0.00  0.00    +0.000 HD
ATOM     14  H   UNL     1      54.384   4.002  17.469  0.00  0.00    +0.000 HD
ENDBRANCH   2  11
ENDBRANCH   1   6
BRANCH   1  15
ATOM     15  C   UNL     1      47.583   4.601  15.716  0.00  0.00    +0.000 A 
ATOM     16  C   UNL     1      48.455   5.677  15.702  0.00  0.00    +0.000 A 
ATOM     17  N   UNL     1      48.512   6.578  14.704  0.00  0.00    +0.000 NA
ATOM     18  C   UNL     1      47.661   6.384  13.662  0.00  0.00    +0.000 A 
ATOM     19  C   UNL     1      46.741   5.337  13.535  0.00  0.00    +0.000 A 
ATOM     20  C   UNL     1      46.737   4.438  14.608  0.00  0.00    +0.000 A 
BRANCH  19  21
ATOM     21  N   UNL     1      45.878   5.198  12.464  0.00  0.00    +0.000 N 
ATOM     22  C   UNL     1      45.222   3.927  12.153  0.00  0.00    +0.000 C 
ATOM     23  C   UNL     1      43.711   4.133  12.111  0.00  0.00    +0.000 C 
ATOM     24  C   UNL     1      43.323   5.280  11.177  0.00  0.00    +0.000 C 
ATOM     25  C   UNL     1      44.118   6.553  11.462  0.00  0.00    +0.000 C 
ATOM     26  C   UNL     1      45.624   6.294  11.527  0.00  0.00    +0.000 C 
BRANCH  24  27
ATOM     27  O   UNL     1      43.475   4.890   9.813  0.00  0.00    +0.000 OA
ATOM     28  H   UNL     1      43.109   5.584   9.240  0.00  0.00    +0.000 HD
ENDBRANCH  24  27
ENDBRANCH  19  21
ENDBRANCH   1  15
TORSDOF 5
ENDMDL
MODEL 6
REMARK VINA RESULT:    -6.383      3.456      8.429
REMARK INTER + INTRA:          -8.684
REMARK INTER:                  -7.954
REMARK INTRA:                  -0.730
REMARK UNBOUND:                -0.622
REMARK  Name = 
REMARK  5 active torsions:
REMARK  status: ('A' for Active; 'I' for Inactive)
REMARK    1  A    between atoms: C_2  and  C_4
REMARK    2  A    between atoms: N_8  and  C_9
REMARK    3  A    between atoms: C_9  and  C_10
REMARK    4  A    between atoms: C_14  and  N_15
REMARK    5  A    between atoms: C_18  and  O_19
REMARK                            x       y       z     vdW  Elec       q    Type
REMARK                         _______ _______ _______ _____ _____    ______ ____
ROOT
ATOM      1  C   UNL     1      48.941   7.471  14.158  0.00  0.00    +0.000 C 
ENDROOT
BRANCH   1   6
ATOM      2  C   UNL     1      48.930   5.340  18.813  0.00  0.00    +0.000 A 
ATOM      3  C   UNL     1      49.034   4.780  17.546  0.00  0.00    +0.000 A 
ATOM      4  C   UNL     1      49.001   5.617  16.431  0.00  0.00    +0.000 A 
ATOM      5  C   UNL     1      48.869   6.995  16.592  0.00  0.00    +0.000 A 
ATOM      6  N   UNL     1      48.851   7.872  15.539  0.00  0.00    +0.000 N 
ATOM      7  N   UNL     1      48.752   7.542  17.817  0.00  0.00    +0.000 NA
ATOM      8  C   UNL     1      48.773   6.713  18.898  0.00  0.00    +0.000 A 
ATOM      9  H   UNL     1      48.736   8.845  15.794  0.00  0.00    +0.000 HD
BRANCH   2  11
ATOM     10  N   UNL     1      48.336   3.310  20.003  0.00  0.00    +0.000 N 
ATOM     11  C   UNL     1      48.961   4.528  20.046  0.00  0.00    +0.000 C 
ATOM     12  O   UNL     1      49.543   4.909  21.052  0.00  0.00    +0.000 OA
ATOM     13  H   UNL     1      48.442   2.723  20.822  0.00  0.00    +0.000 HD
ATOM     14  H   UNL     1      48.064   2.864  19.142  0.00  0.00    +0.000 HD
ENDBRANCH   2  11
ENDBRANCH   1   6
BRANCH   1  15
ATOM     15  C   UNL     1      47.636   7.640  13.442  0.00  0.00    +0.000 A 
ATOM     16  C   UNL     1      47.168   8.894  13.083  0.00  0.00    +0.000 A 
ATOM     17  N   UNL     1      45.974   9.106  12.500  0.00  0.00    +0.000 NA
ATOM     18  C   UNL     1      45.216   8.005  12.253  0.00  0.00    +0.000 A 
ATOM     19  C   UNL     1      45.565   6.682  12.546  0.00  0.00    +0.000 A 
ATOM     20  C   UNL     1      46.820   6.536  13.150  0.00  0.00    +0.000 A 
BRANCH  19  21
ATOM     21  N   UNL     1      44.745   5.598  12.296  0.00  0.00    +0.000 N 
ATOM     22  C   UNL     1      43.669   5.648  11.305  0.00  0.00    +0.000 C 
ATOM     23  C   UNL     1      43.856   4.521  10.295  0.00  0.00    +0.000 C 
ATOM     24  C   UNL     1      44.006   3.164  10.984  0.00  0.00    +0.000 C 
ATOM     25  C   UNL     1      45.058   3.190  12.092  0.00  0.00    +0.000 C 
ATOM     26  C   UNL     1      44.850   4.355  13.061  0.00  0.00    +0.000 C 
BRANCH  24  27
ATOM     27  O   UNL     1      42.751   2.720  11.497  0.00  0.00    +0.000 OA
ATOM     28  H   UNL     1      42.040   3.022  10.908  0.00  0.00    +0.000 HD
ENDBRANCH  24  27
ENDBRANCH  19  21
ENDBRANCH   1  15
TORSDOF 5
ENDMDL
MODEL 7
REMARK VINA RESULT:    -6.217      3.612      5.395
REMARK INTER + INTRA:          -8.474
REMARK INTER:                  -7.879
REMARK INTRA:                  -0.595
REMARK UNBOUND:                -0.622
REMARK  Name = 
REMARK  5 active torsions:
REMARK  status: ('A' for Active; 'I' for Inactive)
REMARK    1  A    between atoms: C_2  and  C_4
REMARK    2  A    between atoms: N_8  and  C_9
REMARK    3  A    between atoms: C_9  and  C_10
REMARK    4  A    between atoms: C_14  and  N_15
REMARK    5  A    between atoms: C_18  and  O_19
REMARK                            x       y       z     vdW  Elec       q    Type
REMARK                         _______ _______ _______ _____ _____    ______ ____
ROOT
ATOM      1  C   UNL     1      49.144   7.105  13.300  0.00  0.00    +0.000 C 
ENDROOT
BRANCH   1   6
ATOM      2  C   UNL     1      44.881   4.517  12.142  0.00  0.00    +0.000 A 
ATOM      3  C   UNL     1      45.950   4.204  12.971  0.00  0.00    +0.000 A 
ATOM      4  C   UNL     1      47.000   5.113  13.097  0.00  0.00    +0.000 A 
ATOM      5  C   UNL     1      46.971   6.319  12.399  0.00  0.00    +0.000 A 
ATOM      6  N   UNL     1      47.960   7.262  12.495  0.00  0.00    +0.000 N 
ATOM      7  N   UNL     1      45.944   6.622  11.581  0.00  0.00    +0.000 NA
ATOM      8  C   UNL     1      44.930   5.721  11.458  0.00  0.00    +0.000 A 
ATOM      9  H   UNL     1      47.821   8.087  11.925  0.00  0.00    +0.000 HD
BRANCH   2  11
ATOM     10  N   UNL     1      43.801   2.382  12.548  0.00  0.00    +0.000 N 
ATOM     11  C   UNL     1      43.727   3.616  11.957  0.00  0.00    +0.000 C 
ATOM     12  O   UNL     1      42.734   3.961  11.331  0.00  0.00    +0.000 OA
ATOM     13  H   UNL     1      42.969   1.808  12.494  0.00  0.00    +0.000 HD
ATOM     14  H   UNL     1      44.478   2.156  13.260  0.00  0.00    +0.000 HD
ENDBRANCH   2  11
ENDBRANCH   1   6
BRANCH   1  15
ATOM     15  C   UNL     1      48.907   7.508  14.724  0.00  0.00    +0.000 A 
ATOM     16  C   UNL     1      48.861   8.842  15.097  0.00  0.00    +0.000 A 
ATOM     17  N   UNL     1      48.719   9.256  16.370  0.00  0.00    +0.000 NA
ATOM     18  C   UNL     1      48.604   8.286  17.314  0.00  0.00    +0.000 A 
ATOM     19  C   UNL     1      48.617   6.906  17.083  0.00  0.00    +0.000 A 
ATOM     20  C   UNL     1      48.768   6.547  15.737  0.00  0.00    +0.000 A 
BRANCH  19  21
ATOM     21  N   UNL     1      48.522   5.958  18.084  0.00  0.00    +0.000 N 
ATOM     22  C   UNL     1      49.604   5.012  18.365  0.00  0.00    +0.000 C 
ATOM     23  C   UNL     1      50.010   5.126  19.830  0.00  0.00    +0.000 C 
ATOM     24  C   UNL     1      48.805   4.992  20.763  0.00  0.00    +0.000 C 
ATOM     25  C   UNL     1      47.655   5.913  20.360  0.00  0.00    +0.000 C 
ATOM     26  C   UNL     1      47.304   5.788  18.877  0.00  0.00    +0.000 C 
BRANCH  24  27
ATOM     27  O   UNL     1      48.363   3.635  20.819  0.00  0.00    +0.000 OA
ATOM     28  H   UNL     1      47.803   3.515  21.603  0.00  0.00    +0.000 HD
ENDBRANCH  24  27
ENDBRANCH  19  21
ENDBRANCH   1  15
TORSDOF 5
ENDMDL
MODEL 8
REMARK VINA RESULT:    -5.997      3.117      8.155
REMARK INTER + INTRA:          -8.197
REMARK INTER:                  -7.602
REMARK INTRA:                  -0.595
REMARK UNBOUND:                -0.622
REMARK  Name = 
REMARK  5 active torsions:
REMARK  status: ('A' for Active; 'I' for Inactive)
REMARK    1  A    between atoms: C_2  and  C_4
REMARK    2  A    between atoms: N_8  and  C_9
REMARK    3  A    between atoms: C_9  and  C_10
REMARK    4  A    between atoms: C_14  and  N_15
REMARK    5  A    between atoms: C_18  and  O_19
REMARK                            x       y       z     vdW  Elec       q    Type
REMARK                         _______ _______ _______ _____ _____    ______ ____
ROOT
ATOM      1  C   UNL     1      48.513   7.741  14.843  0.00  0.00    +0.000 C 
ENDROOT
BRANCH   1   6
ATOM      2  C   UNL     1      51.187   4.629  17.903  0.00  0.00    +0.000 A 
ATOM      3  C   UNL     1      51.594   5.605  17.003  0.00  0.00    +0.000 A 
ATOM      4  C   UNL     1      50.628   6.309  16.285  0.00  0.00    +0.000 A 
ATOM      5  C   UNL     1      49.275   6.035  16.473  0.00  0.00    +0.000 A 
ATOM      6  N   UNL     1      48.278   6.705  15.815  0.00  0.00    +0.000 N 
ATOM      7  N   UNL     1      48.875   5.079  17.334  0.00  0.00    +0.000 NA
ATOM      8  C   UNL     1      49.828   4.389  18.021  0.00  0.00    +0.000 A 
ATOM      9  H   UNL     1      47.338   6.398  16.035  0.00  0.00    +0.000 HD
BRANCH   2  11
ATOM     10  N   UNL     1      52.338   2.537  18.338  0.00  0.00    +0.000 N 
ATOM     11  C   UNL     1      52.142   3.841  18.708  0.00  0.00    +0.000 C 
ATOM     12  O   UNL     1      52.754   4.335  19.645  0.00  0.00    +0.000 OA
ATOM     13  H   UNL     1      53.061   2.033  18.837  0.00  0.00    +0.000 HD
ATOM     14  H   UNL     1      52.046   2.171  17.446  0.00  0.00    +0.000 HD
ENDBRANCH   2  11
ENDBRANCH   1   6
BRANCH   1  15
ATOM     15  C   UNL     1      47.506   7.704  13.733  0.00  0.00    +0.000 A 
ATOM     16  C   UNL     1      46.949   8.868  13.227  0.00  0.00    +0.000 A 
ATOM     17  N   UNL     1      45.994   8.887  12.279  0.00  0.00    +0.000 NA
ATOM     18  C   UNL     1      45.584   7.680  11.807  0.00  0.00    +0.000 A 
ATOM     19  C   UNL     1      46.066   6.430  12.212  0.00  0.00    +0.000 A 
ATOM     20  C   UNL     1      47.057   6.486  13.200  0.00  0.00    +0.000 A 
BRANCH  19  21
ATOM     21  N   UNL     1      45.596   5.228  11.717  0.00  0.00    +0.000 N 
ATOM     22  C   UNL     1      45.469   4.038  12.559  0.00  0.00    +0.000 C 
ATOM     23  C   UNL     1      44.033   3.525  12.499  0.00  0.00    +0.000 C 
ATOM     24  C   UNL     1      43.566   3.323  11.057  0.00  0.00    +0.000 C 
ATOM     25  C   UNL     1      43.827   4.550  10.186  0.00  0.00    +0.000 C 
ATOM     26  C   UNL     1      45.268   5.048  10.303  0.00  0.00    +0.000 C 
BRANCH  24  27
ATOM     27  O   UNL     1      44.179   2.166  10.488  0.00  0.00    +0.000 OA
ATOM     28  H   UNL     1      43.767   1.977   9.628  0.00  0.00    +0.000 HD
ENDBRANCH  24  27
ENDBRANCH  19  21
ENDBRANCH   1  15
TORSDOF 5
ENDMDL
MODEL 9
REMARK VINA RESULT:    -5.683      5.087      6.912
REMARK INTER + INTRA:          -7.799
REMARK INTER:                  -7.198
REMARK INTRA:                  -0.602
REMARK UNBOUND:                -0.622
REMARK  Name = 
REMARK  5 active torsions:
REMARK  status: ('A' for Active; 'I' for Inactive)
REMARK    1  A    between atoms: C_2  and  C_4
REMARK    2  A    between atoms: N_8  and  C_9
REMARK    3  A    between atoms: C_9  and  C_10
REMARK    4  A    between atoms: C_14  and  N_15
REMARK    5  A    between atoms: C_18  and  O_19
REMARK                            x       y       z     vdW  Elec       q    Type
REMARK                         _______ _______ _______ _____ _____    ______ ____
ROOT
ATOM      1  C   UNL     1      49.385   7.528  12.612  0.00  0.00    +0.000 C 
ENDROOT
BRANCH   1   6
ATOM      2  C   UNL     1      53.055   8.542   9.189  0.00  0.00    +0.000 A 
ATOM      3  C   UNL     1      52.428   7.354   9.540  0.00  0.00    +0.000 A 
ATOM      4  C   UNL     1      51.447   7.371  10.530  0.00  0.00    +0.000 A 
ATOM      5  C   UNL     1      51.103   8.568  11.155  0.00  0.00    +0.000 A 
ATOM      6  N   UNL     1      50.134   8.656  12.120  0.00  0.00    +0.000 N 
ATOM      7  N   UNL     1      51.718   9.722  10.831  0.00  0.00    +0.000 NA
ATOM      8  C   UNL     1      52.683   9.690   9.870  0.00  0.00    +0.000 A 
ATOM      9  H   UNL     1      49.992   9.583  12.501  0.00  0.00    +0.000 HD
BRANCH   2  11
ATOM     10  N   UNL     1      53.678   8.588   6.844  0.00  0.00    +0.000 N 
ATOM     11  C   UNL     1      54.099   8.615   8.148  0.00  0.00    +0.000 C 
ATOM     12  O   UNL     1      55.284   8.723   8.431  0.00  0.00    +0.000 OA
ATOM     13  H   UNL     1      54.392   8.731   6.140  0.00  0.00    +0.000 HD
ATOM     14  H   UNL     1      52.720   8.744   6.575  0.00  0.00    +0.000 HD
ENDBRANCH   2  11
ENDBRANCH   1   6
BRANCH   1  15
ATOM     15  C   UNL     1      47.915   7.685  12.369  0.00  0.00    +0.000 A 
ATOM     16  C   UNL     1      47.325   8.938  12.307  0.00  0.00    +0.000 A 
ATOM     17  N   UNL     1      46.002   9.133  12.158  0.00  0.00    +0.000 NA
ATOM     18  C   UNL     1      45.232   8.018  12.055  0.00  0.00    +0.000 A 
ATOM     19  C   UNL     1      45.690   6.695  12.086  0.00  0.00    +0.000 A 
ATOM     20  C   UNL     1      47.076   6.567  12.242  0.00  0.00    +0.000 A 
BRANCH  19  21
ATOM     21  N   UNL     1      44.860   5.593  12.003  0.00  0.00    +0.000 N 
ATOM     22  C   UNL     1      43.697   5.561  11.115  0.00  0.00    +0.000 C 
ATOM     23  C   UNL     1      43.800   4.356  10.186  0.00  0.00    +0.000 C 
ATOM     24  C   UNL     1      44.026   3.060  10.966  0.00  0.00    +0.000 C 
ATOM     25  C   UNL     1      45.175   3.177  11.965  0.00  0.00    +0.000 C 
ATOM     26  C   UNL     1      45.048   4.417  12.853  0.00  0.00    +0.000 C 
BRANCH  24  27
ATOM     27  O   UNL     1      42.828   2.656  11.628  0.00  0.00    +0.000 OA
ATOM     28  H   UNL     1      43.056   2.233  12.472  0.00  0.00    +0.000 HD
ENDBRANCH  24  27
ENDBRANCH  19  21
ENDBRANCH   1  15
TORSDOF 5
ENDMDL
