MODEL 1
REMARK VINA RESULT:    -9.034      0.000      0.000
REMARK INTER + INTRA:         -12.287
REMARK INTER:                 -11.674
REMARK INTRA:                  -0.613
REMARK UNBOUND:                -0.613
REMARK  Name = 
REMARK  5 active torsions:
REMARK  status: ('A' for Active; 'I' for Inactive)
REMARK    1  A    between atoms: C_7  and  C_8
REMARK    2  A    between atoms: N_10  and  C_11
REMARK    3  A    between atoms: C_11  and  C_12
REMARK    4  A    between atoms: C_15  and  C_16
REMARK    5  A    between atoms: C_16  and  C_17
REMARK                            x       y       z     vdW  Elec       q    Type
REMARK                         _______ _______ _______ _____ _____    ______ ____
ROOT
ATOM      1  C   UNL     1      48.123   6.746  13.980  0.00  0.00    +0.000 C 
ATOM      2  O   UNL     1      48.786   6.853  12.951  0.00  0.00    +0.000 OA
ATOM      3  N   UNL     1      46.778   7.028  14.011  0.00  0.00    +0.000 N 
ATOM      4  H   UNL     1      46.231   6.811  14.840  0.00  0.00    +0.000 HD
ENDROOT
BRANCH   1  11
ATOM      5  N   UNL     1      48.277   2.964  19.532  0.00  0.00    +0.000 N 
ATOM      6  C   UNL     1      48.378   3.770  18.444  0.00  0.00    +0.000 A 
ATOM      7  N   UNL     1      49.329   4.657  18.373  0.00  0.00    +0.000 NA
ATOM      8  C   UNL     1      49.297   5.399  17.242  0.00  0.00    +0.000 A 
ATOM      9  N   UNL     1      50.199   6.382  16.966  0.00  0.00    +0.000 N 
ATOM     10  C   UNL     1      49.877   6.952  15.762  0.00  0.00    +0.000 A 
ATOM     11  C   UNL     1      48.742   6.334  15.244  0.00  0.00    +0.000 A 
ATOM     12  C   UNL     1      48.405   5.326  16.196  0.00  0.00    +0.000 A 
ATOM     13  C   UNL     1      47.382   4.314  16.287  0.00  0.00    +0.000 A 
ATOM     14  O   UNL     1      46.558   4.089  15.405  0.00  0.00    +0.000 OA
ATOM     15  N   UNL     1      47.426   3.594  17.465  0.00  0.00    +0.000 N 
ATOM     16  H   UNL     1      48.854   3.292  20.301  0.00  0.00    +0.000 HD
ATOM     17  H   UNL     1      47.344   2.710  19.827  0.00  0.00    +0.000 HD
ATOM     18  H   UNL     1      50.970   6.639  17.567  0.00  0.00    +0.000 HD
ATOM     19  H   UNL     1      46.753   2.852  17.548  0.00  0.00    +0.000 HD
ENDBRANCH   1  11
BRANCH   3  20
ATOM     20  C   UNL     1      46.063   7.402  12.815  0.00  0.00    +0.000 C 
BRANCH  20  21
ATOM     21  C   UNL     1      45.723   6.200  11.971  0.00  0.00    +0.000 A 
ATOM     22  C   UNL     1      45.892   6.247  10.581  0.00  0.00    +0.000 A 
ATOM     23  C   UNL     1      45.570   5.144   9.786  0.00  0.00    +0.000 A 
ATOM     24  C   UNL     1      45.079   3.964  10.363  0.00  0.00    +0.000 A 
ATOM     25  C   UNL     1      44.909   3.917  11.752  0.00  0.00    +0.000 A 
ATOM     26  C   UNL     1      45.216   5.029  12.547  0.00  0.00    +0.000 A 
BRANCH  24  27
ATOM     27  C   UNL     1      44.716   2.776   9.498  0.00  0.00    +0.000 C 
BRANCH  27  28
ATOM     28  C   UNL     1      45.662   2.456   8.359  0.00  0.00    +0.000 A 
ATOM     29  C   UNL     1      45.829   3.337   7.290  0.00  0.00    +0.000 A 
ATOM     30  C   UNL     1      46.609   2.948   6.204  0.00  0.00    +0.000 A 
ATOM     31  C   UNL     1      47.203   1.694   6.206  0.00  0.00    +0.000 A 
ATOM     32  C   UNL     1      46.999   0.881   7.307  0.00  0.00    +0.000 A 
ATOM     33  N   UNL     1      46.245   1.230   8.373  0.00  0.00    +0.000 NA
ENDBRANCH  27  28
ENDBRANCH  24  27
ENDBRANCH  20  21
ENDBRANCH   3  20
TORSDOF 5
ENDMDL
MODEL 2
REMARK VINA RESULT:    -8.134      2.024      2.918
REMARK INTER + INTRA:         -11.124
REMARK INTER:                 -10.335
REMARK INTRA:                  -0.789
REMARK UNBOUND:                -0.613
REMARK  Name = 
REMARK  5 active torsions:
REMARK  status: ('A' for Active; 'I' for Inactive)
REMARK    1  A    between atoms: C_7  and  C_8
REMARK    2  A    between atoms: N_10  and  C_11
REMARK    3  A    between atoms: C_11  and  C_12
REMARK    4  A    between atoms: C_15  and  C_16
REMARK    5  A    between atoms: C_16  and  C_17
REMARK                            x       y       z     vdW  Elec       q    Type
REMARK                         _______ _______ _______ _____ _____    ______ ____
ROOT
ATOM      1  C   UNL     1      47.437   4.058  16.087  0.00  0.00    +0.000 C 
ATOM      2  O   UNL     1      46.400   4.041  16.746  0.00  0.00    +0.000 OA
ATOM      3  N   UNL     1      47.507   4.672  14.860  0.00  0.00    +0.000 N 
ATOM      4  H   UNL     1      48.406   4.780  14.396  0.00  0.00    +0.000 HD
ENDROOT
BRANCH   1  11
ATOM      5  N   UNL     1      53.473   4.197  19.037  0.00  0.00    +0.000 N 
ATOM      6  C   UNL     1      52.261   4.026  18.448  0.00  0.00    +0.000 A 
ATOM      7  N   UNL     1      51.910   2.855  18.000  0.00  0.00    +0.000 NA
ATOM      8  C   UNL     1      50.686   2.837  17.426  0.00  0.00    +0.000 A 
ATOM      9  N   UNL     1      50.125   1.716  16.892  0.00  0.00    +0.000 N 
ATOM     10  C   UNL     1      48.898   2.038  16.373  0.00  0.00    +0.000 A 
ATOM     11  C   UNL     1      48.654   3.396  16.567  0.00  0.00    +0.000 A 
ATOM     12  C   UNL     1      49.801   3.880  17.265  0.00  0.00    +0.000 A 
ATOM     13  C   UNL     1      50.202   5.157  17.799  0.00  0.00    +0.000 A 
ATOM     14  O   UNL     1      49.493   6.161  17.787  0.00  0.00    +0.000 OA
ATOM     15  N   UNL     1      51.467   5.148  18.353  0.00  0.00    +0.000 N 
ATOM     16  H   UNL     1      54.088   3.405  18.872  0.00  0.00    +0.000 HD
ATOM     17  H   UNL     1      53.933   5.084  18.886  0.00  0.00    +0.000 HD
ATOM     18  H   UNL     1      50.561   0.804  16.884  0.00  0.00    +0.000 HD
ATOM     19  H   UNL     1      51.767   6.011  18.772  0.00  0.00    +0.000 HD
ENDBRANCH   1  11
BRANCH   3  20
ATOM     20  C   UNL     1      46.380   5.388  14.313  0.00  0.00    +0.000 C 
BRANCH  20  21
ATOM     21  C   UNL     1      45.915   4.784  13.013  0.00  0.00    +0.000 A 
ATOM     22  C   UNL     1      45.784   5.587  11.872  0.00  0.00    +0.000 A 
ATOM     23  C   UNL     1      45.343   5.042  10.663  0.00  0.00    +0.000 A 
ATOM     24  C   UNL     1      45.030   3.680  10.564  0.00  0.00    +0.000 A 
ATOM     25  C   UNL     1      45.159   2.876  11.704  0.00  0.00    +0.000 A 
ATOM     26  C   UNL     1      45.585   3.426  12.920  0.00  0.00    +0.000 A 
BRANCH  24  27
ATOM     27  C   UNL     1      44.537   3.095   9.257  0.00  0.00    +0.000 C 
BRANCH  27  28
ATOM     28  C   UNL     1      45.599   2.649   8.275  0.00  0.00    +0.000 A 
ATOM     29  C   UNL     1      45.966   3.451   7.194  0.00  0.00    +0.000 A 
ATOM     30  C   UNL     1      46.852   2.949   6.244  0.00  0.00    +0.000 A 
ATOM     31  C   UNL     1      47.351   1.662   6.391  0.00  0.00    +0.000 A 
ATOM     32  C   UNL     1      46.949   0.931   7.494  0.00  0.00    +0.000 A 
ATOM     33  N   UNL     1      46.087   1.391   8.430  0.00  0.00    +0.000 NA
ENDBRANCH  27  28
ENDBRANCH  24  27
ENDBRANCH  20  21
ENDBRANCH   3  20
TORSDOF 5
ENDMDL
MODEL 3
REMARK VINA RESULT:    -7.920      3.948      8.557
REMARK INTER + INTRA:         -10.848
REMARK INTER:                  -9.953
REMARK INTRA:                  -0.895
REMARK UNBOUND:                -0.613
REMARK  Name = 
REMARK  5 active torsions:
REMARK  status: ('A' for Active; 'I' for Inactive)
REMARK    1  A    between atoms: C_7  and  C_8
REMARK    2  A    between atoms: N_10  and  C_11
REMARK    3  A    between atoms: C_11  and  C_12
REMARK    4  A    between atoms: C_15  and  C_16
REMARK    5  A    between atoms: C_16  and  C_17
REMARK                            x       y       z     vdW  Elec       q    Type
REMARK                         _______ _______ _______ _____ _____    ______ ____
ROOT
ATOM      1  C   UNL     1      43.991   4.128  10.393  0.00  0.00    +0.000 C 
ATOM      2  O   UNL     1      42.932   3.877  10.965  0.00  0.00    +0.000 OA
ATOM      3  N   UNL     1      44.578   5.369  10.465  0.00  0.00    +0.000 N 
ATOM      4  H   UNL     1      45.512   5.512  10.089  0.00  0.00    +0.000 HD
ENDROOT
BRANCH   1  11
ATOM      5  N   UNL     1      48.339   2.366   5.583  0.00  0.00    +0.000 N 
ATOM      6  C   UNL     1      47.452   2.583   6.588  0.00  0.00    +0.000 A 
ATOM      7  N   UNL     1      46.792   1.587   7.105  0.00  0.00    +0.000 NA
ATOM      8  C   UNL     1      45.934   1.953   8.085  0.00  0.00    +0.000 A 
ATOM      9  N   UNL     1      45.146   1.070   8.759  0.00  0.00    +0.000 N 
ATOM     10  C   UNL     1      44.382   1.759   9.664  0.00  0.00    +0.000 A 
ATOM     11  C   UNL     1      44.673   3.119   9.577  0.00  0.00    +0.000 A 
ATOM     12  C   UNL     1      45.687   3.215   8.578  0.00  0.00    +0.000 A 
ATOM     13  C   UNL     1      46.455   4.294   8.009  0.00  0.00    +0.000 A 
ATOM     14  O   UNL     1      46.390   5.460   8.390  0.00  0.00    +0.000 OA
ATOM     15  N   UNL     1      47.300   3.890   6.994  0.00  0.00    +0.000 N 
ATOM     16  H   UNL     1      48.237   1.437   5.183  0.00  0.00    +0.000 HD
ATOM     17  H   UNL     1      48.416   3.086   4.878  0.00  0.00    +0.000 HD
ATOM     18  H   UNL     1      45.136   0.072   8.599  0.00  0.00    +0.000 HD
ATOM     19  H   UNL     1      47.882   4.609   6.598  0.00  0.00    +0.000 HD
ENDBRANCH   1  11
BRANCH   3  20
ATOM     20  C   UNL     1      44.012   6.421  11.273  0.00  0.00    +0.000 C 
BRANCH  20  21
ATOM     21  C   UNL     1      45.081   7.300  11.871  0.00  0.00    +0.000 A 
ATOM     22  C   UNL     1      45.013   8.691  11.720  0.00  0.00    +0.000 A 
ATOM     23  C   UNL     1      46.004   9.517  12.259  0.00  0.00    +0.000 A 
ATOM     24  C   UNL     1      47.082   8.971  12.969  0.00  0.00    +0.000 A 
ATOM     25  C   UNL     1      47.151   7.580  13.119  0.00  0.00    +0.000 A 
ATOM     26  C   UNL     1      46.167   6.752  12.565  0.00  0.00    +0.000 A 
BRANCH  24  27
ATOM     27  C   UNL     1      48.162   9.866  13.538  0.00  0.00    +0.000 C 
BRANCH  27  28
ATOM     28  C   UNL     1      49.551   9.698  12.960  0.00  0.00    +0.000 A 
ATOM     29  C   UNL     1      49.775   9.772  11.585  0.00  0.00    +0.000 A 
ATOM     30  C   UNL     1      51.044   9.485  11.085  0.00  0.00    +0.000 A 
ATOM     31  C   UNL     1      52.058   9.130  11.964  0.00  0.00    +0.000 A 
ATOM     32  C   UNL     1      51.761   9.089  13.315  0.00  0.00    +0.000 A 
ATOM     33  N   UNL     1      50.539   9.359  13.828  0.00  0.00    +0.000 NA
ENDBRANCH  27  28
ENDBRANCH  24  27
ENDBRANCH  20  21
ENDBRANCH   3  20
TORSDOF 5
ENDMDL
MODEL 4
REMARK VINA RESULT:    -7.913      1.605      2.235
REMARK INTER + INTRA:         -10.839
REMARK INTER:                  -9.814
REMARK INTRA:                  -1.024
REMARK UNBOUND:                -0.613
REMARK  Name = 
REMARK  5 active torsions:
REMARK  status: ('A' for Active; 'I' for Inactive)
REMARK    1  A    between atoms: C_7  and  C_8
REMARK    2  A    between atoms: N_10  and  C_11
REMARK    3  A    between atoms: C_11  and  C_12
REMARK    4  A    between atoms: C_15  and  C_16
REMARK    5  A    between atoms: C_16  and  C_17
REMARK                            x       y       z     vdW  Elec       q    Type
REMARK                         _______ _______ _______ _____ _____    ______ ____
ROOT
ATOM      1  C   UNL     1      48.911   8.408  15.508  0.00  0.00    +0.000 C 
ATOM      2  O   UNL     1      49.835   8.925  14.884  0.00  0.00    +0.000 OA
ATOM      3  N   UNL     1      47.641   8.323  14.989  0.00  0.00    +0.000 N 
ATOM      4  H   UNL     1      46.930   7.780  15.472  0.00  0.00    +0.000 HD
ENDROOT
BRANCH   1  11
ATOM      5  N   UNL     1      48.503   3.451  20.026  0.00  0.00    +0.000 N 
ATOM      6  C   UNL     1      48.663   4.523  19.210  0.00  0.00    +0.000 A 
ATOM      7  N   UNL     1      49.102   5.652  19.690  0.00  0.00    +0.000 NA
ATOM      8  C   UNL     1      49.197   6.636  18.766  0.00  0.00    +0.000 A 
ATOM      9  N   UNL     1      49.633   7.894  19.054  0.00  0.00    +0.000 N 
ATOM     10  C   UNL     1      49.589   8.650  17.912  0.00  0.00    +0.000 A 
ATOM     11  C   UNL     1      49.111   7.873  16.859  0.00  0.00    +0.000 A 
ATOM     12  C   UNL     1      48.892   6.581  17.424  0.00  0.00    +0.000 A 
ATOM     13  C   UNL     1      48.439   5.312  16.914  0.00  0.00    +0.000 A 
ATOM     14  O   UNL     1      48.191   5.095  15.731  0.00  0.00    +0.000 OA
ATOM     15  N   UNL     1      48.327   4.338  17.887  0.00  0.00    +0.000 N 
ATOM     16  H   UNL     1      48.547   3.712  21.007  0.00  0.00    +0.000 HD
ATOM     17  H   UNL     1      47.728   2.834  19.823  0.00  0.00    +0.000 HD
ATOM     18  H   UNL     1      49.931   8.202  19.969  0.00  0.00    +0.000 HD
ATOM     19  H   UNL     1      48.051   3.427  17.563  0.00  0.00    +0.000 HD
ENDBRANCH   1  11
BRANCH   3  20
ATOM     20  C   UNL     1      47.345   8.781  13.653  0.00  0.00    +0.000 C 
BRANCH  20  21
ATOM     21  C   UNL     1      46.511   7.780  12.894  0.00  0.00    +0.000 A 
ATOM     22  C   UNL     1      46.767   6.409  13.027  0.00  0.00    +0.000 A 
ATOM     23  C   UNL     1      46.010   5.471  12.320  0.00  0.00    +0.000 A 
ATOM     24  C   UNL     1      44.973   5.882  11.471  0.00  0.00    +0.000 A 
ATOM     25  C   UNL     1      44.717   7.252  11.338  0.00  0.00    +0.000 A 
ATOM     26  C   UNL     1      45.488   8.193  12.032  0.00  0.00    +0.000 A 
BRANCH  24  27
ATOM     27  C   UNL     1      44.164   4.864  10.695  0.00  0.00    +0.000 C 
BRANCH  27  28
ATOM     28  C   UNL     1      44.928   4.006   9.708  0.00  0.00    +0.000 A 
ATOM     29  C   UNL     1      45.654   4.579   8.664  0.00  0.00    +0.000 A 
ATOM     30  C   UNL     1      46.235   3.753   7.705  0.00  0.00    +0.000 A 
ATOM     31  C   UNL     1      46.080   2.377   7.807  0.00  0.00    +0.000 A 
ATOM     32  C   UNL     1      45.355   1.883   8.877  0.00  0.00    +0.000 A 
ATOM     33  N   UNL     1      44.776   2.661   9.820  0.00  0.00    +0.000 NA
ENDBRANCH  27  28
ENDBRANCH  24  27
ENDBRANCH  20  21
ENDBRANCH   3  20
TORSDOF 5
ENDMDL
MODEL 5
REMARK VINA RESULT:    -7.912      2.100      3.922
REMARK INTER + INTRA:         -10.838
REMARK INTER:                  -9.960
REMARK INTRA:                  -0.878
REMARK UNBOUND:                -0.613
REMARK  Name = 
REMARK  5 active torsions:
REMARK  status: ('A' for Active; 'I' for Inactive)
REMARK    1  A    between atoms: C_7  and  C_8
REMARK    2  A    between atoms: N_10  and  C_11
REMARK    3  A    between atoms: C_11  and  C_12
REMARK    4  A    between atoms: C_15  and  C_16
REMARK    5  A    between atoms: C_16  and  C_17
REMARK                            x       y       z     vdW  Elec       q    Type
REMARK                         _______ _______ _______ _____ _____    ______ ____
ROOT
ATOM      1  C   UNL     1      47.899   5.726  15.032  0.00  0.00    +0.000 C 
ATOM      2  O   UNL     1      47.977   4.688  15.686  0.00  0.00    +0.000 OA
ATOM      3  N   UNL     1      46.867   5.956  14.155  0.00  0.00    +0.000 N 
ATOM      4  H   UNL     1      46.760   6.871  13.724  0.00  0.00    +0.000 HD
ENDROOT
BRANCH   1  11
ATOM      5  N   UNL     1      52.273  10.010  12.263  0.00  0.00    +0.000 N 
ATOM      6  C   UNL     1      51.414   9.211  12.946  0.00  0.00    +0.000 A 
ATOM      7  N   UNL     1      51.435   9.190  14.248  0.00  0.00    +0.000 NA
ATOM      8  C   UNL     1      50.537   8.338  14.793  0.00  0.00    +0.000 A 
ATOM      9  N   UNL     1      50.391   8.161  16.136  0.00  0.00    +0.000 N 
ATOM     10  C   UNL     1      49.420   7.219  16.356  0.00  0.00    +0.000 A 
ATOM     11  C   UNL     1      48.925   6.767  15.134  0.00  0.00    +0.000 A 
ATOM     12  C   UNL     1      49.637   7.517  14.150  0.00  0.00    +0.000 A 
ATOM     13  C   UNL     1      49.614   7.584  12.710  0.00  0.00    +0.000 A 
ATOM     14  O   UNL     1      48.825   6.960  12.006  0.00  0.00    +0.000 OA
ATOM     15  N   UNL     1      50.561   8.442  12.186  0.00  0.00    +0.000 N 
ATOM     16  H   UNL     1      53.012  10.368  12.859  0.00  0.00    +0.000 HD
ATOM     17  H   UNL     1      52.620   9.658  11.381  0.00  0.00    +0.000 HD
ATOM     18  H   UNL     1      50.925   8.650  16.841  0.00  0.00    +0.000 HD
ATOM     19  H   UNL     1      50.550   8.545  11.186  0.00  0.00    +0.000 HD
ENDBRANCH   1  11
BRANCH   3  20
ATOM     20  C   UNL     1      45.783   5.014  14.008  0.00  0.00    +0.000 C 
BRANCH  20  21
ATOM     21  C   UNL     1      45.501   4.712  12.559  0.00  0.00    +0.000 A 
ATOM     22  C   UNL     1      44.926   3.488  12.195  0.00  0.00    +0.000 A 
ATOM     23  C   UNL     1      44.670   3.189  10.854  0.00  0.00    +0.000 A 
ATOM     24  C   UNL     1      44.975   4.113   9.845  0.00  0.00    +0.000 A 
ATOM     25  C   UNL     1      45.551   5.337  10.207  0.00  0.00    +0.000 A 
ATOM     26  C   UNL     1      45.823   5.629  11.550  0.00  0.00    +0.000 A 
BRANCH  24  27
ATOM     27  C   UNL     1      44.712   3.781   8.391  0.00  0.00    +0.000 C 
BRANCH  27  28
ATOM     28  C   UNL     1      45.805   3.029   7.662  0.00  0.00    +0.000 A 
ATOM     29  C   UNL     1      46.338   3.510   6.467  0.00  0.00    +0.000 A 
ATOM     30  C   UNL     1      47.249   2.724   5.763  0.00  0.00    +0.000 A 
ATOM     31  C   UNL     1      47.606   1.480   6.265  0.00  0.00    +0.000 A 
ATOM     32  C   UNL     1      47.042   1.077   7.462  0.00  0.00    +0.000 A 
ATOM     33  N   UNL     1      46.153   1.816   8.164  0.00  0.00    +0.000 NA
ENDBRANCH  27  28
ENDBRANCH  24  27
ENDBRANCH  20  21
ENDBRANCH   3  20
TORSDOF 5
ENDMDL
MODEL 6
REMARK VINA RESULT:    -7.743      2.805      9.257
REMARK INTER + INTRA:         -10.618
REMARK INTER:                  -9.654
REMARK INTRA:                  -0.964
REMARK UNBOUND:                -0.613
REMARK  Name = 
REMARK  5 active torsions:
REMARK  status: ('A' for Active; 'I' for Inactive)
REMARK    1  A    between atoms: C_7  and  C_8
REMARK    2  A    between atoms: N_10  and  C_11
REMARK    3  A    between atoms: C_11  and  C_12
REMARK    4  A    between atoms: C_15  and  C_16
REMARK    5  A    between atoms: C_16  and  C_17
REMARK                            x       y       z     vdW  Elec       q    Type
REMARK                         _______ _______ _______ _____ _____    ______ ____
ROOT
ATOM      1  C   UNL     1      44.266   4.734  10.218  0.00  0.00    +0.000 C 
ATOM      2  O   UNL     1      43.056   4.917  10.329  0.00  0.00    +0.000 OA
ATOM      3  N   UNL     1      45.185   5.643  10.685  0.00  0.00    +0.000 N 
ATOM      4  H   UNL     1      46.174   5.408  10.694  0.00  0.00    +0.000 HD
ENDROOT
BRANCH   1  11
ATOM      5  N   UNL     1      48.307   1.751   5.755  0.00  0.00    +0.000 N 
ATOM      6  C   UNL     1      47.464   2.223   6.708  0.00  0.00    +0.000 A 
ATOM      7  N   UNL     1      46.671   1.408   7.342  0.00  0.00    +0.000 NA
ATOM      8  C   UNL     1      45.876   2.018   8.250  0.00  0.00    +0.000 A 
ATOM      9  N   UNL     1      44.972   1.353   9.023  0.00  0.00    +0.000 N 
ATOM     10  C   UNL     1      44.317   2.257   9.817  0.00  0.00    +0.000 A 
ATOM     11  C   UNL     1      44.797   3.539   9.555  0.00  0.00    +0.000 A 
ATOM     12  C   UNL     1      45.811   3.357   8.568  0.00  0.00    +0.000 A 
ATOM     13  C   UNL     1      46.722   4.231   7.874  0.00  0.00    +0.000 A 
ATOM     14  O   UNL     1      46.824   5.435   8.096  0.00  0.00    +0.000 OA
ATOM     15  N   UNL     1      47.499   3.581   6.935  0.00  0.00    +0.000 N 
ATOM     16  H   UNL     1      48.074   0.802   5.480  0.00  0.00    +0.000 HD
ATOM     17  H   UNL     1      48.484   2.353   4.962  0.00  0.00    +0.000 HD
ATOM     18  H   UNL     1      44.821   0.354   8.997  0.00  0.00    +0.000 HD
ATOM     19  H   UNL     1      48.175   4.152   6.457  0.00  0.00    +0.000 HD
ENDBRANCH   1  11
BRANCH   3  20
ATOM     20  C   UNL     1      44.771   6.833  11.390  0.00  0.00    +0.000 C 
BRANCH  20  21
ATOM     21  C   UNL     1      45.852   7.337  12.311  0.00  0.00    +0.000 A 
ATOM     22  C   UNL     1      46.894   6.487  12.704  0.00  0.00    +0.000 A 
ATOM     23  C   UNL     1      47.896   6.937  13.567  0.00  0.00    +0.000 A 
ATOM     24  C   UNL     1      47.886   8.253  14.051  0.00  0.00    +0.000 A 
ATOM     25  C   UNL     1      46.845   9.104  13.659  0.00  0.00    +0.000 A 
ATOM     26  C   UNL     1      45.830   8.647  12.808  0.00  0.00    +0.000 A 
BRANCH  24  27
ATOM     27  C   UNL     1      48.964   8.734  14.998  0.00  0.00    +0.000 C 
BRANCH  27  28
ATOM     28  C   UNL     1      48.687   8.567  16.477  0.00  0.00    +0.000 A 
ATOM     29  C   UNL     1      47.878   9.469  17.167  0.00  0.00    +0.000 A 
ATOM     30  C   UNL     1      47.753   9.352  18.549  0.00  0.00    +0.000 A 
ATOM     31  C   UNL     1      48.435   8.342  19.212  0.00  0.00    +0.000 A 
ATOM     32  C   UNL     1      49.210   7.479  18.458  0.00  0.00    +0.000 A 
ATOM     33  N   UNL     1      49.353   7.571  17.116  0.00  0.00    +0.000 NA
ENDBRANCH  27  28
ENDBRANCH  24  27
ENDBRANCH  20  21
ENDBRANCH   3  20
TORSDOF 5
ENDMDL
MODEL 7
REMARK VINA RESULT:    -7.632      3.517      8.251
REMARK INTER + INTRA:         -10.475
REMARK INTER:                  -9.629
REMARK INTRA:                  -0.846
REMARK UNBOUND:                -0.613
REMARK  Name = 
REMARK  5 active torsions:
REMARK  status: ('A' for Active; 'I' for Inactive)
REMARK    1  A    between atoms: C_7  and  C_8
REMARK    2  A    between atoms: N_10  and  C_11
REMARK    3  A    between atoms: C_11  and  C_12
REMARK    4  A    between atoms: C_15  and  C_16
REMARK    5  A    between atoms: C_16  and  C_17
REMARK                            x       y       z     vdW  Elec       q    Type
REMARK                         _______ _______ _______ _____ _____    ______ ____
ROOT
ATOM      1  C   UNL     1      48.021   6.762  13.592  0.00  0.00    +0.000 C 
ATOM      2  O   UNL     1      48.980   6.543  12.855  0.00  0.00    +0.000 OA
ATOM      3  N   UNL     1      48.174   7.329  14.834  0.00  0.00    +0.000 N 
ATOM      4  H   UNL     1      47.356   7.614  15.367  0.00  0.00    +0.000 HD
ENDROOT
BRANCH   1  11
ATOM      5  N   UNL     1      43.317   2.222  12.038  0.00  0.00    +0.000 N 
ATOM      6  C   UNL     1      44.163   3.236  12.353  0.00  0.00    +0.000 A 
ATOM      7  N   UNL     1      43.774   4.473  12.233  0.00  0.00    +0.000 NA
ATOM      8  C   UNL     1      44.724   5.377  12.566  0.00  0.00    +0.000 A 
ATOM      9  N   UNL     1      44.529   6.724  12.513  0.00  0.00    +0.000 N 
ATOM     10  C   UNL     1      45.686   7.354  12.890  0.00  0.00    +0.000 A 
ATOM     11  C   UNL     1      46.657   6.402  13.191  0.00  0.00    +0.000 A 
ATOM     12  C   UNL     1      46.010   5.144  13.002  0.00  0.00    +0.000 A 
ATOM     13  C   UNL     1      46.402   3.766  13.156  0.00  0.00    +0.000 A 
ATOM     14  O   UNL     1      47.492   3.406  13.594  0.00  0.00    +0.000 OA
ATOM     15  N   UNL     1      45.420   2.871  12.781  0.00  0.00    +0.000 N 
ATOM     16  H   UNL     1      42.506   2.552  11.523  0.00  0.00    +0.000 HD
ATOM     17  H   UNL     1      43.729   1.395  11.627  0.00  0.00    +0.000 HD
ATOM     18  H   UNL     1      43.665   7.168  12.233  0.00  0.00    +0.000 HD
ATOM     19  H   UNL     1      45.642   1.899  12.912  0.00  0.00    +0.000 HD
ENDBRANCH   1  11
BRANCH   3  20
ATOM     20  C   UNL     1      49.467   7.758  15.309  0.00  0.00    +0.000 C 
BRANCH  20  21
ATOM     21  C   UNL     1      50.100   6.726  16.207  0.00  0.00    +0.000 A 
ATOM     22  C   UNL     1      51.488   6.715  16.394  0.00  0.00    +0.000 A 
ATOM     23  C   UNL     1      52.090   5.756  17.214  0.00  0.00    +0.000 A 
ATOM     24  C   UNL     1      51.316   4.792  17.874  0.00  0.00    +0.000 A 
ATOM     25  C   UNL     1      49.928   4.803  17.687  0.00  0.00    +0.000 A 
ATOM     26  C   UNL     1      49.327   5.752  16.851  0.00  0.00    +0.000 A 
BRANCH  24  27
ATOM     27  C   UNL     1      51.971   3.745  18.750  0.00  0.00    +0.000 C 
BRANCH  27  28
ATOM     28  C   UNL     1      52.824   2.712  18.044  0.00  0.00    +0.000 A 
ATOM     29  C   UNL     1      52.318   1.450  17.732  0.00  0.00    +0.000 A 
ATOM     30  C   UNL     1      53.172   0.488  17.198  0.00  0.00    +0.000 A 
ATOM     31  C   UNL     1      54.507   0.802  16.989  0.00  0.00    +0.000 A 
ATOM     32  C   UNL     1      54.932   2.079  17.314  0.00  0.00    +0.000 A 
ATOM     33  N   UNL     1      54.127   3.032  17.836  0.00  0.00    +0.000 NA
ENDBRANCH  27  28
ENDBRANCH  24  27
ENDBRANCH  20  21
ENDBRANCH   3  20
TORSDOF 5
ENDMDL
MODEL 8
REMARK VINA RESULT:    -7.148      3.097      4.550
REMARK INTER + INTRA:          -9.850
REMARK INTER:                  -8.929
REMARK INTRA:                  -0.921
REMARK UNBOUND:                -0.613
REMARK  Name = 
REMARK  5 active torsions:
REMARK  status: ('A' for Active; 'I' for Inactive)
REMARK    1  A    between atoms: C_7  and  C_8
REMARK    2  A    between atoms: N_10  and  C_11
REMARK    3  A    between atoms: C_11  and  C_12
REMARK    4  A    between atoms: C_15  and  C_16
REMARK    5  A    between atoms: C_16  and  C_17
REMARK                            x       y       z     vdW  Elec       q    Type
REMARK                         _______ _______ _______ _____ _____    ______ ____
ROOT
ATOM      1  C   UNL     1      47.135   8.294  13.449  0.00  0.00    +0.000 C 
ATOM      2  O   UNL     1      46.024   8.819  13.464  0.00  0.00    +0.000 OA
ATOM      3  N   UNL     1      47.302   6.942  13.629  0.00  0.00    +0.000 N 
ATOM      4  H   UNL     1      48.215   6.519  13.487  0.00  0.00    +0.000 HD
ENDROOT
BRANCH   1  11
ATOM      5  N   UNL     1      53.468   9.018  11.323  0.00  0.00    +0.000 N 
ATOM      6  C   UNL     1      52.187   9.013  11.774  0.00  0.00    +0.000 A 
ATOM      7  N   UNL     1      51.707  10.054  12.391  0.00  0.00    +0.000 NA
ATOM      8  C   UNL     1      50.425   9.902  12.797  0.00  0.00    +0.000 A 
ATOM      9  N   UNL     1      49.730  10.868  13.461  0.00  0.00    +0.000 N 
ATOM     10  C   UNL     1      48.477  10.394  13.747  0.00  0.00    +0.000 A 
ATOM     11  C   UNL     1      48.351   9.092  13.266  0.00  0.00    +0.000 A 
ATOM     12  C   UNL     1      49.602   8.809  12.639  0.00  0.00    +0.000 A 
ATOM     13  C   UNL     1      50.149   7.684  11.925  0.00  0.00    +0.000 A 
ATOM     14  O   UNL     1      49.515   6.668  11.652  0.00  0.00    +0.000 OA
ATOM     15  N   UNL     1      51.466   7.861  11.549  0.00  0.00    +0.000 N 
ATOM     16  H   UNL     1      54.003   9.787  11.714  0.00  0.00    +0.000 HD
ATOM     17  H   UNL     1      53.967   8.139  11.357  0.00  0.00    +0.000 HD
ATOM     18  H   UNL     1      50.099  11.778  13.700  0.00  0.00    +0.000 HD
ATOM     19  H   UNL     1      51.872   7.113  11.013  0.00  0.00    +0.000 HD
ENDBRANCH   1  11
BRANCH   3  20
ATOM     20  C   UNL     1      46.169   6.060  13.777  0.00  0.00    +0.000 C 
BRANCH  20  21
ATOM     21  C   UNL     1      45.789   5.419  12.467  0.00  0.00    +0.000 A 
ATOM     22  C   UNL     1      46.025   6.092  11.261  0.00  0.00    +0.000 A 
ATOM     23  C   UNL     1      45.666   5.515  10.039  0.00  0.00    +0.000 A 
ATOM     24  C   UNL     1      45.070   4.247   9.995  0.00  0.00    +0.000 A 
ATOM     25  C   UNL     1      44.833   3.574  11.200  0.00  0.00    +0.000 A 
ATOM     26  C   UNL     1      45.177   4.159  12.424  0.00  0.00    +0.000 A 
BRANCH  24  27
ATOM     27  C   UNL     1      44.669   3.631   8.671  0.00  0.00    +0.000 C 
BRANCH  27  28
ATOM     28  C   UNL     1      45.751   2.888   7.916  0.00  0.00    +0.000 A 
ATOM     29  C   UNL     1      46.356   3.444   6.789  0.00  0.00    +0.000 A 
ATOM     30  C   UNL     1      47.254   2.677   6.050  0.00  0.00    +0.000 A 
ATOM     31  C   UNL     1      47.528   1.376   6.450  0.00  0.00    +0.000 A 
ATOM     32  C   UNL     1      46.896   0.898   7.585  0.00  0.00    +0.000 A 
ATOM     33  N   UNL     1      46.018   1.619   8.319  0.00  0.00    +0.000 NA
ENDBRANCH  27  28
ENDBRANCH  24  27
ENDBRANCH  20  21
ENDBRANCH   3  20
TORSDOF 5
ENDMDL
MODEL 9
REMARK VINA RESULT:    -7.139      1.913      2.687
REMARK INTER + INTRA:          -9.838
REMARK INTER:                  -9.488
REMARK INTRA:                  -0.351
REMARK UNBOUND:                -0.613
REMARK  Name = 
REMARK  5 active torsions:
REMARK  status: ('A' for Active; 'I' for Inactive)
REMARK    1  A    between atoms: C_7  and  C_8
REMARK    2  A    between atoms: N_10  and  C_11
REMARK    3  A    between atoms: C_11  and  C_12
REMARK    4  A    between atoms: C_15  and  C_16
REMARK    5  A    between atoms: C_16  and  C_17
REMARK                            x       y       z     vdW  Elec       q    Type
REMARK                         _______ _______ _______ _____ _____    ______ ____
ROOT
ATOM      1  C   UNL     1      48.833   6.327  15.502  0.00  0.00    +0.000 C 
ATOM      2  O   UNL     1      49.867   6.517  14.865  0.00  0.00    +0.000 OA
ATOM      3  N   UNL     1      47.607   6.732  15.032  0.00  0.00    +0.000 N 
ATOM      4  H   UNL     1      46.758   6.451  15.517  0.00  0.00    +0.000 HD
ENDROOT
BRANCH   1  11
ATOM      5  N   UNL     1      52.004   4.502  21.138  0.00  0.00    +0.000 N 
ATOM      6  C   UNL     1      51.242   4.830  20.063  0.00  0.00    +0.000 A 
ATOM      7  N   UNL     1      50.014   4.405  19.977  0.00  0.00    +0.000 NA
ATOM      8  C   UNL     1      49.381   4.795  18.846  0.00  0.00    +0.000 A 
ATOM      9  N   UNL     1      48.093   4.462  18.556  0.00  0.00    +0.000 N 
ATOM     10  C   UNL     1      47.763   4.991  17.336  0.00  0.00    +0.000 A 
ATOM     11  C   UNL     1      48.857   5.679  16.816  0.00  0.00    +0.000 A 
ATOM     12  C   UNL     1      49.872   5.561  17.813  0.00  0.00    +0.000 A 
ATOM     13  C   UNL     1      51.223   6.044  17.949  0.00  0.00    +0.000 A 
ATOM     14  O   UNL     1      51.772   6.788  17.141  0.00  0.00    +0.000 OA
ATOM     15  N   UNL     1      51.849   5.606  19.100  0.00  0.00    +0.000 N 
ATOM     16  H   UNL     1      51.584   3.757  21.686  0.00  0.00    +0.000 HD
ATOM     17  H   UNL     1      52.990   4.354  20.970  0.00  0.00    +0.000 HD
ATOM     18  H   UNL     1      47.494   3.908  19.154  0.00  0.00    +0.000 HD
ATOM     19  H   UNL     1      52.780   5.953  19.250  0.00  0.00    +0.000 HD
ENDBRANCH   1  11
BRANCH   3  20
ATOM     20  C   UNL     1      47.466   7.343  13.732  0.00  0.00    +0.000 C 
BRANCH  20  21
ATOM     21  C   UNL     1      46.676   6.470  12.790  0.00  0.00    +0.000 A 
ATOM     22  C   UNL     1      46.724   6.703  11.410  0.00  0.00    +0.000 A 
ATOM     23  C   UNL     1      45.988   5.909  10.526  0.00  0.00    +0.000 A 
ATOM     24  C   UNL     1      45.192   4.857  11.002  0.00  0.00    +0.000 A 
ATOM     25  C   UNL     1      45.143   4.625  12.382  0.00  0.00    +0.000 A 
ATOM     26  C   UNL     1      45.867   5.431  13.269  0.00  0.00    +0.000 A 
BRANCH  24  27
ATOM     27  C   UNL     1      44.383   4.009  10.044  0.00  0.00    +0.000 C 
BRANCH  27  28
ATOM     28  C   UNL     1      45.153   3.325   8.934  0.00  0.00    +0.000 A 
ATOM     29  C   UNL     1      45.441   1.961   8.990  0.00  0.00    +0.000 A 
ATOM     30  C   UNL     1      46.259   1.398   8.013  0.00  0.00    +0.000 A 
ATOM     31  C   UNL     1      46.772   2.203   7.006  0.00  0.00    +0.000 A 
ATOM     32  C   UNL     1      46.432   3.545   7.012  0.00  0.00    +0.000 A 
ATOM     33  N   UNL     1      45.644   4.119   7.949  0.00  0.00    +0.000 NA
ENDBRANCH  27  28
ENDBRANCH  24  27
ENDBRANCH  20  21
ENDBRANCH   3  20
TORSDOF 5
ENDMDL
