MODEL 1
REMARK VINA RESULT:    -8.452      0.000      0.000
REMARK INTER + INTRA:         -13.101
REMARK INTER:                 -11.910
REMARK INTRA:                  -1.190
REMARK UNBOUND:                -1.190
REMARK  Name = 
REMARK  7 active torsions:
REMARK  status: ('A' for Active; 'I' for Inactive)
REMARK    1  A    between atoms: C_2  and  C_4
REMARK    2  A    between atoms: C_7  and  N_8
REMARK    3  A    between atoms: N_8  and  C_9
REMARK    4  A    between atoms: C_9  and  C_10
REMARK    5  A    between atoms: C_10  and  C_13
REMARK    6  A    between atoms: C_17  and  S_18
REMARK    7  A    between atoms: S_18  and  C_19
REMARK                            x       y       z     vdW  Elec       q    Type
REMARK                         _______ _______ _______ _____ _____    ______ ____
ROOT
ATOM      1  C   UNL     1      43.640   5.403  10.968  0.00  0.00    +0.000 C 
ENDROOT
BRANCH   1   2
ATOM      2  C   UNL     1      44.194   4.993  12.360  0.00  0.00    +0.000 C 
ATOM      3  F   UNL     1      43.346   5.442  13.332  0.00  0.00    +0.000 F 
ATOM      4  F   UNL     1      44.151   3.627  12.448  0.00  0.00    +0.000 F 
BRANCH   2   5
ATOM      5  C   UNL     1      45.600   5.535  12.541  0.00  0.00    +0.000 A 
ATOM      6  C   UNL     1      46.181   6.345  11.555  0.00  0.00    +0.000 A 
ATOM      7  C   UNL     1      47.436   6.917  11.764  0.00  0.00    +0.000 A 
ATOM      8  C   UNL     1      48.122   6.687  12.959  0.00  0.00    +0.000 A 
ATOM      9  C   UNL     1      47.565   5.872  13.949  0.00  0.00    +0.000 A 
ATOM     10  C   UNL     1      46.309   5.296  13.733  0.00  0.00    +0.000 A 
BRANCH   9  11
ATOM     11  S   UNL     1      48.358   5.724  15.536  0.00  0.00    +0.000 S 
BRANCH  11  12
ATOM     12  C   UNL     1      47.318   4.420  16.285  0.00  0.00    +0.000 C 
ATOM     13  C   UNL     1      47.425   4.459  17.832  0.00  0.00    +0.000 C 
ATOM     14  C   UNL     1      47.585   2.929  17.811  0.00  0.00    +0.000 C 
ATOM     15  C   UNL     1      48.019   3.044  16.337  0.00  0.00    +0.000 C 
ENDBRANCH  11  12
ENDBRANCH   9  11
ENDBRANCH   2   5
ENDBRANCH   1   2
BRANCH   1  16
ATOM     16  N   UNL     1      43.435   4.264  10.060  0.00  0.00    +0.000 N 
ATOM     17  H   UNL     1      42.759   3.574  10.388  0.00  0.00    +0.000 HD
BRANCH  16  21
ATOM     18  C   UNL     1      46.454   2.469   7.718  0.00  0.00    +0.000 A 
ATOM     19  C   UNL     1      46.254   3.846   7.642  0.00  0.00    +0.000 A 
ATOM     20  C   UNL     1      45.269   4.459   8.429  0.00  0.00    +0.000 A 
ATOM     21  C   UNL     1      44.488   3.722   9.328  0.00  0.00    +0.000 A 
ATOM     22  C   UNL     1      44.693   2.337   9.376  0.00  0.00    +0.000 A 
ATOM     23  C   UNL     1      45.659   1.711   8.583  0.00  0.00    +0.000 A 
BRANCH  18  25
ATOM     24  N   UNL     1      48.520   2.513   6.430  0.00  0.00    +0.000 N 
ATOM     25  C   UNL     1      47.462   1.771   6.877  0.00  0.00    +0.000 C 
ATOM     26  O   UNL     1      47.374   0.578   6.621  0.00  0.00    +0.000 OA
ATOM     27  H   UNL     1      49.249   2.000   5.953  0.00  0.00    +0.000 HD
ATOM     28  H   UNL     1      48.758   3.408   6.830  0.00  0.00    +0.000 HD
ENDBRANCH  18  25
ENDBRANCH  16  21
ENDBRANCH   1  16
TORSDOF 7
ENDMDL
MODEL 2
REMARK VINA RESULT:    -8.223      1.977      3.368
REMARK INTER + INTRA:         -12.778
REMARK INTER:                 -11.867
REMARK INTRA:                  -0.911
REMARK UNBOUND:                -1.190
REMARK  Name = 
REMARK  7 active torsions:
REMARK  status: ('A' for Active; 'I' for Inactive)
REMARK    1  A    between atoms: C_2  and  C_4
REMARK    2  A    between atoms: C_7  and  N_8
REMARK    3  A    between atoms: N_8  and  C_9
REMARK    4  A    between atoms: C_9  and  C_10
REMARK    5  A    between atoms: C_10  and  C_13
REMARK    6  A    between atoms: C_17  and  S_18
REMARK    7  A    between atoms: S_18  and  C_19
REMARK                            x       y       z     vdW  Elec       q    Type
REMARK                         _______ _______ _______ _____ _____    ______ ____
ROOT
ATOM      1  C   UNL     1      43.230   4.130  11.358  0.00  0.00    +0.000 C 
ENDROOT
BRANCH   1   2
ATOM      2  C   UNL     1      43.255   5.195  12.488  0.00  0.00    +0.000 C 
ATOM      3  F   UNL     1      42.564   6.301  12.080  0.00  0.00    +0.000 F 
ATOM      4  F   UNL     1      42.548   4.701  13.551  0.00  0.00    +0.000 F 
BRANCH   2   5
ATOM      5  C   UNL     1      44.689   5.528  12.857  0.00  0.00    +0.000 A 
ATOM      6  C   UNL     1      45.556   4.525  13.311  0.00  0.00    +0.000 A 
ATOM      7  C   UNL     1      46.898   4.814  13.562  0.00  0.00    +0.000 A 
ATOM      8  C   UNL     1      47.386   6.107  13.360  0.00  0.00    +0.000 A 
ATOM      9  C   UNL     1      46.534   7.124  12.920  0.00  0.00    +0.000 A 
ATOM     10  C   UNL     1      45.189   6.831  12.675  0.00  0.00    +0.000 A 
BRANCH   9  11
ATOM     11  S   UNL     1      47.194   8.723  12.496  0.00  0.00    +0.000 S 
BRANCH  11  12
ATOM     12  C   UNL     1      48.982   8.380  12.675  0.00  0.00    +0.000 C 
ATOM     13  C   UNL     1      49.813   9.659  12.396  0.00  0.00    +0.000 C 
ATOM     14  C   UNL     1      50.750   8.803  11.526  0.00  0.00    +0.000 C 
ATOM     15  C   UNL     1      49.611   7.772  11.401  0.00  0.00    +0.000 C 
ENDBRANCH  11  12
ENDBRANCH   9  11
ENDBRANCH   2   5
ENDBRANCH   1   2
BRANCH   1  16
ATOM     16  N   UNL     1      43.740   4.627  10.070  0.00  0.00    +0.000 N 
ATOM     17  H   UNL     1      43.046   5.100   9.491  0.00  0.00    +0.000 HD
BRANCH  16  21
ATOM     18  C   UNL     1      46.437   2.341   7.765  0.00  0.00    +0.000 A 
ATOM     19  C   UNL     1      46.416   3.726   7.622  0.00  0.00    +0.000 A 
ATOM     20  C   UNL     1      45.540   4.501   8.396  0.00  0.00    +0.000 A 
ATOM     21  C   UNL     1      44.694   3.917   9.346  0.00  0.00    +0.000 A 
ATOM     22  C   UNL     1      44.718   2.521   9.462  0.00  0.00    +0.000 A 
ATOM     23  C   UNL     1      45.573   1.736   8.682  0.00  0.00    +0.000 A 
BRANCH  18  25
ATOM     24  N   UNL     1      48.427   2.066   6.388  0.00  0.00    +0.000 N 
ATOM     25  C   UNL     1      47.323   1.477   6.941  0.00  0.00    +0.000 C 
ATOM     26  O   UNL     1      47.101   0.283   6.788  0.00  0.00    +0.000 OA
ATOM     27  H   UNL     1      49.074   1.442   5.924  0.00  0.00    +0.000 HD
ATOM     28  H   UNL     1      48.776   2.958   6.702  0.00  0.00    +0.000 HD
ENDBRANCH  18  25
ENDBRANCH  16  21
ENDBRANCH   1  16
TORSDOF 7
ENDMDL
MODEL 3
REMARK VINA RESULT:    -8.107      2.098      4.009
REMARK INTER + INTRA:         -12.615
REMARK INTER:                 -11.847
REMARK INTRA:                  -0.768
REMARK UNBOUND:                -1.190
REMARK  Name = 
REMARK  7 active torsions:
REMARK  status: ('A' for Active; 'I' for Inactive)
REMARK    1  A    between atoms: C_2  and  C_4
REMARK    2  A    between atoms: C_7  and  N_8
REMARK    3  A    between atoms: N_8  and  C_9
REMARK    4  A    between atoms: C_9  and  C_10
REMARK    5  A    between atoms: C_10  and  C_13
REMARK    6  A    between atoms: C_17  and  S_18
REMARK    7  A    between atoms: S_18  and  C_19
REMARK                            x       y       z     vdW  Elec       q    Type
REMARK                         _______ _______ _______ _____ _____    ______ ____
ROOT
ATOM      1  C   UNL     1      43.425   3.645  11.659  0.00  0.00    +0.000 C 
ENDROOT
BRANCH   1   2
ATOM      2  C   UNL     1      43.356   4.670  12.824  0.00  0.00    +0.000 C 
ATOM      3  F   UNL     1      42.431   5.629  12.525  0.00  0.00    +0.000 F 
ATOM      4  F   UNL     1      42.862   4.025  13.926  0.00  0.00    +0.000 F 
BRANCH   2   5
ATOM      5  C   UNL     1      44.729   5.266  13.075  0.00  0.00    +0.000 A 
ATOM      6  C   UNL     1      45.742   4.493  13.661  0.00  0.00    +0.000 A 
ATOM      7  C   UNL     1      47.028   5.013  13.806  0.00  0.00    +0.000 A 
ATOM      8  C   UNL     1      47.316   6.307  13.367  0.00  0.00    +0.000 A 
ATOM      9  C   UNL     1      46.317   7.098  12.792  0.00  0.00    +0.000 A 
ATOM     10  C   UNL     1      45.027   6.575  12.653  0.00  0.00    +0.000 A 
BRANCH   9  11
ATOM     11  S   UNL     1      46.726   8.675  12.076  0.00  0.00    +0.000 S 
BRANCH  11  12
ATOM     12  C   UNL     1      45.116   9.525  12.249  0.00  0.00    +0.000 C 
ATOM     13  C   UNL     1      44.231   9.277  10.999  0.00  0.00    +0.000 C 
ATOM     14  C   UNL     1      43.898  10.778  10.997  0.00  0.00    +0.000 C 
ATOM     15  C   UNL     1      45.170  11.012  11.834  0.00  0.00    +0.000 C 
ENDBRANCH  11  12
ENDBRANCH   9  11
ENDBRANCH   2   5
ENDBRANCH   1   2
BRANCH   1  16
ATOM     16  N   UNL     1      43.722   4.258  10.354  0.00  0.00    +0.000 N 
ATOM     17  H   UNL     1      42.908   4.625   9.862  0.00  0.00    +0.000 HD
BRANCH  16  21
ATOM     18  C   UNL     1      46.516   2.537   7.700  0.00  0.00    +0.000 A 
ATOM     19  C   UNL     1      46.326   3.917   7.695  0.00  0.00    +0.000 A 
ATOM     20  C   UNL     1      45.416   4.505   8.585  0.00  0.00    +0.000 A 
ATOM     21  C   UNL     1      44.705   3.738   9.516  0.00  0.00    +0.000 A 
ATOM     22  C   UNL     1      44.897   2.350   9.492  0.00  0.00    +0.000 A 
ATOM     23  C   UNL     1      45.787   1.750   8.597  0.00  0.00    +0.000 A 
BRANCH  18  25
ATOM     24  N   UNL     1      48.574   2.550   6.397  0.00  0.00    +0.000 N 
ATOM     25  C   UNL     1      47.443   1.866   6.751  0.00  0.00    +0.000 C 
ATOM     26  O   UNL     1      47.229   0.738   6.327  0.00  0.00    +0.000 OA
ATOM     27  H   UNL     1      49.244   2.037   5.840  0.00  0.00    +0.000 HD
ATOM     28  H   UNL     1      48.906   3.347   6.918  0.00  0.00    +0.000 HD
ENDBRANCH  18  25
ENDBRANCH  16  21
ENDBRANCH   1  16
TORSDOF 7
ENDMDL
MODEL 4
REMARK VINA RESULT:    -7.747      2.309      2.942
REMARK INTER + INTRA:         -12.108
REMARK INTER:                 -11.098
REMARK INTRA:                  -1.009
REMARK UNBOUND:                -1.190
REMARK  Name = 
REMARK  7 active torsions:
REMARK  status: ('A' for Active; 'I' for Inactive)
REMARK    1  A    between atoms: C_2  and  C_4
REMARK    2  A    between atoms: C_7  and  N_8
REMARK    3  A    between atoms: N_8  and  C_9
REMARK    4  A    between atoms: C_9  and  C_10
REMARK    5  A    between atoms: C_10  and  C_13
REMARK    6  A    between atoms: C_17  and  S_18
REMARK    7  A    between atoms: S_18  and  C_19
REMARK                            x       y       z     vdW  Elec       q    Type
REMARK                         _______ _______ _______ _____ _____    ______ ____
ROOT
ATOM      1  C   UNL     1      43.503   3.517  11.559  0.00  0.00    +0.000 C 
ENDROOT
BRANCH   1   2
ATOM      2  C   UNL     1      43.137   4.782  12.383  0.00  0.00    +0.000 C 
ATOM      3  F   UNL     1      41.936   5.269  11.951  0.00  0.00    +0.000 F 
ATOM      4  F   UNL     1      42.923   4.396  13.679  0.00  0.00    +0.000 F 
BRANCH   2   5
ATOM      5  C   UNL     1      44.242   5.816  12.268  0.00  0.00    +0.000 A 
ATOM      6  C   UNL     1      44.011   7.032  11.608  0.00  0.00    +0.000 A 
ATOM      7  C   UNL     1      44.998   8.017  11.585  0.00  0.00    +0.000 A 
ATOM      8  C   UNL     1      46.223   7.800  12.220  0.00  0.00    +0.000 A 
ATOM      9  C   UNL     1      46.476   6.590  12.872  0.00  0.00    +0.000 A 
ATOM     10  C   UNL     1      45.487   5.602  12.889  0.00  0.00    +0.000 A 
BRANCH   9  11
ATOM     11  S   UNL     1      47.965   6.384  13.827  0.00  0.00    +0.000 S 
BRANCH  11  12
ATOM     12  C   UNL     1      48.861   7.903  13.341  0.00  0.00    +0.000 C 
ATOM     13  C   UNL     1      49.808   7.618  12.147  0.00  0.00    +0.000 C 
ATOM     14  C   UNL     1      50.902   8.404  12.890  0.00  0.00    +0.000 C 
ATOM     15  C   UNL     1      50.122   8.159  14.196  0.00  0.00    +0.000 C 
ENDBRANCH  11  12
ENDBRANCH   9  11
ENDBRANCH   2   5
ENDBRANCH   1   2
BRANCH   1  16
ATOM     16  N   UNL     1      43.462   3.731  10.104  0.00  0.00    +0.000 N 
ATOM     17  H   UNL     1      42.560   3.534   9.670  0.00  0.00    +0.000 HD
BRANCH  16  21
ATOM     18  C   UNL     1      46.623   2.683   7.512  0.00  0.00    +0.000 A 
ATOM     19  C   UNL     1      46.270   4.023   7.655  0.00  0.00    +0.000 A 
ATOM     20  C   UNL     1      45.235   4.388   8.528  0.00  0.00    +0.000 A 
ATOM     21  C   UNL     1      44.557   3.435   9.297  0.00  0.00    +0.000 A 
ATOM     22  C   UNL     1      44.916   2.091   9.125  0.00  0.00    +0.000 A 
ATOM     23  C   UNL     1      45.933   1.712   8.243  0.00  0.00    +0.000 A 
BRANCH  18  25
ATOM     24  N   UNL     1      47.841   2.970   5.422  0.00  0.00    +0.000 N 
ATOM     25  C   UNL     1      47.689   2.245   6.572  0.00  0.00    +0.000 C 
ATOM     26  O   UNL     1      48.425   1.301   6.825  0.00  0.00    +0.000 OA
ATOM     27  H   UNL     1      48.638   2.727   4.849  0.00  0.00    +0.000 HD
ATOM     28  H   UNL     1      47.441   3.889   5.307  0.00  0.00    +0.000 HD
ENDBRANCH  18  25
ENDBRANCH  16  21
ENDBRANCH   1  16
TORSDOF 7
ENDMDL
MODEL 5
REMARK VINA RESULT:    -7.605      1.698      2.047
REMARK INTER + INTRA:         -11.908
REMARK INTER:                 -10.765
REMARK INTRA:                  -1.142
REMARK UNBOUND:                -1.190
REMARK  Name = 
REMARK  7 active torsions:
REMARK  status: ('A' for Active; 'I' for Inactive)
REMARK    1  A    between atoms: C_2  and  C_4
REMARK    2  A    between atoms: C_7  and  N_8
REMARK    3  A    between atoms: N_8  and  C_9
REMARK    4  A    between atoms: C_9  and  C_10
REMARK    5  A    between atoms: C_10  and  C_13
REMARK    6  A    between atoms: C_17  and  S_18
REMARK    7  A    between atoms: S_18  and  C_19
REMARK                            x       y       z     vdW  Elec       q    Type
REMARK                         _______ _______ _______ _____ _____    ______ ____
ROOT
ATOM      1  C   UNL     1      43.973   3.919  11.875  0.00  0.00    +0.000 C 
ENDROOT
BRANCH   1   2
ATOM      2  C   UNL     1      44.104   5.429  12.216  0.00  0.00    +0.000 C 
ATOM      3  F   UNL     1      43.578   6.168  11.195  0.00  0.00    +0.000 F 
ATOM      4  F   UNL     1      43.305   5.689  13.297  0.00  0.00    +0.000 F 
BRANCH   2   5
ATOM      5  C   UNL     1      45.557   5.779  12.479  0.00  0.00    +0.000 A 
ATOM      6  C   UNL     1      46.276   6.559  11.562  0.00  0.00    +0.000 A 
ATOM      7  C   UNL     1      47.582   6.957  11.850  0.00  0.00    +0.000 A 
ATOM      8  C   UNL     1      48.180   6.583  13.055  0.00  0.00    +0.000 A 
ATOM      9  C   UNL     1      47.484   5.796  13.976  0.00  0.00    +0.000 A 
ATOM     10  C   UNL     1      46.177   5.394  13.682  0.00  0.00    +0.000 A 
BRANCH   9  11
ATOM     11  S   UNL     1      48.182   5.469  15.581  0.00  0.00    +0.000 S 
BRANCH  11  12
ATOM     12  C   UNL     1      49.400   6.831  15.675  0.00  0.00    +0.000 C 
ATOM     13  C   UNL     1      50.515   6.495  16.700  0.00  0.00    +0.000 C 
ATOM     14  C   UNL     1      50.366   7.921  17.257  0.00  0.00    +0.000 C 
ATOM     15  C   UNL     1      48.961   7.968  16.624  0.00  0.00    +0.000 C 
ENDBRANCH  11  12
ENDBRANCH   9  11
ENDBRANCH   2   5
ENDBRANCH   1   2
BRANCH   1  16
ATOM     16  N   UNL     1      43.679   3.660  10.458  0.00  0.00    +0.000 N 
ATOM     17  H   UNL     1      42.825   3.127  10.290  0.00  0.00    +0.000 HD
BRANCH  16  21
ATOM     18  C   UNL     1      46.590   2.740   7.543  0.00  0.00    +0.000 A 
ATOM     19  C   UNL     1      46.244   4.070   7.771  0.00  0.00    +0.000 A 
ATOM     20  C   UNL     1      45.294   4.392   8.750  0.00  0.00    +0.000 A 
ATOM     21  C   UNL     1      44.695   3.404   9.541  0.00  0.00    +0.000 A 
ATOM     22  C   UNL     1      45.044   2.072   9.284  0.00  0.00    +0.000 A 
ATOM     23  C   UNL     1      45.976   1.736   8.298  0.00  0.00    +0.000 A 
BRANCH  18  25
ATOM     24  N   UNL     1      47.474   2.988   5.288  0.00  0.00    +0.000 N 
ATOM     25  C   UNL     1      47.566   2.348   6.493  0.00  0.00    +0.000 C 
ATOM     26  O   UNL     1      48.438   1.516   6.700  0.00  0.00    +0.000 OA
ATOM     27  H   UNL     1      48.211   2.789   4.624  0.00  0.00    +0.000 HD
ATOM     28  H   UNL     1      46.953   3.844   5.171  0.00  0.00    +0.000 HD
ENDBRANCH  18  25
ENDBRANCH  16  21
ENDBRANCH   1  16
TORSDOF 7
ENDMDL
MODEL 6
REMARK VINA RESULT:    -7.105      4.061      7.712
REMARK INTER + INTRA:         -11.203
REMARK INTER:                 -10.111
REMARK INTRA:                  -1.093
REMARK UNBOUND:                -1.190
REMARK  Name = 
REMARK  7 active torsions:
REMARK  status: ('A' for Active; 'I' for Inactive)
REMARK    1  A    between atoms: C_2  and  C_4
REMARK    2  A    between atoms: C_7  and  N_8
REMARK    3  A    between atoms: N_8  and  C_9
REMARK    4  A    between atoms: C_9  and  C_10
REMARK    5  A    between atoms: C_10  and  C_13
REMARK    6  A    between atoms: C_17  and  S_18
REMARK    7  A    between atoms: S_18  and  C_19
REMARK                            x       y       z     vdW  Elec       q    Type
REMARK                         _______ _______ _______ _____ _____    ______ ____
ROOT
ATOM      1  C   UNL     1      46.071   7.186  12.932  0.00  0.00    +0.000 C 
ENDROOT
BRANCH   1   2
ATOM      2  C   UNL     1      45.725   6.684  11.503  0.00  0.00    +0.000 C 
ATOM      3  F   UNL     1      44.969   7.627  10.866  0.00  0.00    +0.000 F 
ATOM      4  F   UNL     1      46.889   6.612  10.786  0.00  0.00    +0.000 F 
BRANCH   2   5
ATOM      5  C   UNL     1      45.015   5.345  11.579  0.00  0.00    +0.000 A 
ATOM      6  C   UNL     1      44.149   5.060  12.644  0.00  0.00    +0.000 A 
ATOM      7  C   UNL     1      43.427   3.867  12.663  0.00  0.00    +0.000 A 
ATOM      8  C   UNL     1      43.562   2.948  11.620  0.00  0.00    +0.000 A 
ATOM      9  C   UNL     1      44.430   3.208  10.557  0.00  0.00    +0.000 A 
ATOM     10  C   UNL     1      45.156   4.403  10.543  0.00  0.00    +0.000 A 
BRANCH   9  11
ATOM     11  S   UNL     1      44.468   2.121   9.147  0.00  0.00    +0.000 S 
BRANCH  11  12
ATOM     12  C   UNL     1      46.095   2.576   8.445  0.00  0.00    +0.000 C 
ATOM     13  C   UNL     1      45.916   3.337   7.105  0.00  0.00    +0.000 C 
ATOM     14  C   UNL     1      47.021   2.450   6.509  0.00  0.00    +0.000 C 
ATOM     15  C   UNL     1      46.743   1.432   7.632  0.00  0.00    +0.000 C 
ENDBRANCH  11  12
ENDBRANCH   9  11
ENDBRANCH   2   5
ENDBRANCH   1   2
BRANCH   1  16
ATOM     16  N   UNL     1      47.455   6.895  13.337  0.00  0.00    +0.000 N 
ATOM     17  H   UNL     1      48.119   6.828  12.566  0.00  0.00    +0.000 HD
BRANCH  16  21
ATOM     18  C   UNL     1      48.213   4.498  16.727  0.00  0.00    +0.000 A 
ATOM     19  C   UNL     1      47.341   4.038  15.743  0.00  0.00    +0.000 A 
ATOM     20  C   UNL     1      47.095   4.814  14.602  0.00  0.00    +0.000 A 
ATOM     21  C   UNL     1      47.735   6.043  14.402  0.00  0.00    +0.000 A 
ATOM     22  C   UNL     1      48.594   6.496  15.412  0.00  0.00    +0.000 A 
ATOM     23  C   UNL     1      48.833   5.740  16.563  0.00  0.00    +0.000 A 
BRANCH  18  25
ATOM     24  N   UNL     1      47.481   2.901  18.413  0.00  0.00    +0.000 N 
ATOM     25  C   UNL     1      48.477   3.726  17.970  0.00  0.00    +0.000 C 
ATOM     26  O   UNL     1      49.548   3.794  18.557  0.00  0.00    +0.000 OA
ATOM     27  H   UNL     1      47.717   2.303  19.195  0.00  0.00    +0.000 HD
ATOM     28  H   UNL     1      46.708   2.625  17.826  0.00  0.00    +0.000 HD
ENDBRANCH  18  25
ENDBRANCH  16  21
ENDBRANCH   1  16
TORSDOF 7
ENDMDL
MODEL 7
REMARK VINA RESULT:    -7.029      2.202      3.801
REMARK INTER + INTRA:         -11.096
REMARK INTER:                 -10.350
REMARK INTRA:                  -0.747
REMARK UNBOUND:                -1.190
REMARK  Name = 
REMARK  7 active torsions:
REMARK  status: ('A' for Active; 'I' for Inactive)
REMARK    1  A    between atoms: C_2  and  C_4
REMARK    2  A    between atoms: C_7  and  N_8
REMARK    3  A    between atoms: N_8  and  C_9
REMARK    4  A    between atoms: C_9  and  C_10
REMARK    5  A    between atoms: C_10  and  C_13
REMARK    6  A    between atoms: C_17  and  S_18
REMARK    7  A    between atoms: S_18  and  C_19
REMARK                            x       y       z     vdW  Elec       q    Type
REMARK                         _______ _______ _______ _____ _____    ______ ____
ROOT
ATOM      1  C   UNL     1      44.646   5.919  10.829  0.00  0.00    +0.000 C 
ENDROOT
BRANCH   1   2
ATOM      2  C   UNL     1      44.867   5.386  12.271  0.00  0.00    +0.000 C 
ATOM      3  F   UNL     1      43.793   5.721  13.045  0.00  0.00    +0.000 F 
ATOM      4  F   UNL     1      44.862   4.018  12.222  0.00  0.00    +0.000 F 
BRANCH   2   5
ATOM      5  C   UNL     1      46.165   5.934  12.836  0.00  0.00    +0.000 A 
ATOM      6  C   UNL     1      46.708   5.402  14.013  0.00  0.00    +0.000 A 
ATOM      7  C   UNL     1      47.946   5.843  14.480  0.00  0.00    +0.000 A 
ATOM      8  C   UNL     1      48.655   6.818  13.774  0.00  0.00    +0.000 A 
ATOM      9  C   UNL     1      48.124   7.371  12.605  0.00  0.00    +0.000 A 
ATOM     10  C   UNL     1      46.880   6.929  12.144  0.00  0.00    +0.000 A 
BRANCH   9  11
ATOM     11  S   UNL     1      49.104   8.481  11.617  0.00  0.00    +0.000 S 
BRANCH  11  12
ATOM     12  C   UNL     1      50.722   8.298  12.451  0.00  0.00    +0.000 C 
ATOM     13  C   UNL     1      51.231   9.672  12.960  0.00  0.00    +0.000 C 
ATOM     14  C   UNL     1      52.612   9.321  12.380  0.00  0.00    +0.000 C 
ATOM     15  C   UNL     1      51.912   8.295  11.466  0.00  0.00    +0.000 C 
ENDBRANCH  11  12
ENDBRANCH   9  11
ENDBRANCH   2   5
ENDBRANCH   1   2
BRANCH   1  16
ATOM     16  N   UNL     1      43.925   4.978   9.959  0.00  0.00    +0.000 N 
ATOM     17  H   UNL     1      42.996   4.717  10.292  0.00  0.00    +0.000 HD
BRANCH  16  21
ATOM     18  C   UNL     1      46.169   1.984   8.006  0.00  0.00    +0.000 A 
ATOM     19  C   UNL     1      45.178   1.616   8.913  0.00  0.00    +0.000 A 
ATOM     20  C   UNL     1      44.410   2.598   9.554  0.00  0.00    +0.000 A 
ATOM     21  C   UNL     1      44.591   3.960   9.282  0.00  0.00    +0.000 A 
ATOM     22  C   UNL     1      45.605   4.310   8.381  0.00  0.00    +0.000 A 
ATOM     23  C   UNL     1      46.390   3.340   7.749  0.00  0.00    +0.000 A 
BRANCH  18  25
ATOM     24  N   UNL     1      46.744  -0.339   7.556  0.00  0.00    +0.000 N 
ATOM     25  C   UNL     1      47.031   0.979   7.330  0.00  0.00    +0.000 C 
ATOM     26  O   UNL     1      47.936   1.307   6.575  0.00  0.00    +0.000 OA
ATOM     27  H   UNL     1      47.268  -1.006   7.004  0.00  0.00    +0.000 HD
ATOM     28  H   UNL     1      45.865  -0.640   7.948  0.00  0.00    +0.000 HD
ENDBRANCH  18  25
ENDBRANCH  16  21
ENDBRANCH   1  16
TORSDOF 7
ENDMDL
MODEL 8
REMARK VINA RESULT:    -6.413      4.630      7.924
REMARK INTER + INTRA:         -10.228
REMARK INTER:                  -9.317
REMARK INTRA:                  -0.911
REMARK UNBOUND:                -1.190
REMARK  Name = 
REMARK  7 active torsions:
REMARK  status: ('A' for Active; 'I' for Inactive)
REMARK    1  A    between atoms: C_2  and  C_4
REMARK    2  A    between atoms: C_7  and  N_8
REMARK    3  A    between atoms: N_8  and  C_9
REMARK    4  A    between atoms: C_9  and  C_10
REMARK    5  A    between atoms: C_10  and  C_13
REMARK    6  A    between atoms: C_17  and  S_18
REMARK    7  A    between atoms: S_18  and  C_19
REMARK                            x       y       z     vdW  Elec       q    Type
REMARK                         _______ _______ _______ _____ _____    ______ ____
ROOT
ATOM      1  C   UNL     1      47.131   4.838  14.861  0.00  0.00    +0.000 C 
ENDROOT
BRANCH   1   2
ATOM      2  C   UNL     1      47.447   6.057  13.951  0.00  0.00    +0.000 C 
ATOM      3  F   UNL     1      47.802   7.121  14.730  0.00  0.00    +0.000 F 
ATOM      4  F   UNL     1      48.566   5.759  13.219  0.00  0.00    +0.000 F 
BRANCH   2   5
ATOM      5  C   UNL     1      46.253   6.372  13.070  0.00  0.00    +0.000 A 
ATOM      6  C   UNL     1      45.954   7.698  12.727  0.00  0.00    +0.000 A 
ATOM      7  C   UNL     1      44.912   7.978  11.843  0.00  0.00    +0.000 A 
ATOM      8  C   UNL     1      44.161   6.938  11.291  0.00  0.00    +0.000 A 
ATOM      9  C   UNL     1      44.435   5.610  11.630  0.00  0.00    +0.000 A 
ATOM     10  C   UNL     1      45.477   5.334  12.521  0.00  0.00    +0.000 A 
BRANCH   9  11
ATOM     11  S   UNL     1      43.595   4.282  10.794  0.00  0.00    +0.000 S 
BRANCH  11  12
ATOM     12  C   UNL     1      45.006   3.531   9.904  0.00  0.00    +0.000 C 
ATOM     13  C   UNL     1      45.470   4.449   8.744  0.00  0.00    +0.000 C 
ATOM     14  C   UNL     1      45.524   3.203   7.843  0.00  0.00    +0.000 C 
ATOM     15  C   UNL     1      44.568   2.508   8.832  0.00  0.00    +0.000 C 
ENDBRANCH  11  12
ENDBRANCH   9  11
ENDBRANCH   2   5
ENDBRANCH   1   2
BRANCH   1  16
ATOM     16  N   UNL     1      47.591   5.007  16.249  0.00  0.00    +0.000 N 
ATOM     17  H   UNL     1      47.505   5.956  16.613  0.00  0.00    +0.000 HD
BRANCH  16  21
ATOM     18  C   UNL     1      50.953   2.780  17.494  0.00  0.00    +0.000 A 
ATOM     19  C   UNL     1      50.996   4.172  17.542  0.00  0.00    +0.000 A 
ATOM     20  C   UNL     1      49.880   4.924  17.151  0.00  0.00    +0.000 A 
ATOM     21  C   UNL     1      48.692   4.309  16.737  0.00  0.00    +0.000 A 
ATOM     22  C   UNL     1      48.675   2.909  16.679  0.00  0.00    +0.000 A 
ATOM     23  C   UNL     1      49.788   2.148  17.049  0.00  0.00    +0.000 A 
BRANCH  18  25
ATOM     24  N   UNL     1      52.903   2.385  18.898  0.00  0.00    +0.000 N 
ATOM     25  C   UNL     1      52.124   1.942  17.866  0.00  0.00    +0.000 C 
ATOM     26  O   UNL     1      52.366   0.885  17.300  0.00  0.00    +0.000 OA
ATOM     27  H   UNL     1      53.628   1.751  19.208  0.00  0.00    +0.000 HD
ATOM     28  H   UNL     1      52.591   3.094  19.544  0.00  0.00    +0.000 HD
ENDBRANCH  18  25
ENDBRANCH  16  21
ENDBRANCH   1  16
TORSDOF 7
ENDMDL
MODEL 9
REMARK VINA RESULT:    -6.144      3.258      4.744
REMARK INTER + INTRA:          -9.849
REMARK INTER:                  -8.740
REMARK INTRA:                  -1.110
REMARK UNBOUND:                -1.190
REMARK  Name = 
REMARK  7 active torsions:
REMARK  status: ('A' for Active; 'I' for Inactive)
REMARK    1  A    between atoms: C_2  and  C_4
REMARK    2  A    between atoms: C_7  and  N_8
REMARK    3  A    between atoms: N_8  and  C_9
REMARK    4  A    between atoms: C_9  and  C_10
REMARK    5  A    between atoms: C_10  and  C_13
REMARK    6  A    between atoms: C_17  and  S_18
REMARK    7  A    between atoms: S_18  and  C_19
REMARK                            x       y       z     vdW  Elec       q    Type
REMARK                         _______ _______ _______ _____ _____    ______ ____
ROOT
ATOM      1  C   UNL     1      47.382   8.307  12.545  0.00  0.00    +0.000 C 
ENDROOT
BRANCH   1   2
ATOM      2  C   UNL     1      48.790   7.915  13.069  0.00  0.00    +0.000 C 
ATOM      3  F   UNL     1      49.082   6.643  12.669  0.00  0.00    +0.000 F 
ATOM      4  F   UNL     1      49.712   8.710  12.441  0.00  0.00    +0.000 F 
BRANCH   2   5
ATOM      5  C   UNL     1      48.842   8.061  14.579  0.00  0.00    +0.000 A 
ATOM      6  C   UNL     1      48.356   9.220  15.198  0.00  0.00    +0.000 A 
ATOM      7  C   UNL     1      48.319   9.313  16.589  0.00  0.00    +0.000 A 
ATOM      8  C   UNL     1      48.766   8.248  17.375  0.00  0.00    +0.000 A 
ATOM      9  C   UNL     1      49.266   7.089  16.777  0.00  0.00    +0.000 A 
ATOM     10  C   UNL     1      49.306   7.002  15.382  0.00  0.00    +0.000 A 
BRANCH   9  11
ATOM     11  S   UNL     1      49.669   5.670  17.775  0.00  0.00    +0.000 S 
BRANCH  11  12
ATOM     12  C   UNL     1      48.674   4.395  16.922  0.00  0.00    +0.000 C 
ATOM     13  C   UNL     1      47.211   4.410  17.437  0.00  0.00    +0.000 C 
ATOM     14  C   UNL     1      47.278   2.876  17.528  0.00  0.00    +0.000 C 
ATOM     15  C   UNL     1      48.814   2.994  17.558  0.00  0.00    +0.000 C 
ENDBRANCH  11  12
ENDBRANCH   9  11
ENDBRANCH   2   5
ENDBRANCH   1   2
BRANCH   1  16
ATOM     16  N   UNL     1      46.281   7.680  13.292  0.00  0.00    +0.000 N 
ATOM     17  H   UNL     1      46.356   7.759  14.306  0.00  0.00    +0.000 HD
BRANCH  16  21
ATOM     18  C   UNL     1      44.601   4.133  11.738  0.00  0.00    +0.000 A 
ATOM     19  C   UNL     1      45.485   4.060  12.813  0.00  0.00    +0.000 A 
ATOM     20  C   UNL     1      46.035   5.231  13.353  0.00  0.00    +0.000 A 
ATOM     21  C   UNL     1      45.693   6.495  12.857  0.00  0.00    +0.000 A 
ATOM     22  C   UNL     1      44.817   6.546  11.765  0.00  0.00    +0.000 A 
ATOM     23  C   UNL     1      44.276   5.384  11.206  0.00  0.00    +0.000 A 
BRANCH  18  25
ATOM     24  N   UNL     1      44.720   2.356  10.077  0.00  0.00    +0.000 N 
ATOM     25  C   UNL     1      44.021   2.916  11.111  0.00  0.00    +0.000 C 
ATOM     26  O   UNL     1      42.983   2.412  11.518  0.00  0.00    +0.000 OA
ATOM     27  H   UNL     1      44.369   1.471   9.736  0.00  0.00    +0.000 HD
ATOM     28  H   UNL     1      45.686   2.582   9.894  0.00  0.00    +0.000 HD
ENDBRANCH  18  25
ENDBRANCH  16  21
ENDBRANCH   1  16
TORSDOF 7
ENDMDL
