MODEL 1
REMARK VINA RESULT:    -7.632      0.000      0.000
REMARK INTER + INTRA:          -9.974
REMARK INTER:                  -9.416
REMARK INTRA:                  -0.557
REMARK UNBOUND:                -0.557
REMARK  Name = 
REMARK  4 active torsions:
REMARK  status: ('A' for Active; 'I' for Inactive)
REMARK    1  A    between atoms: C_2  and  C_4
REMARK    2  A    between atoms: C_7  and  C_8
REMARK    3  A    between atoms: C_8  and  S_9
REMARK    4  A    between atoms: S_9  and  C_10
REMARK                            x       y       z     vdW  Elec       q    Type
REMARK                         _______ _______ _______ _____ _____    ______ ____
ROOT
ATOM      1  C   UNL     1      46.420   2.505   7.763  0.00  0.00    +0.000 A 
ATOM      2  C   UNL     1      46.267   3.894   7.761  0.00  0.00    +0.000 A 
ATOM      3  C   UNL     1      45.377   4.503   8.650  0.00  0.00    +0.000 A 
ATOM      4  C   UNL     1      44.590   3.740   9.529  0.00  0.00    +0.000 A 
ATOM      5  C   UNL     1      44.751   2.345   9.520  0.00  0.00    +0.000 A 
ATOM      6  C   UNL     1      45.653   1.733   8.643  0.00  0.00    +0.000 A 
ENDROOT
BRANCH   1   8
ATOM      7  N   UNL     1      48.480   2.535   6.468  0.00  0.00    +0.000 N 
ATOM      8  C   UNL     1      47.377   1.824   6.855  0.00  0.00    +0.000 C 
ATOM      9  O   UNL     1      47.217   0.664   6.499  0.00  0.00    +0.000 OA
ATOM     10  H   UNL     1      49.179   2.029   5.939  0.00  0.00    +0.000 HD
ATOM     11  H   UNL     1      48.768   3.383   6.934  0.00  0.00    +0.000 HD
ENDBRANCH   1   8
BRANCH   4  12
ATOM     12  C   UNL     1      43.643   4.382  10.529  0.00  0.00    +0.000 C 
BRANCH  12  13
ATOM     13  S   UNL     1      44.232   5.998  11.153  0.00  0.00    +0.000 S 
BRANCH  13  14
ATOM     14  C   UNL     1      45.595   5.596  12.233  0.00  0.00    +0.000 A 
ATOM     15  C   UNL     1      45.589   4.601  13.208  0.00  0.00    +0.000 A 
ATOM     16  C   UNL     1      46.715   4.449  14.003  0.00  0.00    +0.000 A 
ATOM     17  N   UNL     1      47.829   5.203  13.893  0.00  0.00    +0.000 NA
ATOM     18  C   UNL     1      47.816   6.160  12.944  0.00  0.00    +0.000 A 
ATOM     19  C   UNL     1      46.741   6.387  12.102  0.00  0.00    +0.000 A 
ENDBRANCH  13  14
ENDBRANCH  12  13
ENDBRANCH   4  12
TORSDOF 4
ENDMDL
MODEL 2
REMARK VINA RESULT:    -6.984      2.781      6.295
REMARK INTER + INTRA:          -9.174
REMARK INTER:                  -8.772
REMARK INTRA:                  -0.403
REMARK UNBOUND:                -0.557
REMARK  Name = 
REMARK  4 active torsions:
REMARK  status: ('A' for Active; 'I' for Inactive)
REMARK    1  A    between atoms: C_2  and  C_4
REMARK    2  A    between atoms: C_7  and  C_8
REMARK    3  A    between atoms: C_8  and  S_9
REMARK    4  A    between atoms: S_9  and  C_10
REMARK                            x       y       z     vdW  Elec       q    Type
REMARK                         _______ _______ _______ _____ _____    ______ ____
ROOT
ATOM      1  C   UNL     1      46.818   5.691  13.098  0.00  0.00    +0.000 A 
ATOM      2  C   UNL     1      46.319   4.435  13.451  0.00  0.00    +0.000 A 
ATOM      3  C   UNL     1      45.534   3.713  12.549  0.00  0.00    +0.000 A 
ATOM      4  C   UNL     1      45.194   4.242  11.293  0.00  0.00    +0.000 A 
ATOM      5  C   UNL     1      45.700   5.507  10.949  0.00  0.00    +0.000 A 
ATOM      6  C   UNL     1      46.500   6.227  11.844  0.00  0.00    +0.000 A 
ENDROOT
BRANCH   1   8
ATOM      7  N   UNL     1      47.442   7.821  14.095  0.00  0.00    +0.000 N 
ATOM      8  C   UNL     1      47.680   6.476  14.017  0.00  0.00    +0.000 C 
ATOM      9  O   UNL     1      48.539   5.946  14.709  0.00  0.00    +0.000 OA
ATOM     10  H   UNL     1      47.960   8.330  14.801  0.00  0.00    +0.000 HD
ATOM     11  H   UNL     1      46.596   8.243  13.739  0.00  0.00    +0.000 HD
ENDBRANCH   1   8
BRANCH   4  12
ATOM     12  C   UNL     1      44.373   3.460  10.282  0.00  0.00    +0.000 C 
BRANCH  12  13
ATOM     13  S   UNL     1      44.648   3.995   8.554  0.00  0.00    +0.000 S 
BRANCH  13  14
ATOM     14  C   UNL     1      45.849   2.841   7.910  0.00  0.00    +0.000 A 
ATOM     15  C   UNL     1      45.933   1.491   8.243  0.00  0.00    +0.000 A 
ATOM     16  C   UNL     1      46.960   0.738   7.694  0.00  0.00    +0.000 A 
ATOM     17  N   UNL     1      47.891   1.229   6.848  0.00  0.00    +0.000 NA
ATOM     18  C   UNL     1      47.793   2.536   6.538  0.00  0.00    +0.000 A 
ATOM     19  C   UNL     1      46.804   3.367   7.034  0.00  0.00    +0.000 A 
ENDBRANCH  13  14
ENDBRANCH  12  13
ENDBRANCH   4  12
TORSDOF 4
ENDMDL
MODEL 3
REMARK VINA RESULT:    -5.775      3.267      6.439
REMARK INTER + INTRA:          -7.683
REMARK INTER:                  -7.213
REMARK INTRA:                  -0.469
REMARK UNBOUND:                -0.557
REMARK  Name = 
REMARK  4 active torsions:
REMARK  status: ('A' for Active; 'I' for Inactive)
REMARK    1  A    between atoms: C_2  and  C_4
REMARK    2  A    between atoms: C_7  and  C_8
REMARK    3  A    between atoms: C_8  and  S_9
REMARK    4  A    between atoms: S_9  and  C_10
REMARK                            x       y       z     vdW  Elec       q    Type
REMARK                         _______ _______ _______ _____ _____    ______ ____
ROOT
ATOM      1  C   UNL     1      46.452   7.409  13.054  0.00  0.00    +0.000 A 
ATOM      2  C   UNL     1      47.157   6.269  13.448  0.00  0.00    +0.000 A 
ATOM      3  C   UNL     1      46.653   4.998  13.159  0.00  0.00    +0.000 A 
ATOM      4  C   UNL     1      45.418   4.836  12.509  0.00  0.00    +0.000 A 
ATOM      5  C   UNL     1      44.717   5.989  12.121  0.00  0.00    +0.000 A 
ATOM      6  C   UNL     1      45.226   7.264  12.395  0.00  0.00    +0.000 A 
ENDROOT
BRANCH   1   8
ATOM      7  N   UNL     1      46.278   9.819  12.763  0.00  0.00    +0.000 N 
ATOM      8  C   UNL     1      46.969   8.776  13.317  0.00  0.00    +0.000 C 
ATOM      9  O   UNL     1      47.943   8.974  14.031  0.00  0.00    +0.000 OA
ATOM     10  H   UNL     1      46.572  10.749  13.034  0.00  0.00    +0.000 HD
ATOM     11  H   UNL     1      45.346   9.713  12.388  0.00  0.00    +0.000 HD
ENDBRANCH   1   8
BRANCH   4  12
ATOM     12  C   UNL     1      44.868   3.465  12.151  0.00  0.00    +0.000 C 
BRANCH  12  13
ATOM     13  S   UNL     1      43.827   3.470  10.647  0.00  0.00    +0.000 S 
BRANCH  13  14
ATOM     14  C   UNL     1      44.958   3.107   9.314  0.00  0.00    +0.000 A 
ATOM     15  C   UNL     1      45.390   1.835   8.944  0.00  0.00    +0.000 A 
ATOM     16  C   UNL     1      46.315   1.726   7.916  0.00  0.00    +0.000 A 
ATOM     17  N   UNL     1      46.826   2.777   7.241  0.00  0.00    +0.000 NA
ATOM     18  C   UNL     1      46.395   3.998   7.613  0.00  0.00    +0.000 A 
ATOM     19  C   UNL     1      45.475   4.208   8.625  0.00  0.00    +0.000 A 
ENDBRANCH  13  14
ENDBRANCH  12  13
ENDBRANCH   4  12
TORSDOF 4
ENDMDL
MODEL 4
REMARK VINA RESULT:    -5.582      3.043      5.881
REMARK INTER + INTRA:          -7.445
REMARK INTER:                  -6.819
REMARK INTRA:                  -0.626
REMARK UNBOUND:                -0.557
REMARK  Name = 
REMARK  4 active torsions:
REMARK  status: ('A' for Active; 'I' for Inactive)
REMARK    1  A    between atoms: C_2  and  C_4
REMARK    2  A    between atoms: C_7  and  C_8
REMARK    3  A    between atoms: C_8  and  S_9
REMARK    4  A    between atoms: S_9  and  C_10
REMARK                            x       y       z     vdW  Elec       q    Type
REMARK                         _______ _______ _______ _____ _____    ______ ____
ROOT
ATOM      1  C   UNL     1      47.851   7.278  12.451  0.00  0.00    +0.000 A 
ATOM      2  C   UNL     1      47.859   5.987  12.984  0.00  0.00    +0.000 A 
ATOM      3  C   UNL     1      46.663   5.279  13.126  0.00  0.00    +0.000 A 
ATOM      4  C   UNL     1      45.429   5.857  12.780  0.00  0.00    +0.000 A 
ATOM      5  C   UNL     1      45.433   7.157  12.248  0.00  0.00    +0.000 A 
ATOM      6  C   UNL     1      46.631   7.863  12.090  0.00  0.00    +0.000 A 
ENDROOT
BRANCH   1   8
ATOM      7  N   UNL     1      50.279   7.353  12.318  0.00  0.00    +0.000 N 
ATOM      8  C   UNL     1      49.104   8.051  12.257  0.00  0.00    +0.000 C 
ATOM      9  O   UNL     1      49.093   9.249  12.010  0.00  0.00    +0.000 OA
ATOM     10  H   UNL     1      51.119   7.865  12.078  0.00  0.00    +0.000 HD
ATOM     11  H   UNL     1      50.314   6.345  12.268  0.00  0.00    +0.000 HD
ENDBRANCH   1   8
BRANCH   4  12
ATOM     12  C   UNL     1      44.120   5.093  12.891  0.00  0.00    +0.000 C 
BRANCH  12  13
ATOM     13  S   UNL     1      43.134   5.115  11.351  0.00  0.00    +0.000 S 
BRANCH  13  14
ATOM     14  C   UNL     1      44.065   4.110  10.205  0.00  0.00    +0.000 A 
ATOM     15  C   UNL     1      44.117   2.718  10.207  0.00  0.00    +0.000 A 
ATOM     16  C   UNL     1      44.931   2.086   9.279  0.00  0.00    +0.000 A 
ATOM     17  N   UNL     1      45.681   2.734   8.363  0.00  0.00    +0.000 NA
ATOM     18  C   UNL     1      45.617   4.080   8.377  0.00  0.00    +0.000 A 
ATOM     19  C   UNL     1      44.833   4.800   9.262  0.00  0.00    +0.000 A 
ENDBRANCH  13  14
ENDBRANCH  12  13
ENDBRANCH   4  12
TORSDOF 4
ENDMDL
MODEL 5
REMARK VINA RESULT:    -5.304      3.121      6.887
REMARK INTER + INTRA:          -7.101
REMARK INTER:                  -6.699
REMARK INTRA:                  -0.402
REMARK UNBOUND:                -0.557
REMARK  Name = 
REMARK  4 active torsions:
REMARK  status: ('A' for Active; 'I' for Inactive)
REMARK    1  A    between atoms: C_2  and  C_4
REMARK    2  A    between atoms: C_7  and  C_8
REMARK    3  A    between atoms: C_8  and  S_9
REMARK    4  A    between atoms: S_9  and  C_10
REMARK                            x       y       z     vdW  Elec       q    Type
REMARK                         _______ _______ _______ _____ _____    ______ ____
ROOT
ATOM      1  C   UNL     1      47.622   5.132  15.247  0.00  0.00    +0.000 A 
ATOM      2  C   UNL     1      46.699   4.366  14.532  0.00  0.00    +0.000 A 
ATOM      3  C   UNL     1      46.279   4.776  13.264  0.00  0.00    +0.000 A 
ATOM      4  C   UNL     1      46.737   5.979  12.700  0.00  0.00    +0.000 A 
ATOM      5  C   UNL     1      47.663   6.742  13.430  0.00  0.00    +0.000 A 
ATOM      6  C   UNL     1      48.097   6.326  14.693  0.00  0.00    +0.000 A 
ENDROOT
BRANCH   1   8
ATOM      7  N   UNL     1      47.330   5.025  17.661  0.00  0.00    +0.000 N 
ATOM      8  C   UNL     1      48.114   4.713  16.584  0.00  0.00    +0.000 C 
ATOM      9  O   UNL     1      49.153   4.081  16.722  0.00  0.00    +0.000 OA
ATOM     10  H   UNL     1      47.618   4.644  18.554  0.00  0.00    +0.000 HD
ATOM     11  H   UNL     1      46.367   5.316  17.564  0.00  0.00    +0.000 HD
ENDBRANCH   1   8
BRANCH   4  12
ATOM     12  C   UNL     1      46.323   6.427  11.308  0.00  0.00    +0.000 C 
BRANCH  12  13
ATOM     13  S   UNL     1      44.705   5.757  10.779  0.00  0.00    +0.000 S 
BRANCH  13  14
ATOM     14  C   UNL     1      45.113   4.411   9.679  0.00  0.00    +0.000 A 
ATOM     15  C   UNL     1      45.750   4.538   8.446  0.00  0.00    +0.000 A 
ATOM     16  C   UNL     1      45.948   3.396   7.684  0.00  0.00    +0.000 A 
ATOM     17  N   UNL     1      45.566   2.158   8.061  0.00  0.00    +0.000 NA
ATOM     18  C   UNL     1      44.953   2.055   9.256  0.00  0.00    +0.000 A 
ATOM     19  C   UNL     1      44.711   3.135  10.087  0.00  0.00    +0.000 A 
ENDBRANCH  13  14
ENDBRANCH  12  13
ENDBRANCH   4  12
TORSDOF 4
ENDMDL
MODEL 6
REMARK VINA RESULT:    -5.260      3.368      6.446
REMARK INTER + INTRA:          -7.048
REMARK INTER:                  -6.663
REMARK INTRA:                  -0.385
REMARK UNBOUND:                -0.557
REMARK  Name = 
REMARK  4 active torsions:
REMARK  status: ('A' for Active; 'I' for Inactive)
REMARK    1  A    between atoms: C_2  and  C_4
REMARK    2  A    between atoms: C_7  and  C_8
REMARK    3  A    between atoms: C_8  and  S_9
REMARK    4  A    between atoms: S_9  and  C_10
REMARK                            x       y       z     vdW  Elec       q    Type
REMARK                         _______ _______ _______ _____ _____    ______ ____
ROOT
ATOM      1  C   UNL     1      46.335   8.184  12.671  0.00  0.00    +0.000 A 
ATOM      2  C   UNL     1      45.350   8.703  11.827  0.00  0.00    +0.000 A 
ATOM      3  C   UNL     1      44.353   7.868  11.317  0.00  0.00    +0.000 A 
ATOM      4  C   UNL     1      44.339   6.493  11.603  0.00  0.00    +0.000 A 
ATOM      5  C   UNL     1      45.336   5.982  12.450  0.00  0.00    +0.000 A 
ATOM      6  C   UNL     1      46.327   6.818  12.975  0.00  0.00    +0.000 A 
ENDROOT
BRANCH   1   8
ATOM      7  N   UNL     1      47.327  10.384  12.986  0.00  0.00    +0.000 N 
ATOM      8  C   UNL     1      47.394   9.045  13.257  0.00  0.00    +0.000 C 
ATOM      9  O   UNL     1      48.267   8.592  13.985  0.00  0.00    +0.000 OA
ATOM     10  H   UNL     1      47.987  10.976  13.475  0.00  0.00    +0.000 HD
ATOM     11  H   UNL     1      46.497  10.819  12.608  0.00  0.00    +0.000 HD
ENDBRANCH   1   8
BRANCH   4  12
ATOM     12  C   UNL     1      43.243   5.572  11.090  0.00  0.00    +0.000 C 
BRANCH  12  13
ATOM     13  S   UNL     1      43.675   3.798  11.199  0.00  0.00    +0.000 S 
BRANCH  13  14
ATOM     14  C   UNL     1      44.747   3.508   9.801  0.00  0.00    +0.000 A 
ATOM     15  C   UNL     1      45.313   4.494   8.997  0.00  0.00    +0.000 A 
ATOM     16  C   UNL     1      46.084   4.101   7.913  0.00  0.00    +0.000 A 
ATOM     17  N   UNL     1      46.329   2.815   7.584  0.00  0.00    +0.000 NA
ATOM     18  C   UNL     1      45.775   1.876   8.374  0.00  0.00    +0.000 A 
ATOM     19  C   UNL     1      44.992   2.169   9.477  0.00  0.00    +0.000 A 
ENDBRANCH  13  14
ENDBRANCH  12  13
ENDBRANCH   4  12
TORSDOF 4
ENDMDL
MODEL 7
REMARK VINA RESULT:    -5.067      4.155      7.193
REMARK INTER + INTRA:          -6.809
REMARK INTER:                  -6.404
REMARK INTRA:                  -0.405
REMARK UNBOUND:                -0.557
REMARK  Name = 
REMARK  4 active torsions:
REMARK  status: ('A' for Active; 'I' for Inactive)
REMARK    1  A    between atoms: C_2  and  C_4
REMARK    2  A    between atoms: C_7  and  C_8
REMARK    3  A    between atoms: C_8  and  S_9
REMARK    4  A    between atoms: S_9  and  C_10
REMARK                            x       y       z     vdW  Elec       q    Type
REMARK                         _______ _______ _______ _____ _____    ______ ____
ROOT
ATOM      1  C   UNL     1      47.981   4.591  16.418  0.00  0.00    +0.000 A 
ATOM      2  C   UNL     1      48.609   5.822  16.211  0.00  0.00    +0.000 A 
ATOM      3  C   UNL     1      48.401   6.525  15.022  0.00  0.00    +0.000 A 
ATOM      4  C   UNL     1      47.597   5.998  13.996  0.00  0.00    +0.000 A 
ATOM      5  C   UNL     1      46.973   4.759  14.214  0.00  0.00    +0.000 A 
ATOM      6  C   UNL     1      47.167   4.060  15.411  0.00  0.00    +0.000 A 
ENDROOT
BRANCH   1   8
ATOM      7  N   UNL     1      47.188   2.908  17.987  0.00  0.00    +0.000 N 
ATOM      8  C   UNL     1      48.153   3.829  17.680  0.00  0.00    +0.000 C 
ATOM      9  O   UNL     1      49.132   3.979  18.398  0.00  0.00    +0.000 OA
ATOM     10  H   UNL     1      47.367   2.319  18.790  0.00  0.00    +0.000 HD
ATOM     11  H   UNL     1      46.514   2.584  17.309  0.00  0.00    +0.000 HD
ENDBRANCH   1   8
BRANCH   4  12
ATOM     12  C   UNL     1      47.327   6.761  12.710  0.00  0.00    +0.000 C 
BRANCH  12  13
ATOM     13  S   UNL     1      45.571   7.227  12.497  0.00  0.00    +0.000 S 
BRANCH  13  14
ATOM     14  C   UNL     1      44.822   5.815  11.701  0.00  0.00    +0.000 A 
ATOM     15  C   UNL     1      45.204   5.284  10.471  0.00  0.00    +0.000 A 
ATOM     16  C   UNL     1      44.485   4.213   9.962  0.00  0.00    +0.000 A 
ATOM     17  N   UNL     1      43.432   3.642  10.586  0.00  0.00    +0.000 NA
ATOM     18  C   UNL     1      43.079   4.169  11.774  0.00  0.00    +0.000 A 
ATOM     19  C   UNL     1      43.735   5.236  12.363  0.00  0.00    +0.000 A 
ENDBRANCH  13  14
ENDBRANCH  12  13
ENDBRANCH   4  12
TORSDOF 4
ENDMDL
MODEL 8
REMARK VINA RESULT:    -5.005      4.508      5.739
REMARK INTER + INTRA:          -6.732
REMARK INTER:                  -6.357
REMARK INTRA:                  -0.375
REMARK UNBOUND:                -0.557
REMARK  Name = 
REMARK  4 active torsions:
REMARK  status: ('A' for Active; 'I' for Inactive)
REMARK    1  A    between atoms: C_2  and  C_4
REMARK    2  A    between atoms: C_7  and  C_8
REMARK    3  A    between atoms: C_8  and  S_9
REMARK    4  A    between atoms: S_9  and  C_10
REMARK                            x       y       z     vdW  Elec       q    Type
REMARK                         _______ _______ _______ _____ _____    ______ ____
ROOT
ATOM      1  C   UNL     1      44.498   5.396  12.020  0.00  0.00    +0.000 A 
ATOM      2  C   UNL     1      45.148   4.799  13.103  0.00  0.00    +0.000 A 
ATOM      3  C   UNL     1      46.452   5.175  13.434  0.00  0.00    +0.000 A 
ATOM      4  C   UNL     1      47.152   6.123  12.668  0.00  0.00    +0.000 A 
ATOM      5  C   UNL     1      46.489   6.715  11.580  0.00  0.00    +0.000 A 
ATOM      6  C   UNL     1      45.178   6.351  11.256  0.00  0.00    +0.000 A 
ENDROOT
BRANCH   1   8
ATOM      7  N   UNL     1      42.161   6.029  11.779  0.00  0.00    +0.000 N 
ATOM      8  C   UNL     1      43.102   5.044  11.656  0.00  0.00    +0.000 C 
ATOM      9  O   UNL     1      42.806   3.938  11.224  0.00  0.00    +0.000 OA
ATOM     10  H   UNL     1      41.236   5.814  11.428  0.00  0.00    +0.000 HD
ATOM     11  H   UNL     1      42.407   7.002  11.888  0.00  0.00    +0.000 HD
ENDBRANCH   1   8
BRANCH   4  12
ATOM     12  C   UNL     1      48.557   6.576  13.030  0.00  0.00    +0.000 C 
BRANCH  12  13
ATOM     13  S   UNL     1      48.631   7.549  14.577  0.00  0.00    +0.000 S 
BRANCH  13  14
ATOM     14  C   UNL     1      49.222   6.398  15.807  0.00  0.00    +0.000 A 
ATOM     15  C   UNL     1      48.449   5.434  16.451  0.00  0.00    +0.000 A 
ATOM     16  C   UNL     1      49.049   4.648  17.424  0.00  0.00    +0.000 A 
ATOM     17  N   UNL     1      50.343   4.753  17.791  0.00  0.00    +0.000 NA
ATOM     18  C   UNL     1      51.075   5.690  17.157  0.00  0.00    +0.000 A 
ATOM     19  C   UNL     1      50.566   6.520  16.172  0.00  0.00    +0.000 A 
ENDBRANCH  13  14
ENDBRANCH  12  13
ENDBRANCH   4  12
TORSDOF 4
ENDMDL
MODEL 9
REMARK VINA RESULT:    -4.908      3.473      4.887
REMARK INTER + INTRA:          -6.612
REMARK INTER:                  -6.245
REMARK INTRA:                  -0.367
REMARK UNBOUND:                -0.557
REMARK  Name = 
REMARK  4 active torsions:
REMARK  status: ('A' for Active; 'I' for Inactive)
REMARK    1  A    between atoms: C_2  and  C_4
REMARK    2  A    between atoms: C_7  and  C_8
REMARK    3  A    between atoms: C_8  and  S_9
REMARK    4  A    between atoms: S_9  and  C_10
REMARK                            x       y       z     vdW  Elec       q    Type
REMARK                         _______ _______ _______ _____ _____    ______ ____
ROOT
ATOM      1  C   UNL     1      44.951   4.052  11.439  0.00  0.00    +0.000 A 
ATOM      2  C   UNL     1      45.591   3.959  12.677  0.00  0.00    +0.000 A 
ATOM      3  C   UNL     1      46.314   5.046  13.176  0.00  0.00    +0.000 A 
ATOM      4  C   UNL     1      46.451   6.231  12.434  0.00  0.00    +0.000 A 
ATOM      5  C   UNL     1      45.805   6.311  11.190  0.00  0.00    +0.000 A 
ATOM      6  C   UNL     1      45.067   5.231  10.694  0.00  0.00    +0.000 A 
ENDROOT
BRANCH   1   8
ATOM      7  N   UNL     1      44.722   2.185   9.895  0.00  0.00    +0.000 N 
ATOM      8  C   UNL     1      44.148   2.930  10.889  0.00  0.00    +0.000 C 
ATOM      9  O   UNL     1      43.041   2.650  11.328  0.00  0.00    +0.000 OA
ATOM     10  H   UNL     1      44.214   1.359   9.601  0.00  0.00    +0.000 HD
ATOM     11  H   UNL     1      45.709   2.227   9.687  0.00  0.00    +0.000 HD
ENDBRANCH   1   8
BRANCH   4  12
ATOM     12  C   UNL     1      47.201   7.439  12.972  0.00  0.00    +0.000 C 
BRANCH  12  13
ATOM     13  S   UNL     1      49.019   7.236  12.943  0.00  0.00    +0.000 S 
BRANCH  13  14
ATOM     14  C   UNL     1      49.481   7.067  14.660  0.00  0.00    +0.000 A 
ATOM     15  C   UNL     1      48.707   6.469  15.651  0.00  0.00    +0.000 A 
ATOM     16  C   UNL     1      49.187   6.464  16.952  0.00  0.00    +0.000 A 
ATOM     17  N   UNL     1      50.368   7.002  17.326  0.00  0.00    +0.000 NA
ATOM     18  C   UNL     1      51.103   7.575  16.353  0.00  0.00    +0.000 A 
ATOM     19  C   UNL     1      50.709   7.628  15.027  0.00  0.00    +0.000 A 
ENDBRANCH  13  14
ENDBRANCH  12  13
ENDBRANCH   4  12
TORSDOF 4
ENDMDL
