MODEL 1
REMARK VINA RESULT:    -8.465      0.000      0.000
REMARK INTER + INTRA:         -11.733
REMARK INTER:                 -10.940
REMARK INTRA:                  -0.793
REMARK UNBOUND:                -0.793
REMARK  Name = 
REMARK  5 active torsions:
REMARK  status: ('A' for Active; 'I' for Inactive)
REMARK    1  A    between atoms: C_2  and  C_4
REMARK    2  A    between atoms: C_7  and  N_8
REMARK    3  A    between atoms: N_8  and  C_9
REMARK    4  A    between atoms: C_9  and  C_10
REMARK    5  A    between atoms: C_12  and  N_13
REMARK                            x       y       z     vdW  Elec       q    Type
REMARK                         _______ _______ _______ _____ _____    ______ ____
ROOT
ATOM      1  C   UNL     1      43.522   4.501  11.425  0.00  0.00    +0.000 C 
ENDROOT
BRANCH   1   2
ATOM      2  C   UNL     1      44.768   4.762  12.255  0.00  0.00    +0.000 A 
ATOM      3  C   UNL     1      45.329   6.035  12.335  0.00  0.00    +0.000 A 
ATOM      4  C   UNL     1      46.543   6.229  13.008  0.00  0.00    +0.000 A 
ATOM      5  C   UNL     1      47.127   5.105  13.595  0.00  0.00    +0.000 A 
ATOM      6  C   UNL     1      46.491   3.887  13.514  0.00  0.00    +0.000 A 
ATOM      7  N   UNL     1      45.331   3.685  12.856  0.00  0.00    +0.000 NA
BRANCH   4   8
ATOM      8  N   UNL     1      47.149   7.462  13.101  0.00  0.00    +0.000 N 
ATOM      9  C   UNL     1      46.384   8.699  13.284  0.00  0.00    +0.000 C 
ATOM     10  C   UNL     1      46.687   9.706  12.157  0.00  0.00    +0.000 C 
ATOM     11  N   UNL     1      48.132   9.957  11.955  0.00  0.00    +0.000 NA
ATOM     12  C   UNL     1      48.812   8.665  11.719  0.00  0.00    +0.000 C 
ATOM     13  C   UNL     1      48.586   7.625  12.843  0.00  0.00    +0.000 C 
ATOM     14  H   UNL     1      48.505  10.355  12.817  0.00  0.00    +0.000 HD
ENDBRANCH   4   8
ENDBRANCH   1   2
BRANCH   1  15
ATOM     15  N   UNL     1      43.741   4.770  10.004  0.00  0.00    +0.000 N 
ATOM     16  H   UNL     1      42.871   4.985   9.520  0.00  0.00    +0.000 HD
BRANCH  15  20
ATOM     17  C   UNL     1      46.337   2.276   7.778  0.00  0.00    +0.000 A 
ATOM     18  C   UNL     1      45.431   1.700   8.669  0.00  0.00    +0.000 A 
ATOM     19  C   UNL     1      44.560   2.511   9.408  0.00  0.00    +0.000 A 
ATOM     20  C   UNL     1      44.548   3.905   9.253  0.00  0.00    +0.000 A 
ATOM     21  C   UNL     1      45.470   4.464   8.357  0.00  0.00    +0.000 A 
ATOM     22  C   UNL     1      46.363   3.664   7.632  0.00  0.00    +0.000 A 
BRANCH  17  24
ATOM     23  N   UNL     1      48.428   2.093   6.541  0.00  0.00    +0.000 N 
ATOM     24  C   UNL     1      47.312   1.460   7.011  0.00  0.00    +0.000 C 
ATOM     25  O   UNL     1      47.150   0.257   6.834  0.00  0.00    +0.000 OA
ATOM     26  H   UNL     1      49.136   1.503   6.129  0.00  0.00    +0.000 HD
ATOM     27  H   UNL     1      48.718   2.996   6.895  0.00  0.00    +0.000 HD
ENDBRANCH  17  24
ENDBRANCH  15  20
ENDBRANCH   1  15
TORSDOF 5
ENDMDL
MODEL 2
REMARK VINA RESULT:    -8.268      1.855      3.157
REMARK INTER + INTRA:         -11.477
REMARK INTER:                 -10.751
REMARK INTRA:                  -0.726
REMARK UNBOUND:                -0.793
REMARK  Name = 
REMARK  5 active torsions:
REMARK  status: ('A' for Active; 'I' for Inactive)
REMARK    1  A    between atoms: C_2  and  C_4
REMARK    2  A    between atoms: C_7  and  N_8
REMARK    3  A    between atoms: N_8  and  C_9
REMARK    4  A    between atoms: C_9  and  C_10
REMARK    5  A    between atoms: C_12  and  N_13
REMARK                            x       y       z     vdW  Elec       q    Type
REMARK                         _______ _______ _______ _____ _____    ______ ____
ROOT
ATOM      1  C   UNL     1      43.510   5.004  11.152  0.00  0.00    +0.000 C 
ENDROOT
BRANCH   1   2
ATOM      2  C   UNL     1      44.612   5.835  11.789  0.00  0.00    +0.000 A 
ATOM      3  C   UNL     1      45.551   5.258  12.640  0.00  0.00    +0.000 A 
ATOM      4  C   UNL     1      46.485   6.062  13.308  0.00  0.00    +0.000 A 
ATOM      5  C   UNL     1      46.431   7.434  13.057  0.00  0.00    +0.000 A 
ATOM      6  C   UNL     1      45.504   7.928  12.167  0.00  0.00    +0.000 A 
ATOM      7  N   UNL     1      44.591   7.166  11.531  0.00  0.00    +0.000 NA
BRANCH   4   8
ATOM      8  N   UNL     1      47.422   5.544  14.174  0.00  0.00    +0.000 N 
ATOM      9  C   UNL     1      47.256   4.238  14.818  0.00  0.00    +0.000 C 
ATOM     10  C   UNL     1      47.320   4.369  16.353  0.00  0.00    +0.000 C 
ATOM     11  N   UNL     1      48.514   5.094  16.840  0.00  0.00    +0.000 NA
ATOM     12  C   UNL     1      48.568   6.420  16.185  0.00  0.00    +0.000 C 
ATOM     13  C   UNL     1      48.558   6.353  14.639  0.00  0.00    +0.000 C 
ATOM     14  H   UNL     1      49.340   4.568  16.553  0.00  0.00    +0.000 HD
ENDBRANCH   4   8
ENDBRANCH   1   2
BRANCH   1  15
ATOM     15  N   UNL     1      43.648   4.929   9.698  0.00  0.00    +0.000 N 
ATOM     16  H   UNL     1      42.743   4.888   9.232  0.00  0.00    +0.000 HD
BRANCH  15  20
ATOM     17  C   UNL     1      46.242   2.070   7.962  0.00  0.00    +0.000 A 
ATOM     18  C   UNL     1      46.379   3.416   7.620  0.00  0.00    +0.000 A 
ATOM     19  C   UNL     1      45.533   4.376   8.192  0.00  0.00    +0.000 A 
ATOM     20  C   UNL     1      44.558   4.024   9.136  0.00  0.00    +0.000 A 
ATOM     21  C   UNL     1      44.432   2.665   9.461  0.00  0.00    +0.000 A 
ATOM     22  C   UNL     1      45.256   1.695   8.876  0.00  0.00    +0.000 A 
BRANCH  17  24
ATOM     23  N   UNL     1      46.809  -0.283   7.682  0.00  0.00    +0.000 N 
ATOM     24  C   UNL     1      47.082   1.012   7.344  0.00  0.00    +0.000 C 
ATOM     25  O   UNL     1      47.963   1.279   6.534  0.00  0.00    +0.000 OA
ATOM     26  H   UNL     1      47.306  -0.994   7.165  0.00  0.00    +0.000 HD
ATOM     27  H   UNL     1      45.936  -0.547   8.122  0.00  0.00    +0.000 HD
ENDBRANCH  17  24
ENDBRANCH  15  20
ENDBRANCH   1  15
TORSDOF 5
ENDMDL
MODEL 3
REMARK VINA RESULT:    -8.007      1.470      2.529
REMARK INTER + INTRA:         -11.141
REMARK INTER:                 -10.430
REMARK INTRA:                  -0.711
REMARK UNBOUND:                -0.793
REMARK  Name = 
REMARK  5 active torsions:
REMARK  status: ('A' for Active; 'I' for Inactive)
REMARK    1  A    between atoms: C_2  and  C_4
REMARK    2  A    between atoms: C_7  and  N_8
REMARK    3  A    between atoms: N_8  and  C_9
REMARK    4  A    between atoms: C_9  and  C_10
REMARK    5  A    between atoms: C_12  and  N_13
REMARK                            x       y       z     vdW  Elec       q    Type
REMARK                         _______ _______ _______ _____ _____    ______ ____
ROOT
ATOM      1  C   UNL     1      43.720   5.008  11.275  0.00  0.00    +0.000 C 
ENDROOT
BRANCH   1   2
ATOM      2  C   UNL     1      44.731   6.076  11.658  0.00  0.00    +0.000 A 
ATOM      3  C   UNL     1      45.957   5.740  12.227  0.00  0.00    +0.000 A 
ATOM      4  C   UNL     1      46.823   6.744  12.680  0.00  0.00    +0.000 A 
ATOM      5  C   UNL     1      46.403   8.064  12.512  0.00  0.00    +0.000 A 
ATOM      6  C   UNL     1      45.198   8.323  11.899  0.00  0.00    +0.000 A 
ATOM      7  N   UNL     1      44.350   7.364  11.473  0.00  0.00    +0.000 NA
BRANCH   4   8
ATOM      8  N   UNL     1      48.038   6.465  13.267  0.00  0.00    +0.000 N 
ATOM      9  C   UNL     1      48.144   5.848  14.592  0.00  0.00    +0.000 C 
ATOM     10  C   UNL     1      48.974   6.731  15.546  0.00  0.00    +0.000 C 
ATOM     11  N   UNL     1      50.291   7.125  14.996  0.00  0.00    +0.000 NA
ATOM     12  C   UNL     1      50.084   7.790  13.691  0.00  0.00    +0.000 C 
ATOM     13  C   UNL     1      49.297   6.933  12.671  0.00  0.00    +0.000 C 
ATOM     14  H   UNL     1      50.831   6.275  14.833  0.00  0.00    +0.000 HD
ENDBRANCH   4   8
ENDBRANCH   1   2
BRANCH   1  15
ATOM     15  N   UNL     1      43.642   4.820   9.826  0.00  0.00    +0.000 N 
ATOM     16  H   UNL     1      42.699   4.580   9.525  0.00  0.00    +0.000 HD
BRANCH  15  20
ATOM     17  C   UNL     1      46.404   2.320   7.816  0.00  0.00    +0.000 A 
ATOM     18  C   UNL     1      46.456   3.700   7.614  0.00  0.00    +0.000 A 
ATOM     19  C   UNL     1      45.553   4.542   8.278  0.00  0.00    +0.000 A 
ATOM     20  C   UNL     1      44.605   4.036   9.178  0.00  0.00    +0.000 A 
ATOM     21  C   UNL     1      44.566   2.646   9.362  0.00  0.00    +0.000 A 
ATOM     22  C   UNL     1      45.447   1.793   8.685  0.00  0.00    +0.000 A 
BRANCH  17  24
ATOM     23  N   UNL     1      48.356   1.931   6.412  0.00  0.00    +0.000 N 
ATOM     24  C   UNL     1      47.307   1.386   7.097  0.00  0.00    +0.000 C 
ATOM     25  O   UNL     1      47.147   0.171   7.141  0.00  0.00    +0.000 OA
ATOM     26  H   UNL     1      49.027   1.279   6.030  0.00  0.00    +0.000 HD
ATOM     27  H   UNL     1      48.667   2.880   6.578  0.00  0.00    +0.000 HD
ENDBRANCH  17  24
ENDBRANCH  15  20
ENDBRANCH   1  15
TORSDOF 5
ENDMDL
MODEL 4
REMARK VINA RESULT:    -6.944      1.510      2.164
REMARK INTER + INTRA:          -9.767
REMARK INTER:                  -9.214
REMARK INTRA:                  -0.553
REMARK UNBOUND:                -0.793
REMARK  Name = 
REMARK  5 active torsions:
REMARK  status: ('A' for Active; 'I' for Inactive)
REMARK    1  A    between atoms: C_2  and  C_4
REMARK    2  A    between atoms: C_7  and  N_8
REMARK    3  A    between atoms: N_8  and  C_9
REMARK    4  A    between atoms: C_9  and  C_10
REMARK    5  A    between atoms: C_12  and  N_13
REMARK                            x       y       z     vdW  Elec       q    Type
REMARK                         _______ _______ _______ _____ _____    ______ ____
ROOT
ATOM      1  C   UNL     1      44.952   4.407  11.976  0.00  0.00    +0.000 C 
ENDROOT
BRANCH   1   2
ATOM      2  C   UNL     1      45.313   5.880  11.877  0.00  0.00    +0.000 A 
ATOM      3  C   UNL     1      46.615   6.321  12.103  0.00  0.00    +0.000 A 
ATOM      4  C   UNL     1      46.900   7.694  12.122  0.00  0.00    +0.000 A 
ATOM      5  C   UNL     1      45.835   8.564  11.887  0.00  0.00    +0.000 A 
ATOM      6  C   UNL     1      44.583   8.054  11.626  0.00  0.00    +0.000 A 
ATOM      7  N   UNL     1      44.294   6.736  11.620  0.00  0.00    +0.000 NA
BRANCH   4   8
ATOM      8  N   UNL     1      48.165   8.183  12.358  0.00  0.00    +0.000 N 
ATOM      9  C   UNL     1      48.460   9.619  12.373  0.00  0.00    +0.000 C 
ATOM     10  C   UNL     1      49.561   9.966  11.352  0.00  0.00    +0.000 C 
ATOM     11  N   UNL     1      50.779   9.136  11.485  0.00  0.00    +0.000 NA
ATOM     12  C   UNL     1      50.397   7.709  11.399  0.00  0.00    +0.000 C 
ATOM     13  C   UNL     1      49.327   7.286  12.434  0.00  0.00    +0.000 C 
ATOM     14  H   UNL     1      51.172   9.300  12.412  0.00  0.00    +0.000 HD
ENDBRANCH   4   8
ENDBRANCH   1   2
BRANCH   1  15
ATOM     15  N   UNL     1      44.225   3.939  10.796  0.00  0.00    +0.000 N 
ATOM     16  H   UNL     1      43.513   3.252  11.037  0.00  0.00    +0.000 HD
BRANCH  15  20
ATOM     17  C   UNL     1      46.522   2.932   7.386  0.00  0.00    +0.000 A 
ATOM     18  C   UNL     1      45.969   1.914   8.164  0.00  0.00    +0.000 A 
ATOM     19  C   UNL     1      45.200   2.231   9.292  0.00  0.00    +0.000 A 
ATOM     20  C   UNL     1      44.938   3.561   9.651  0.00  0.00    +0.000 A 
ATOM     21  C   UNL     1      45.508   4.569   8.859  0.00  0.00    +0.000 A 
ATOM     22  C   UNL     1      46.299   4.263   7.743  0.00  0.00    +0.000 A 
BRANCH  17  24
ATOM     23  N   UNL     1      48.597   2.063   6.452  0.00  0.00    +0.000 N 
ATOM     24  C   UNL     1      47.384   2.644   6.212  0.00  0.00    +0.000 C 
ATOM     25  O   UNL     1      47.015   2.879   5.066  0.00  0.00    +0.000 OA
ATOM     26  H   UNL     1      49.118   1.764   5.640  0.00  0.00    +0.000 HD
ATOM     27  H   UNL     1      48.809   1.617   7.336  0.00  0.00    +0.000 HD
ENDBRANCH  17  24
ENDBRANCH  15  20
ENDBRANCH   1  15
TORSDOF 5
ENDMDL
MODEL 5
REMARK VINA RESULT:    -6.848      3.817      7.762
REMARK INTER + INTRA:          -9.643
REMARK INTER:                  -9.107
REMARK INTRA:                  -0.535
REMARK UNBOUND:                -0.793
REMARK  Name = 
REMARK  5 active torsions:
REMARK  status: ('A' for Active; 'I' for Inactive)
REMARK    1  A    between atoms: C_2  and  C_4
REMARK    2  A    between atoms: C_7  and  N_8
REMARK    3  A    between atoms: N_8  and  C_9
REMARK    4  A    between atoms: C_9  and  C_10
REMARK    5  A    between atoms: C_12  and  N_13
REMARK                            x       y       z     vdW  Elec       q    Type
REMARK                         _______ _______ _______ _____ _____    ______ ____
ROOT
ATOM      1  C   UNL     1      45.689   5.950  13.109  0.00  0.00    +0.000 C 
ENDROOT
BRANCH   1   2
ATOM      2  C   UNL     1      45.038   4.753  12.436  0.00  0.00    +0.000 A 
ATOM      3  C   UNL     1      45.333   4.417  11.117  0.00  0.00    +0.000 A 
ATOM      4  C   UNL     1      44.635   3.382  10.480  0.00  0.00    +0.000 A 
ATOM      5  C   UNL     1      43.667   2.715  11.234  0.00  0.00    +0.000 A 
ATOM      6  C   UNL     1      43.461   3.073  12.547  0.00  0.00    +0.000 A 
ATOM      7  N   UNL     1      44.117   4.076  13.166  0.00  0.00    +0.000 NA
BRANCH   4   8
ATOM      8  N   UNL     1      44.875   3.022   9.173  0.00  0.00    +0.000 N 
ATOM      9  C   UNL     1      45.072   1.627   8.768  0.00  0.00    +0.000 C 
ATOM     10  C   UNL     1      46.427   1.446   8.056  0.00  0.00    +0.000 C 
ATOM     11  N   UNL     1      46.646   2.396   6.942  0.00  0.00    +0.000 NA
ATOM     12  C   UNL     1      46.487   3.776   7.453  0.00  0.00    +0.000 C 
ATOM     13  C   UNL     1      45.123   4.035   8.137  0.00  0.00    +0.000 C 
ATOM     14  H   UNL     1      45.920   2.235   6.244  0.00  0.00    +0.000 HD
ENDBRANCH   4   8
ENDBRANCH   1   2
BRANCH   1  15
ATOM     15  N   UNL     1      47.110   5.726  13.374  0.00  0.00    +0.000 N 
ATOM     16  H   UNL     1      47.523   5.078  12.704  0.00  0.00    +0.000 HD
BRANCH  15  20
ATOM     17  C   UNL     1      48.427   4.717  17.268  0.00  0.00    +0.000 A 
ATOM     18  C   UNL     1      48.902   5.882  16.665  0.00  0.00    +0.000 A 
ATOM     19  C   UNL     1      48.469   6.234  15.379  0.00  0.00    +0.000 A 
ATOM     20  C   UNL     1      47.535   5.456  14.681  0.00  0.00    +0.000 A 
ATOM     21  C   UNL     1      47.076   4.285  15.302  0.00  0.00    +0.000 A 
ATOM     22  C   UNL     1      47.520   3.911  16.577  0.00  0.00    +0.000 A 
BRANCH  17  24
ATOM     23  N   UNL     1      48.342   3.140  19.123  0.00  0.00    +0.000 N 
ATOM     24  C   UNL     1      48.894   4.279  18.608  0.00  0.00    +0.000 C 
ATOM     25  O   UNL     1      49.766   4.888  19.218  0.00  0.00    +0.000 OA
ATOM     26  H   UNL     1      48.756   2.790  19.975  0.00  0.00    +0.000 HD
ATOM     27  H   UNL     1      47.837   2.482  18.542  0.00  0.00    +0.000 HD
ENDBRANCH  17  24
ENDBRANCH  15  20
ENDBRANCH   1  15
TORSDOF 5
ENDMDL
MODEL 6
REMARK VINA RESULT:    -6.742      5.225      8.271
REMARK INTER + INTRA:          -9.506
REMARK INTER:                  -8.975
REMARK INTRA:                  -0.531
REMARK UNBOUND:                -0.793
REMARK  Name = 
REMARK  5 active torsions:
REMARK  status: ('A' for Active; 'I' for Inactive)
REMARK    1  A    between atoms: C_2  and  C_4
REMARK    2  A    between atoms: C_7  and  N_8
REMARK    3  A    between atoms: N_8  and  C_9
REMARK    4  A    between atoms: C_9  and  C_10
REMARK    5  A    between atoms: C_12  and  N_13
REMARK                            x       y       z     vdW  Elec       q    Type
REMARK                         _______ _______ _______ _____ _____    ______ ____
ROOT
ATOM      1  C   UNL     1      47.713   4.182  16.496  0.00  0.00    +0.000 C 
ENDROOT
BRANCH   1   2
ATOM      2  C   UNL     1      47.457   4.918  15.190  0.00  0.00    +0.000 A 
ATOM      3  C   UNL     1      46.463   4.501  14.309  0.00  0.00    +0.000 A 
ATOM      4  C   UNL     1      46.322   5.121  13.060  0.00  0.00    +0.000 A 
ATOM      5  C   UNL     1      47.201   6.166  12.771  0.00  0.00    +0.000 A 
ATOM      6  C   UNL     1      48.130   6.555  13.711  0.00  0.00    +0.000 A 
ATOM      7  N   UNL     1      48.283   5.955  14.909  0.00  0.00    +0.000 NA
BRANCH   4   8
ATOM      8  N   UNL     1      45.369   4.735  12.144  0.00  0.00    +0.000 N 
ATOM      9  C   UNL     1      44.456   5.692  11.513  0.00  0.00    +0.000 C 
ATOM     10  C   UNL     1      42.986   5.299  11.766  0.00  0.00    +0.000 C 
ATOM     11  N   UNL     1      42.675   3.898  11.408  0.00  0.00    +0.000 NA
ATOM     12  C   UNL     1      43.603   3.002  12.133  0.00  0.00    +0.000 C 
ATOM     13  C   UNL     1      45.097   3.315  11.881  0.00  0.00    +0.000 C 
ATOM     14  H   UNL     1      42.846   3.783  10.409  0.00  0.00    +0.000 HD
ENDBRANCH   4   8
ENDBRANCH   1   2
BRANCH   1  15
ATOM     15  N   UNL     1      48.907   4.677  17.181  0.00  0.00    +0.000 N 
ATOM     16  H   UNL     1      49.217   5.572  16.804  0.00  0.00    +0.000 HD
BRANCH  15  20
ATOM     17  C   UNL     1      52.123   1.972  17.681  0.00  0.00    +0.000 A 
ATOM     18  C   UNL     1      52.319   3.326  17.951  0.00  0.00    +0.000 A 
ATOM     19  C   UNL     1      51.262   4.234  17.798  0.00  0.00    +0.000 A 
ATOM     20  C   UNL     1      49.984   3.811  17.405  0.00  0.00    +0.000 A 
ATOM     21  C   UNL     1      49.810   2.447  17.132  0.00  0.00    +0.000 A 
ATOM     22  C   UNL     1      50.866   1.535  17.259  0.00  0.00    +0.000 A 
BRANCH  17  24
ATOM     23  N   UNL     1      52.931  -0.230  18.338  0.00  0.00    +0.000 N 
ATOM     24  C   UNL     1      53.225   0.982  17.781  0.00  0.00    +0.000 C 
ATOM     25  O   UNL     1      54.349   1.222  17.352  0.00  0.00    +0.000 OA
ATOM     26  H   UNL     1      53.657  -0.932  18.289  0.00  0.00    +0.000 HD
ATOM     27  H   UNL     1      51.977  -0.550  18.447  0.00  0.00    +0.000 HD
ENDBRANCH  17  24
ENDBRANCH  15  20
ENDBRANCH   1  15
TORSDOF 5
ENDMDL
MODEL 7
REMARK VINA RESULT:    -6.550      2.832      6.722
REMARK INTER + INTRA:          -9.257
REMARK INTER:                  -8.536
REMARK INTRA:                  -0.722
REMARK UNBOUND:                -0.793
REMARK  Name = 
REMARK  5 active torsions:
REMARK  status: ('A' for Active; 'I' for Inactive)
REMARK    1  A    between atoms: C_2  and  C_4
REMARK    2  A    between atoms: C_7  and  N_8
REMARK    3  A    between atoms: N_8  and  C_9
REMARK    4  A    between atoms: C_9  and  C_10
REMARK    5  A    between atoms: C_12  and  N_13
REMARK                            x       y       z     vdW  Elec       q    Type
REMARK                         _______ _______ _______ _____ _____    ______ ____
ROOT
ATOM      1  C   UNL     1      44.033   6.700  11.734  0.00  0.00    +0.000 C 
ENDROOT
BRANCH   1   2
ATOM      2  C   UNL     1      44.090   5.208  11.446  0.00  0.00    +0.000 A 
ATOM      3  C   UNL     1      44.523   4.727  10.214  0.00  0.00    +0.000 A 
ATOM      4  C   UNL     1      44.456   3.356   9.929  0.00  0.00    +0.000 A 
ATOM      5  C   UNL     1      43.961   2.525  10.936  0.00  0.00    +0.000 A 
ATOM      6  C   UNL     1      43.594   3.067  12.147  0.00  0.00    +0.000 A 
ATOM      7  N   UNL     1      43.640   4.386  12.426  0.00  0.00    +0.000 NA
BRANCH   4   8
ATOM      8  N   UNL     1      44.854   2.830   8.720  0.00  0.00    +0.000 N 
ATOM      9  C   UNL     1      45.096   1.397   8.531  0.00  0.00    +0.000 C 
ATOM     10  C   UNL     1      46.528   1.143   8.020  0.00  0.00    +0.000 C 
ATOM     11  N   UNL     1      46.884   1.941   6.825  0.00  0.00    +0.000 NA
ATOM     12  C   UNL     1      46.666   3.373   7.125  0.00  0.00    +0.000 C 
ATOM     13  C   UNL     1      45.230   3.701   7.598  0.00  0.00    +0.000 C 
ATOM     14  H   UNL     1      46.249   1.679   6.071  0.00  0.00    +0.000 HD
ENDBRANCH   4   8
ENDBRANCH   1   2
BRANCH   1  15
ATOM     15  N   UNL     1      44.852   7.069  12.888  0.00  0.00    +0.000 N 
ATOM     16  H   UNL     1      44.366   7.716  13.507  0.00  0.00    +0.000 HD
BRANCH  15  20
ATOM     17  C   UNL     1      48.914   8.037  12.197  0.00  0.00    +0.000 A 
ATOM     18  C   UNL     1      47.940   9.025  12.049  0.00  0.00    +0.000 A 
ATOM     19  C   UNL     1      46.591   8.722  12.282  0.00  0.00    +0.000 A 
ATOM     20  C   UNL     1      46.188   7.445  12.696  0.00  0.00    +0.000 A 
ATOM     21  C   UNL     1      47.182   6.465  12.832  0.00  0.00    +0.000 A 
ATOM     22  C   UNL     1      48.530   6.750  12.578  0.00  0.00    +0.000 A 
BRANCH  17  24
ATOM     23  N   UNL     1      51.048   7.321  11.265  0.00  0.00    +0.000 N 
ATOM     24  C   UNL     1      50.348   8.299  11.913  0.00  0.00    +0.000 C 
ATOM     25  O   UNL     1      50.882   9.361  12.212  0.00  0.00    +0.000 OA
ATOM     26  H   UNL     1      51.985   7.561  10.972  0.00  0.00    +0.000 HD
ATOM     27  H   UNL     1      50.582   6.568  10.773  0.00  0.00    +0.000 HD
ENDBRANCH  17  24
ENDBRANCH  15  20
ENDBRANCH   1  15
TORSDOF 5
ENDMDL
MODEL 8
REMARK VINA RESULT:    -6.237      3.105      7.108
REMARK INTER + INTRA:          -8.853
REMARK INTER:                  -8.275
REMARK INTRA:                  -0.578
REMARK UNBOUND:                -0.793
REMARK  Name = 
REMARK  5 active torsions:
REMARK  status: ('A' for Active; 'I' for Inactive)
REMARK    1  A    between atoms: C_2  and  C_4
REMARK    2  A    between atoms: C_7  and  N_8
REMARK    3  A    between atoms: N_8  and  C_9
REMARK    4  A    between atoms: C_9  and  C_10
REMARK    5  A    between atoms: C_12  and  N_13
REMARK                            x       y       z     vdW  Elec       q    Type
REMARK                         _______ _______ _______ _____ _____    ______ ____
ROOT
ATOM      1  C   UNL     1      46.688   4.383  13.817  0.00  0.00    +0.000 C 
ENDROOT
BRANCH   1   2
ATOM      2  C   UNL     1      45.501   4.064  12.923  0.00  0.00    +0.000 A 
ATOM      3  C   UNL     1      45.679   3.664  11.601  0.00  0.00    +0.000 A 
ATOM      4  C   UNL     1      44.570   3.490  10.762  0.00  0.00    +0.000 A 
ATOM      5  C   UNL     1      43.312   3.716  11.323  0.00  0.00    +0.000 A 
ATOM      6  C   UNL     1      43.210   4.065  12.651  0.00  0.00    +0.000 A 
ATOM      7  N   UNL     1      44.271   4.250  13.463  0.00  0.00    +0.000 NA
BRANCH   4   8
ATOM      8  N   UNL     1      44.692   3.114   9.443  0.00  0.00    +0.000 N 
ATOM      9  C   UNL     1      44.824   1.711   9.037  0.00  0.00    +0.000 C 
ATOM     10  C   UNL     1      46.111   1.495   8.216  0.00  0.00    +0.000 C 
ATOM     11  N   UNL     1      46.256   2.430   7.078  0.00  0.00    +0.000 NA
ATOM     12  C   UNL     1      46.169   3.817   7.587  0.00  0.00    +0.000 C 
ATOM     13  C   UNL     1      44.874   4.112   8.380  0.00  0.00    +0.000 C 
ATOM     14  H   UNL     1      45.470   2.279   6.445  0.00  0.00    +0.000 HD
ENDBRANCH   4   8
ENDBRANCH   1   2
BRANCH   1  15
ATOM     15  N   UNL     1      46.767   5.807  14.141  0.00  0.00    +0.000 N 
ATOM     16  H   UNL     1      45.910   6.300  13.893  0.00  0.00    +0.000 HD
BRANCH  15  20
ATOM     17  C   UNL     1      50.315   7.895  13.156  0.00  0.00    +0.000 A 
ATOM     18  C   UNL     1      49.439   7.515  12.139  0.00  0.00    +0.000 A 
ATOM     19  C   UNL     1      48.256   6.830  12.449  0.00  0.00    +0.000 A 
ATOM     20  C   UNL     1      47.904   6.538  13.774  0.00  0.00    +0.000 A 
ATOM     21  C   UNL     1      48.801   6.923  14.781  0.00  0.00    +0.000 A 
ATOM     22  C   UNL     1      49.998   7.587  14.480  0.00  0.00    +0.000 A 
BRANCH  17  24
ATOM     23  N   UNL     1      52.739   7.823  12.927  0.00  0.00    +0.000 N 
ATOM     24  C   UNL     1      51.602   8.579  12.871  0.00  0.00    +0.000 C 
ATOM     25  O   UNL     1      51.648   9.764  12.561  0.00  0.00    +0.000 OA
ATOM     26  H   UNL     1      53.588   8.271  12.614  0.00  0.00    +0.000 HD
ATOM     27  H   UNL     1      52.708   6.811  12.910  0.00  0.00    +0.000 HD
ENDBRANCH  17  24
ENDBRANCH  15  20
ENDBRANCH   1  15
TORSDOF 5
ENDMDL
MODEL 9
REMARK VINA RESULT:    -6.209      3.480      5.913
REMARK INTER + INTRA:          -8.818
REMARK INTER:                  -8.168
REMARK INTRA:                  -0.649
REMARK UNBOUND:                -0.793
REMARK  Name = 
REMARK  5 active torsions:
REMARK  status: ('A' for Active; 'I' for Inactive)
REMARK    1  A    between atoms: C_2  and  C_4
REMARK    2  A    between atoms: C_7  and  N_8
REMARK    3  A    between atoms: N_8  and  C_9
REMARK    4  A    between atoms: C_9  and  C_10
REMARK    5  A    between atoms: C_12  and  N_13
REMARK                            x       y       z     vdW  Elec       q    Type
REMARK                         _______ _______ _______ _____ _____    ______ ____
ROOT
ATOM      1  C   UNL     1      48.114   7.807  13.034  0.00  0.00    +0.000 C 
ENDROOT
BRANCH   1   2
ATOM      2  C   UNL     1      49.096   7.417  14.127  0.00  0.00    +0.000 A 
ATOM      3  C   UNL     1      48.723   6.562  15.161  0.00  0.00    +0.000 A 
ATOM      4  C   UNL     1      49.606   6.310  16.220  0.00  0.00    +0.000 A 
ATOM      5  C   UNL     1      50.854   6.934  16.165  0.00  0.00    +0.000 A 
ATOM      6  C   UNL     1      51.170   7.730  15.087  0.00  0.00    +0.000 A 
ATOM      7  N   UNL     1      50.323   7.991  14.071  0.00  0.00    +0.000 NA
BRANCH   4   8
ATOM      8  N   UNL     1      49.280   5.489  17.276  0.00  0.00    +0.000 N 
ATOM      9  C   UNL     1      50.092   4.325  17.643  0.00  0.00    +0.000 C 
ATOM     10  C   UNL     1      49.244   3.036  17.631  0.00  0.00    +0.000 C 
ATOM     11  N   UNL     1      48.001   3.134  18.428  0.00  0.00    +0.000 NA
ATOM     12  C   UNL     1      47.219   4.297  17.952  0.00  0.00    +0.000 C 
ATOM     13  C   UNL     1      48.001   5.632  17.986  0.00  0.00    +0.000 C 
ATOM     14  H   UNL     1      48.262   3.309  19.398  0.00  0.00    +0.000 HD
ENDBRANCH   4   8
ENDBRANCH   1   2
BRANCH   1  15
ATOM     15  N   UNL     1      46.744   7.411  13.360  0.00  0.00    +0.000 N 
ATOM     16  H   UNL     1      46.593   7.358  14.366  0.00  0.00    +0.000 HD
BRANCH  15  20
ATOM     17  C   UNL     1      44.838   4.128  11.489  0.00  0.00    +0.000 A 
ATOM     18  C   UNL     1      45.273   5.201  10.711  0.00  0.00    +0.000 A 
ATOM     19  C   UNL     1      45.913   6.292  11.314  0.00  0.00    +0.000 A 
ATOM     20  C   UNL     1      46.161   6.325  12.694  0.00  0.00    +0.000 A 
ATOM     21  C   UNL     1      45.710   5.240  13.458  0.00  0.00    +0.000 A 
ATOM     22  C   UNL     1      45.047   4.155  12.868  0.00  0.00    +0.000 A 
BRANCH  17  24
ATOM     23  N   UNL     1      44.706   2.326   9.854  0.00  0.00    +0.000 N 
ATOM     24  C   UNL     1      44.112   2.974  10.900  0.00  0.00    +0.000 C 
ATOM     25  O   UNL     1      43.039   2.588  11.351  0.00  0.00    +0.000 OA
ATOM     26  H   UNL     1      44.261   1.474   9.545  0.00  0.00    +0.000 HD
ATOM     27  H   UNL     1      45.690   2.445   9.643  0.00  0.00    +0.000 HD
ENDBRANCH  17  24
ENDBRANCH  15  20
ENDBRANCH   1  15
TORSDOF 5
ENDMDL
