MODEL 1
REMARK VINA RESULT:    -8.163      0.000      0.000
REMARK INTER + INTRA:         -13.207
REMARK INTER:                 -11.980
REMARK INTRA:                  -1.227
REMARK UNBOUND:                -1.227
REMARK  Name = 
REMARK  10 active torsions:
REMARK  status: ('A' for Active; 'I' for Inactive)
REMARK    1  A    between atoms: C_1  and  O_2
REMARK    2  A    between atoms: O_2  and  C_3
REMARK    3  A    between atoms: C_10  and  C_11
REMARK    4  A    between atoms: N_13  and  C_14
REMARK    5  A    between atoms: C_14  and  C_15
REMARK    6  A    between atoms: C_18  and  C_19
REMARK    7  A    between atoms: C_19  and  N_20
REMARK    8  A    between atoms: N_20  and  C_21
REMARK    9  A    between atoms: C_21  and  C_22
REMARK   10  A    between atoms: C_21  and  C_23
REMARK                            x       y       z     vdW  Elec       q    Type
REMARK                         _______ _______ _______ _____ _____    ______ ____
ROOT
ATOM      1  C   UNL     1      47.425   6.159  14.042  0.00  0.00    +0.000 A 
ATOM      2  C   UNL     1      46.654   6.708  13.010  0.00  0.00    +0.000 A 
ATOM      3  C   UNL     1      45.752   5.916  12.294  0.00  0.00    +0.000 A 
ATOM      4  C   UNL     1      45.596   4.554  12.593  0.00  0.00    +0.000 A 
ATOM      5  C   UNL     1      46.379   4.001  13.615  0.00  0.00    +0.000 A 
ATOM      6  C   UNL     1      47.281   4.795  14.334  0.00  0.00    +0.000 A 
ENDROOT
BRANCH   1   7
ATOM      7  C   UNL     1      48.361   7.031  14.835  0.00  0.00    +0.000 C 
BRANCH   7  10
ATOM      8  C   UNL     1      49.477   6.028  16.770  0.00  0.00    +0.000 C 
ATOM      9  O   UNL     1      48.589   6.454  17.507  0.00  0.00    +0.000 OA
ATOM     10  N   UNL     1      49.443   6.270  15.421  0.00  0.00    +0.000 N 
ATOM     11  H   UNL     1      50.153   5.888  14.808  0.00  0.00    +0.000 HD
BRANCH   8  19
ATOM     12  C   UNL     1      50.186   2.653  17.014  0.00  0.00    +0.000 A 
ATOM     13  N   UNL     1      50.718   1.432  17.232  0.00  0.00    +0.000 NA
ATOM     14  C   UNL     1      51.917   1.360  17.815  0.00  0.00    +0.000 A 
ATOM     15  N   UNL     1      52.671   2.376  18.218  0.00  0.00    +0.000 NA
ATOM     16  C   UNL     1      52.104   3.572  17.990  0.00  0.00    +0.000 A 
ATOM     17  S   UNL     1      52.928   4.982  18.450  0.00  0.00    +0.000 S 
ATOM     18  C   UNL     1      51.668   5.962  17.872  0.00  0.00    +0.000 A 
ATOM     19  C   UNL     1      50.606   5.254  17.317  0.00  0.00    +0.000 A 
ATOM     20  C   UNL     1      50.868   3.820  17.398  0.00  0.00    +0.000 A 
BRANCH  12  22
ATOM     21  C   UNL     1      47.886   2.782  17.400  0.00  0.00    +0.000 C 
ATOM     22  O   UNL     1      48.935   2.724  16.434  0.00  0.00    +0.000 OA
ENDBRANCH  12  22
ENDBRANCH   8  19
ENDBRANCH   7  10
ENDBRANCH   1   7
BRANCH   4  23
ATOM     23  C   UNL     1      44.553   3.727  11.869  0.00  0.00    +0.000 C 
BRANCH  23  24
ATOM     24  N   UNL     1      45.152   2.870  10.848  0.00  0.00    +0.000 NA
ATOM     25  H   UNL     1      45.021   1.896  11.128  0.00  0.00    +0.000 HD
BRANCH  24  26
ATOM     26  C   UNL     1      44.569   3.037   9.508  0.00  0.00    +0.000 C 
ATOM     27  C   UNL     1      44.106   4.477   9.228  0.00  0.00    +0.000 C 
BRANCH  26  28
ATOM     28  C   UNL     1      45.581   2.622   8.447  0.00  0.00    +0.000 A 
ATOM     29  C   UNL     1      46.088   3.559   7.534  0.00  0.00    +0.000 A 
ATOM     30  C   UNL     1      47.032   3.179   6.574  0.00  0.00    +0.000 A 
ATOM     31  C   UNL     1      47.479   1.861   6.514  0.00  0.00    +0.000 A 
ATOM     32  C   UNL     1      46.988   0.920   7.414  0.00  0.00    +0.000 A 
ATOM     33  C   UNL     1      46.043   1.296   8.371  0.00  0.00    +0.000 A 
ENDBRANCH  26  28
ENDBRANCH  24  26
ENDBRANCH  23  24
ENDBRANCH   4  23
TORSDOF 8
ENDMDL
MODEL 2
REMARK VINA RESULT:    -7.996      2.292      2.896
REMARK INTER + INTRA:         -12.962
REMARK INTER:                 -11.653
REMARK INTRA:                  -1.309
REMARK UNBOUND:                -1.227
REMARK  Name = 
REMARK  10 active torsions:
REMARK  status: ('A' for Active; 'I' for Inactive)
REMARK    1  A    between atoms: C_1  and  O_2
REMARK    2  A    between atoms: O_2  and  C_3
REMARK    3  A    between atoms: C_10  and  C_11
REMARK    4  A    between atoms: N_13  and  C_14
REMARK    5  A    between atoms: C_14  and  C_15
REMARK    6  A    between atoms: C_18  and  C_19
REMARK    7  A    between atoms: C_19  and  N_20
REMARK    8  A    between atoms: N_20  and  C_21
REMARK    9  A    between atoms: C_21  and  C_22
REMARK   10  A    between atoms: C_21  and  C_23
REMARK                            x       y       z     vdW  Elec       q    Type
REMARK                         _______ _______ _______ _____ _____    ______ ____
ROOT
ATOM      1  C   UNL     1      47.124   6.287  12.746  0.00  0.00    +0.000 A 
ATOM      2  C   UNL     1      46.141   5.497  13.355  0.00  0.00    +0.000 A 
ATOM      3  C   UNL     1      45.026   5.062  12.633  0.00  0.00    +0.000 A 
ATOM      4  C   UNL     1      44.865   5.405  11.282  0.00  0.00    +0.000 A 
ATOM      5  C   UNL     1      45.840   6.210  10.677  0.00  0.00    +0.000 A 
ATOM      6  C   UNL     1      46.959   6.642  11.399  0.00  0.00    +0.000 A 
ENDROOT
BRANCH   1   7
ATOM      7  C   UNL     1      48.343   6.712  13.520  0.00  0.00    +0.000 C 
BRANCH   7  10
ATOM      8  C   UNL     1      49.076   6.816  15.853  0.00  0.00    +0.000 C 
ATOM      9  O   UNL     1      50.242   6.651  15.497  0.00  0.00    +0.000 OA
ATOM     10  N   UNL     1      48.062   6.859  14.932  0.00  0.00    +0.000 N 
ATOM     11  H   UNL     1      47.108   7.033  15.220  0.00  0.00    +0.000 HD
BRANCH   8  19
ATOM     12  C   UNL     1      48.935   4.632  18.529  0.00  0.00    +0.000 A 
ATOM     13  N   UNL     1      48.807   4.024  19.728  0.00  0.00    +0.000 NA
ATOM     14  C   UNL     1      48.451   4.769  20.779  0.00  0.00    +0.000 A 
ATOM     15  N   UNL     1      48.202   6.073  20.785  0.00  0.00    +0.000 NA
ATOM     16  C   UNL     1      48.333   6.638  19.573  0.00  0.00    +0.000 A 
ATOM     17  S   UNL     1      48.043   8.300  19.397  0.00  0.00    +0.000 S 
ATOM     18  C   UNL     1      48.391   8.231  17.737  0.00  0.00    +0.000 A 
ATOM     19  C   UNL     1      48.736   6.963  17.280  0.00  0.00    +0.000 A 
ATOM     20  C   UNL     1      48.692   6.008  18.384  0.00  0.00    +0.000 A 
BRANCH  12  22
ATOM     21  C   UNL     1      48.139   3.290  16.790  0.00  0.00    +0.000 C 
ATOM     22  O   UNL     1      49.278   3.856  17.440  0.00  0.00    +0.000 OA
ENDBRANCH  12  22
ENDBRANCH   8  19
ENDBRANCH   7  10
ENDBRANCH   1   7
BRANCH   4  23
ATOM     23  C   UNL     1      43.698   4.856  10.487  0.00  0.00    +0.000 C 
BRANCH  23  24
ATOM     24  N   UNL     1      44.138   4.203   9.257  0.00  0.00    +0.000 NA
ATOM     25  H   UNL     1      44.713   4.863   8.730  0.00  0.00    +0.000 HD
BRANCH  24  26
ATOM     26  C   UNL     1      44.933   2.985   9.476  0.00  0.00    +0.000 C 
ATOM     27  C   UNL     1      44.070   1.751   9.790  0.00  0.00    +0.000 C 
BRANCH  26  28
ATOM     28  C   UNL     1      45.790   2.697   8.249  0.00  0.00    +0.000 A 
ATOM     29  C   UNL     1      46.011   3.688   7.280  0.00  0.00    +0.000 A 
ATOM     30  C   UNL     1      46.815   3.426   6.165  0.00  0.00    +0.000 A 
ATOM     31  C   UNL     1      47.404   2.174   6.004  0.00  0.00    +0.000 A 
ATOM     32  C   UNL     1      47.196   1.181   6.958  0.00  0.00    +0.000 A 
ATOM     33  C   UNL     1      46.391   1.439   8.069  0.00  0.00    +0.000 A 
ENDBRANCH  26  28
ENDBRANCH  24  26
ENDBRANCH  23  24
ENDBRANCH   4  23
TORSDOF 8
ENDMDL
MODEL 3
REMARK VINA RESULT:    -7.832      2.704      4.133
REMARK INTER + INTRA:         -12.722
REMARK INTER:                 -11.315
REMARK INTRA:                  -1.407
REMARK UNBOUND:                -1.227
REMARK  Name = 
REMARK  10 active torsions:
REMARK  status: ('A' for Active; 'I' for Inactive)
REMARK    1  A    between atoms: C_1  and  O_2
REMARK    2  A    between atoms: O_2  and  C_3
REMARK    3  A    between atoms: C_10  and  C_11
REMARK    4  A    between atoms: N_13  and  C_14
REMARK    5  A    between atoms: C_14  and  C_15
REMARK    6  A    between atoms: C_18  and  C_19
REMARK    7  A    between atoms: C_19  and  N_20
REMARK    8  A    between atoms: N_20  and  C_21
REMARK    9  A    between atoms: C_21  and  C_22
REMARK   10  A    between atoms: C_21  and  C_23
REMARK                            x       y       z     vdW  Elec       q    Type
REMARK                         _______ _______ _______ _____ _____    ______ ____
ROOT
ATOM      1  C   UNL     1      47.248   6.178  13.018  0.00  0.00    +0.000 A 
ATOM      2  C   UNL     1      47.056   6.675  11.724  0.00  0.00    +0.000 A 
ATOM      3  C   UNL     1      45.968   6.256  10.953  0.00  0.00    +0.000 A 
ATOM      4  C   UNL     1      45.042   5.330  11.457  0.00  0.00    +0.000 A 
ATOM      5  C   UNL     1      45.244   4.820  12.747  0.00  0.00    +0.000 A 
ATOM      6  C   UNL     1      46.333   5.243  13.521  0.00  0.00    +0.000 A 
ENDROOT
BRANCH   1   7
ATOM      7  C   UNL     1      48.399   6.670  13.856  0.00  0.00    +0.000 C 
BRANCH   7  10
ATOM      8  C   UNL     1      49.066   6.437  16.200  0.00  0.00    +0.000 C 
ATOM      9  O   UNL     1      50.232   6.252  15.853  0.00  0.00    +0.000 OA
ATOM     10  N   UNL     1      48.084   6.654  15.269  0.00  0.00    +0.000 N 
ATOM     11  H   UNL     1      47.132   6.843  15.555  0.00  0.00    +0.000 HD
BRANCH   8  19
ATOM     12  C   UNL     1      47.776   8.796  18.374  0.00  0.00    +0.000 A 
ATOM     13  N   UNL     1      47.278   9.491  19.418  0.00  0.00    +0.000 NA
ATOM     14  C   UNL     1      47.135   8.860  20.587  0.00  0.00    +0.000 A 
ATOM     15  N   UNL     1      47.433   7.593  20.851  0.00  0.00    +0.000 NA
ATOM     16  C   UNL     1      47.932   6.939  19.789  0.00  0.00    +0.000 A 
ATOM     17  S   UNL     1      48.374   5.309  19.952  0.00  0.00    +0.000 S 
ATOM     18  C   UNL     1      48.857   5.231  18.326  0.00  0.00    +0.000 A 
ATOM     19  C   UNL     1      48.692   6.422  17.626  0.00  0.00    +0.000 A 
ATOM     20  C   UNL     1      48.145   7.447  18.510  0.00  0.00    +0.000 A 
BRANCH  12  22
ATOM     21  C   UNL     1      49.221  10.093  17.075  0.00  0.00    +0.000 C 
ATOM     22  O   UNL     1      47.947   9.457  17.174  0.00  0.00    +0.000 OA
ENDBRANCH  12  22
ENDBRANCH   8  19
ENDBRANCH   7  10
ENDBRANCH   1   7
BRANCH   4  23
ATOM     23  C   UNL     1      43.820   4.951  10.647  0.00  0.00    +0.000 C 
BRANCH  23  24
ATOM     24  N   UNL     1      44.183   4.294   9.393  0.00  0.00    +0.000 NA
ATOM     25  H   UNL     1      44.762   4.936   8.849  0.00  0.00    +0.000 HD
BRANCH  24  26
ATOM     26  C   UNL     1      44.938   3.044   9.568  0.00  0.00    +0.000 C 
ATOM     27  C   UNL     1      44.035   1.826   9.829  0.00  0.00    +0.000 C 
BRANCH  26  28
ATOM     28  C   UNL     1      45.793   2.777   8.335  0.00  0.00    +0.000 A 
ATOM     29  C   UNL     1      46.334   1.504   8.099  0.00  0.00    +0.000 A 
ATOM     30  C   UNL     1      47.102   1.258   6.955  0.00  0.00    +0.000 A 
ATOM     31  C   UNL     1      47.338   2.278   6.037  0.00  0.00    +0.000 A 
ATOM     32  C   UNL     1      46.807   3.546   6.255  0.00  0.00    +0.000 A 
ATOM     33  C   UNL     1      46.044   3.795   7.397  0.00  0.00    +0.000 A 
ENDBRANCH  26  28
ENDBRANCH  24  26
ENDBRANCH  23  24
ENDBRANCH   4  23
TORSDOF 8
ENDMDL
MODEL 4
REMARK VINA RESULT:    -7.665      1.338      1.594
REMARK INTER + INTRA:         -12.476
REMARK INTER:                 -11.278
REMARK INTRA:                  -1.198
REMARK UNBOUND:                -1.227
REMARK  Name = 
REMARK  10 active torsions:
REMARK  status: ('A' for Active; 'I' for Inactive)
REMARK    1  A    between atoms: C_1  and  O_2
REMARK    2  A    between atoms: O_2  and  C_3
REMARK    3  A    between atoms: C_10  and  C_11
REMARK    4  A    between atoms: N_13  and  C_14
REMARK    5  A    between atoms: C_14  and  C_15
REMARK    6  A    between atoms: C_18  and  C_19
REMARK    7  A    between atoms: C_19  and  N_20
REMARK    8  A    between atoms: N_20  and  C_21
REMARK    9  A    between atoms: C_21  and  C_22
REMARK   10  A    between atoms: C_21  and  C_23
REMARK                            x       y       z     vdW  Elec       q    Type
REMARK                         _______ _______ _______ _____ _____    ______ ____
ROOT
ATOM      1  C   UNL     1      47.202   6.369  13.461  0.00  0.00    +0.000 A 
ATOM      2  C   UNL     1      46.387   6.705  12.374  0.00  0.00    +0.000 A 
ATOM      3  C   UNL     1      45.521   5.762  11.812  0.00  0.00    +0.000 A 
ATOM      4  C   UNL     1      45.447   4.458  12.325  0.00  0.00    +0.000 A 
ATOM      5  C   UNL     1      46.275   4.117  13.403  0.00  0.00    +0.000 A 
ATOM      6  C   UNL     1      47.140   5.063  13.968  0.00  0.00    +0.000 A 
ENDROOT
BRANCH   1   7
ATOM      7  C   UNL     1      48.098   7.405  14.086  0.00  0.00    +0.000 C 
BRANCH   7  10
ATOM      8  C   UNL     1      50.162   7.586  15.390  0.00  0.00    +0.000 C 
ATOM      9  O   UNL     1      50.029   8.808  15.436  0.00  0.00    +0.000 OA
ATOM     10  N   UNL     1      49.245   6.806  14.736  0.00  0.00    +0.000 N 
ATOM     11  H   UNL     1      49.333   5.798  14.730  0.00  0.00    +0.000 HD
BRANCH   8  19
ATOM     12  C   UNL     1      50.524   4.836  17.454  0.00  0.00    +0.000 A 
ATOM     13  N   UNL     1      50.957   3.827  18.239  0.00  0.00    +0.000 NA
ATOM     14  C   UNL     1      52.269   3.722  18.468  0.00  0.00    +0.000 A 
ATOM     15  N   UNL     1      53.226   4.515  18.000  0.00  0.00    +0.000 NA
ATOM     16  C   UNL     1      52.755   5.509  17.230  0.00  0.00    +0.000 A 
ATOM     17  S   UNL     1      53.842   6.622  16.555  0.00  0.00    +0.000 S 
ATOM     18  C   UNL     1      52.579   7.466  15.797  0.00  0.00    +0.000 A 
ATOM     19  C   UNL     1      51.316   6.929  16.029  0.00  0.00    +0.000 A 
ATOM     20  C   UNL     1      51.425   5.759  16.897  0.00  0.00    +0.000 A 
BRANCH  12  22
ATOM     21  C   UNL     1      48.502   3.694  17.200  0.00  0.00    +0.000 C 
ATOM     22  O   UNL     1      49.166   4.958  17.239  0.00  0.00    +0.000 OA
ENDBRANCH  12  22
ENDBRANCH   8  19
ENDBRANCH   7  10
ENDBRANCH   1   7
BRANCH   4  23
ATOM     23  C   UNL     1      44.442   3.473  11.765  0.00  0.00    +0.000 C 
BRANCH  23  24
ATOM     24  N   UNL     1      45.035   2.617  10.739  0.00  0.00    +0.000 NA
ATOM     25  H   UNL     1      44.858   1.643  10.992  0.00  0.00    +0.000 HD
BRANCH  24  26
ATOM     26  C   UNL     1      44.496   2.839   9.389  0.00  0.00    +0.000 C 
ATOM     27  C   UNL     1      43.979   4.272   9.175  0.00  0.00    +0.000 C 
BRANCH  26  28
ATOM     28  C   UNL     1      45.566   2.532   8.348  0.00  0.00    +0.000 A 
ATOM     29  C   UNL     1      46.025   3.532   7.476  0.00  0.00    +0.000 A 
ATOM     30  C   UNL     1      47.022   3.252   6.535  0.00  0.00    +0.000 A 
ATOM     31  C   UNL     1      47.568   1.973   6.451  0.00  0.00    +0.000 A 
ATOM     32  C   UNL     1      47.125   0.971   7.310  0.00  0.00    +0.000 A 
ATOM     33  C   UNL     1      46.128   1.247   8.248  0.00  0.00    +0.000 A 
ENDBRANCH  26  28
ENDBRANCH  24  26
ENDBRANCH  23  24
ENDBRANCH   4  23
TORSDOF 8
ENDMDL
MODEL 5
REMARK VINA RESULT:    -7.442      2.983      4.333
REMARK INTER + INTRA:         -12.149
REMARK INTER:                 -11.152
REMARK INTRA:                  -0.997
REMARK UNBOUND:                -1.227
REMARK  Name = 
REMARK  10 active torsions:
REMARK  status: ('A' for Active; 'I' for Inactive)
REMARK    1  A    between atoms: C_1  and  O_2
REMARK    2  A    between atoms: O_2  and  C_3
REMARK    3  A    between atoms: C_10  and  C_11
REMARK    4  A    between atoms: N_13  and  C_14
REMARK    5  A    between atoms: C_14  and  C_15
REMARK    6  A    between atoms: C_18  and  C_19
REMARK    7  A    between atoms: C_19  and  N_20
REMARK    8  A    between atoms: N_20  and  C_21
REMARK    9  A    between atoms: C_21  and  C_22
REMARK   10  A    between atoms: C_21  and  C_23
REMARK                            x       y       z     vdW  Elec       q    Type
REMARK                         _______ _______ _______ _____ _____    ______ ____
ROOT
ATOM      1  C   UNL     1      46.363   4.441  13.904  0.00  0.00    +0.000 A 
ATOM      2  C   UNL     1      46.224   3.267  13.155  0.00  0.00    +0.000 A 
ATOM      3  C   UNL     1      45.288   3.187  12.120  0.00  0.00    +0.000 A 
ATOM      4  C   UNL     1      44.468   4.281  11.805  0.00  0.00    +0.000 A 
ATOM      5  C   UNL     1      44.596   5.451  12.566  0.00  0.00    +0.000 A 
ATOM      6  C   UNL     1      45.536   5.532  13.601  0.00  0.00    +0.000 A 
ENDROOT
BRANCH   1   7
ATOM      7  C   UNL     1      47.405   4.531  14.987  0.00  0.00    +0.000 C 
BRANCH   7  10
ATOM      8  C   UNL     1      48.494   6.700  14.663  0.00  0.00    +0.000 C 
ATOM      9  O   UNL     1      49.058   6.269  13.658  0.00  0.00    +0.000 OA
ATOM     10  N   UNL     1      47.650   5.900  15.389  0.00  0.00    +0.000 N 
ATOM     11  H   UNL     1      47.157   6.264  16.194  0.00  0.00    +0.000 HD
BRANCH   8  19
ATOM     12  C   UNL     1      48.600   8.223  17.765  0.00  0.00    +0.000 A 
ATOM     13  N   UNL     1      48.704   9.062  18.817  0.00  0.00    +0.000 NA
ATOM     14  C   UNL     1      48.969  10.349  18.574  0.00  0.00    +0.000 A 
ATOM     15  N   UNL     1      49.148  10.917  17.387  0.00  0.00    +0.000 NA
ATOM     16  C   UNL     1      49.030  10.050  16.368  0.00  0.00    +0.000 A 
ATOM     17  S   UNL     1      49.222  10.609  14.778  0.00  0.00    +0.000 S 
ATOM     18  C   UNL     1      48.951   9.055  14.150  0.00  0.00    +0.000 A 
ATOM     19  C   UNL     1      48.717   8.084  15.119  0.00  0.00    +0.000 A 
ATOM     20  C   UNL     1      48.756   8.686  16.448  0.00  0.00    +0.000 A 
BRANCH  12  22
ATOM     21  C   UNL     1      49.327   6.236  18.755  0.00  0.00    +0.000 C 
ATOM     22  O   UNL     1      48.301   6.899  18.016  0.00  0.00    +0.000 OA
ENDBRANCH  12  22
ENDBRANCH   8  19
ENDBRANCH   7  10
ENDBRANCH   1   7
BRANCH   4  23
ATOM     23  C   UNL     1      43.519   4.211  10.626  0.00  0.00    +0.000 C 
BRANCH  23  24
ATOM     24  N   UNL     1      44.025   3.333   9.573  0.00  0.00    +0.000 NA
ATOM     25  H   UNL     1      43.229   2.879   9.123  0.00  0.00    +0.000 HD
BRANCH  24  26
ATOM     26  C   UNL     1      44.797   4.028   8.533  0.00  0.00    +0.000 C 
ATOM     27  C   UNL     1      45.624   5.204   9.080  0.00  0.00    +0.000 C 
BRANCH  26  28
ATOM     28  C   UNL     1      45.730   3.044   7.835  0.00  0.00    +0.000 A 
ATOM     29  C   UNL     1      46.429   3.417   6.677  0.00  0.00    +0.000 A 
ATOM     30  C   UNL     1      47.300   2.518   6.051  0.00  0.00    +0.000 A 
ATOM     31  C   UNL     1      47.480   1.238   6.572  0.00  0.00    +0.000 A 
ATOM     32  C   UNL     1      46.795   0.854   7.721  0.00  0.00    +0.000 A 
ATOM     33  C   UNL     1      45.923   1.748   8.346  0.00  0.00    +0.000 A 
ENDBRANCH  26  28
ENDBRANCH  24  26
ENDBRANCH  23  24
ENDBRANCH   4  23
TORSDOF 8
ENDMDL
MODEL 6
REMARK VINA RESULT:    -7.259      2.748      4.246
REMARK INTER + INTRA:         -11.880
REMARK INTER:                 -10.611
REMARK INTRA:                  -1.269
REMARK UNBOUND:                -1.227
REMARK  Name = 
REMARK  10 active torsions:
REMARK  status: ('A' for Active; 'I' for Inactive)
REMARK    1  A    between atoms: C_1  and  O_2
REMARK    2  A    between atoms: O_2  and  C_3
REMARK    3  A    between atoms: C_10  and  C_11
REMARK    4  A    between atoms: N_13  and  C_14
REMARK    5  A    between atoms: C_14  and  C_15
REMARK    6  A    between atoms: C_18  and  C_19
REMARK    7  A    between atoms: C_19  and  N_20
REMARK    8  A    between atoms: N_20  and  C_21
REMARK    9  A    between atoms: C_21  and  C_22
REMARK   10  A    between atoms: C_21  and  C_23
REMARK                            x       y       z     vdW  Elec       q    Type
REMARK                         _______ _______ _______ _____ _____    ______ ____
ROOT
ATOM      1  C   UNL     1      46.610   4.240  14.074  0.00  0.00    +0.000 A 
ATOM      2  C   UNL     1      46.200   3.168  13.273  0.00  0.00    +0.000 A 
ATOM      3  C   UNL     1      45.289   3.363  12.231  0.00  0.00    +0.000 A 
ATOM      4  C   UNL     1      44.766   4.637  11.961  0.00  0.00    +0.000 A 
ATOM      5  C   UNL     1      45.165   5.707  12.773  0.00  0.00    +0.000 A 
ATOM      6  C   UNL     1      46.080   5.512  13.816  0.00  0.00    +0.000 A 
ENDROOT
BRANCH   1   7
ATOM      7  C   UNL     1      47.625   4.027  15.165  0.00  0.00    +0.000 C 
BRANCH   7  10
ATOM      8  C   UNL     1      47.897   4.930  17.425  0.00  0.00    +0.000 C 
ATOM      9  O   UNL     1      48.072   3.793  17.861  0.00  0.00    +0.000 OA
ATOM     10  N   UNL     1      47.667   5.140  16.090  0.00  0.00    +0.000 N 
ATOM     11  H   UNL     1      47.560   6.077  15.724  0.00  0.00    +0.000 HD
BRANCH   8  19
ATOM     12  C   UNL     1      48.542   8.298  16.983  0.00  0.00    +0.000 A 
ATOM     13  N   UNL     1      48.731   9.629  17.103  0.00  0.00    +0.000 NA
ATOM     14  C   UNL     1      48.574  10.184  18.308  0.00  0.00    +0.000 A 
ATOM     15  N   UNL     1      48.243   9.564  19.435  0.00  0.00    +0.000 NA
ATOM     16  C   UNL     1      48.071   8.241  19.275  0.00  0.00    +0.000 A 
ATOM     17  S   UNL     1      47.652   7.291  20.617  0.00  0.00    +0.000 S 
ATOM     18  C   UNL     1      47.624   5.883  19.668  0.00  0.00    +0.000 A 
ATOM     19  C   UNL     1      47.921   6.096  18.326  0.00  0.00    +0.000 A 
ATOM     20  C   UNL     1      48.198   7.511  18.095  0.00  0.00    +0.000 A 
BRANCH  12  22
ATOM     21  C   UNL     1      48.715   8.682  14.686  0.00  0.00    +0.000 C 
ATOM     22  O   UNL     1      48.730   7.722  15.743  0.00  0.00    +0.000 OA
ENDBRANCH  12  22
ENDBRANCH   8  19
ENDBRANCH   7  10
ENDBRANCH   1   7
BRANCH   4  23
ATOM     23  C   UNL     1      43.848   4.851  10.775  0.00  0.00    +0.000 C 
BRANCH  23  24
ATOM     24  N   UNL     1      44.108   3.889   9.706  0.00  0.00    +0.000 NA
ATOM     25  H   UNL     1      43.215   3.628   9.285  0.00  0.00    +0.000 HD
BRANCH  24  26
ATOM     26  C   UNL     1      44.980   4.400   8.639  0.00  0.00    +0.000 C 
ATOM     27  C   UNL     1      45.957   5.484   9.126  0.00  0.00    +0.000 C 
BRANCH  26  28
ATOM     28  C   UNL     1      45.774   3.253   8.024  0.00  0.00    +0.000 A 
ATOM     29  C   UNL     1      45.684   1.956   8.551  0.00  0.00    +0.000 A 
ATOM     30  C   UNL     1      46.398   0.901   7.971  0.00  0.00    +0.000 A 
ATOM     31  C   UNL     1      47.209   1.130   6.862  0.00  0.00    +0.000 A 
ATOM     32  C   UNL     1      47.307   2.411   6.326  0.00  0.00    +0.000 A 
ATOM     33  C   UNL     1      46.598   3.465   6.905  0.00  0.00    +0.000 A 
ENDBRANCH  26  28
ENDBRANCH  24  26
ENDBRANCH  23  24
ENDBRANCH   4  23
TORSDOF 8
ENDMDL
MODEL 7
REMARK VINA RESULT:    -7.063      3.599      9.134
REMARK INTER + INTRA:         -11.593
REMARK INTER:                 -10.120
REMARK INTRA:                  -1.473
REMARK UNBOUND:                -1.227
REMARK  Name = 
REMARK  10 active torsions:
REMARK  status: ('A' for Active; 'I' for Inactive)
REMARK    1  A    between atoms: C_1  and  O_2
REMARK    2  A    between atoms: O_2  and  C_3
REMARK    3  A    between atoms: C_10  and  C_11
REMARK    4  A    between atoms: N_13  and  C_14
REMARK    5  A    between atoms: C_14  and  C_15
REMARK    6  A    between atoms: C_18  and  C_19
REMARK    7  A    between atoms: C_19  and  N_20
REMARK    8  A    between atoms: N_20  and  C_21
REMARK    9  A    between atoms: C_21  and  C_22
REMARK   10  A    between atoms: C_21  and  C_23
REMARK                            x       y       z     vdW  Elec       q    Type
REMARK                         _______ _______ _______ _____ _____    ______ ____
ROOT
ATOM      1  C   UNL     1      48.763   3.314  17.130  0.00  0.00    +0.000 A 
ATOM      2  C   UNL     1      49.468   2.118  16.953  0.00  0.00    +0.000 A 
ATOM      3  C   UNL     1      50.838   2.050  17.225  0.00  0.00    +0.000 A 
ATOM      4  C   UNL     1      51.538   3.177  17.682  0.00  0.00    +0.000 A 
ATOM      5  C   UNL     1      50.835   4.379  17.843  0.00  0.00    +0.000 A 
ATOM      6  C   UNL     1      49.462   4.446  17.574  0.00  0.00    +0.000 A 
ENDROOT
BRANCH   1   7
ATOM      7  C   UNL     1      47.280   3.365  16.877  0.00  0.00    +0.000 C 
BRANCH   7  10
ATOM      8  C   UNL     1      46.948   4.207  14.602  0.00  0.00    +0.000 C 
ATOM      9  O   UNL     1      47.273   3.111  14.146  0.00  0.00    +0.000 OA
ATOM     10  N   UNL     1      46.924   4.422  15.955  0.00  0.00    +0.000 N 
ATOM     11  H   UNL     1      46.621   5.311  16.332  0.00  0.00    +0.000 HD
BRANCH   8  19
ATOM     12  C   UNL     1      44.162   4.947  12.693  0.00  0.00    +0.000 A 
ATOM     13  N   UNL     1      43.227   5.484  11.882  0.00  0.00    +0.000 NA
ATOM     14  C   UNL     1      43.494   6.657  11.300  0.00  0.00    +0.000 A 
ATOM     15  N   UNL     1      44.601   7.378  11.430  0.00  0.00    +0.000 NA
ATOM     16  C   UNL     1      45.508   6.807  12.238  0.00  0.00    +0.000 A 
ATOM     17  S   UNL     1      46.988   7.591  12.511  0.00  0.00    +0.000 S 
ATOM     18  C   UNL     1      47.510   6.345  13.540  0.00  0.00    +0.000 A 
ATOM     19  C   UNL     1      46.585   5.319  13.706  0.00  0.00    +0.000 A 
ATOM     20  C   UNL     1      45.388   5.595  12.916  0.00  0.00    +0.000 A 
BRANCH  12  22
ATOM     21  C   UNL     1      43.567   2.720  12.312  0.00  0.00    +0.000 C 
ATOM     22  O   UNL     1      43.895   3.723  13.274  0.00  0.00    +0.000 OA
ENDBRANCH  12  22
ENDBRANCH   8  19
ENDBRANCH   7  10
ENDBRANCH   1   7
BRANCH   4  23
ATOM     23  C   UNL     1      53.002   3.069  18.056  0.00  0.00    +0.000 C 
BRANCH  23  24
ATOM     24  N   UNL     1      53.599   4.381  18.297  0.00  0.00    +0.000 NA
ATOM     25  H   UNL     1      53.821   4.455  19.291  0.00  0.00    +0.000 HD
BRANCH  24  26
ATOM     26  C   UNL     1      54.834   4.625  17.538  0.00  0.00    +0.000 C 
ATOM     27  C   UNL     1      55.441   3.342  16.945  0.00  0.00    +0.000 C 
BRANCH  26  28
ATOM     28  C   UNL     1      54.564   5.616  16.412  0.00  0.00    +0.000 A 
ATOM     29  C   UNL     1      53.458   6.478  16.466  0.00  0.00    +0.000 A 
ATOM     30  C   UNL     1      53.224   7.401  15.440  0.00  0.00    +0.000 A 
ATOM     31  C   UNL     1      54.089   7.471  14.350  0.00  0.00    +0.000 A 
ATOM     32  C   UNL     1      55.191   6.624  14.283  0.00  0.00    +0.000 A 
ATOM     33  C   UNL     1      55.425   5.700  15.303  0.00  0.00    +0.000 A 
ENDBRANCH  26  28
ENDBRANCH  24  26
ENDBRANCH  23  24
ENDBRANCH   4  23
TORSDOF 8
ENDMDL
MODEL 8
REMARK VINA RESULT:    -7.011      3.530      9.653
REMARK INTER + INTRA:         -11.517
REMARK INTER:                 -10.415
REMARK INTRA:                  -1.102
REMARK UNBOUND:                -1.227
REMARK  Name = 
REMARK  10 active torsions:
REMARK  status: ('A' for Active; 'I' for Inactive)
REMARK    1  A    between atoms: C_1  and  O_2
REMARK    2  A    between atoms: O_2  and  C_3
REMARK    3  A    between atoms: C_10  and  C_11
REMARK    4  A    between atoms: N_13  and  C_14
REMARK    5  A    between atoms: C_14  and  C_15
REMARK    6  A    between atoms: C_18  and  C_19
REMARK    7  A    between atoms: C_19  and  N_20
REMARK    8  A    between atoms: N_20  and  C_21
REMARK    9  A    between atoms: C_21  and  C_22
REMARK   10  A    between atoms: C_21  and  C_23
REMARK                            x       y       z     vdW  Elec       q    Type
REMARK                         _______ _______ _______ _____ _____    ______ ____
ROOT
ATOM      1  C   UNL     1      48.657   3.343  17.062  0.00  0.00    +0.000 A 
ATOM      2  C   UNL     1      49.400   2.159  16.991  0.00  0.00    +0.000 A 
ATOM      3  C   UNL     1      50.757   2.147  17.327  0.00  0.00    +0.000 A 
ATOM      4  C   UNL     1      51.406   3.319  17.744  0.00  0.00    +0.000 A 
ATOM      5  C   UNL     1      50.665   4.508  17.799  0.00  0.00    +0.000 A 
ATOM      6  C   UNL     1      49.304   4.519  17.466  0.00  0.00    +0.000 A 
ENDROOT
BRANCH   1   7
ATOM      7  C   UNL     1      47.186   3.335  16.742  0.00  0.00    +0.000 C 
BRANCH   7  10
ATOM      8  C   UNL     1      46.867   4.216  14.480  0.00  0.00    +0.000 C 
ATOM      9  O   UNL     1      47.214   3.135  14.007  0.00  0.00    +0.000 OA
ATOM     10  N   UNL     1      46.824   4.405  15.837  0.00  0.00    +0.000 N 
ATOM     11  H   UNL     1      46.503   5.282  16.227  0.00  0.00    +0.000 HD
BRANCH   8  19
ATOM     12  C   UNL     1      44.046   5.005  12.642  0.00  0.00    +0.000 A 
ATOM     13  N   UNL     1      43.100   5.560  11.857  0.00  0.00    +0.000 NA
ATOM     14  C   UNL     1      43.367   6.734  11.278  0.00  0.00    +0.000 A 
ATOM     15  N   UNL     1      44.485   7.442  11.388  0.00  0.00    +0.000 NA
ATOM     16  C   UNL     1      45.404   6.853  12.171  0.00  0.00    +0.000 A 
ATOM     17  S   UNL     1      46.899   7.617  12.415  0.00  0.00    +0.000 S 
ATOM     18  C   UNL     1      47.430   6.357  13.422  0.00  0.00    +0.000 A 
ATOM     19  C   UNL     1      46.497   5.340  13.601  0.00  0.00    +0.000 A 
ATOM     20  C   UNL     1      45.285   5.637  12.842  0.00  0.00    +0.000 A 
BRANCH  12  22
ATOM     21  C   UNL     1      43.672   2.732  12.255  0.00  0.00    +0.000 C 
ATOM     22  O   UNL     1      43.778   3.780  13.219  0.00  0.00    +0.000 OA
ENDBRANCH  12  22
ENDBRANCH   8  19
ENDBRANCH   7  10
ENDBRANCH   1   7
BRANCH   4  23
ATOM     23  C   UNL     1      52.853   3.276  18.188  0.00  0.00    +0.000 C 
BRANCH  23  24
ATOM     24  N   UNL     1      53.179   2.016  18.855  0.00  0.00    +0.000 NA
ATOM     25  H   UNL     1      52.616   1.275  18.434  0.00  0.00    +0.000 HD
BRANCH  24  26
ATOM     26  C   UNL     1      54.593   1.629  18.745  0.00  0.00    +0.000 C 
ATOM     27  C   UNL     1      55.306   1.560  20.107  0.00  0.00    +0.000 C 
BRANCH  26  28
ATOM     28  C   UNL     1      54.708   0.277  18.052  0.00  0.00    +0.000 A 
ATOM     29  C   UNL     1      54.931   0.197  16.669  0.00  0.00    +0.000 A 
ATOM     30  C   UNL     1      55.056  -1.045  16.038  0.00  0.00    +0.000 A 
ATOM     31  C   UNL     1      54.958  -2.221  16.780  0.00  0.00    +0.000 A 
ATOM     32  C   UNL     1      54.739  -2.159  18.153  0.00  0.00    +0.000 A 
ATOM     33  C   UNL     1      54.610  -0.920  18.784  0.00  0.00    +0.000 A 
ENDBRANCH  26  28
ENDBRANCH  24  26
ENDBRANCH  23  24
ENDBRANCH   4  23
TORSDOF 8
ENDMDL
