MODEL 1
REMARK VINA RESULT:    -8.666      0.000      0.000
REMARK INTER + INTRA:         -13.135
REMARK INTER:                 -12.213
REMARK INTRA:                  -0.922
REMARK UNBOUND:                -0.922
REMARK  Name = 
REMARK  7 active torsions:
REMARK  status: ('A' for Active; 'I' for Inactive)
REMARK    1  A    between atoms: C_2  and  C_21
REMARK    2  A    between atoms: N_3  and  C_4
REMARK    3  A    between atoms: C_4  and  C_5
REMARK    4  A    between atoms: C_8  and  C_9
REMARK    5  A    between atoms: C_9  and  N_10
REMARK    6  A    between atoms: N_10  and  C_11
REMARK    7  A    between atoms: C_11  and  C_12
REMARK                            x       y       z     vdW  Elec       q    Type
REMARK                         _______ _______ _______ _____ _____    ______ ____
ROOT
ATOM      1  C   UNL     1      47.129   6.193  12.653  0.00  0.00    +0.000 A 
ATOM      2  C   UNL     1      46.789   6.649  11.372  0.00  0.00    +0.000 A 
ATOM      3  C   UNL     1      45.690   6.112  10.686  0.00  0.00    +0.000 A 
ATOM      4  C   UNL     1      44.918   5.091  11.256  0.00  0.00    +0.000 A 
ATOM      5  C   UNL     1      45.292   4.613  12.515  0.00  0.00    +0.000 A 
ATOM      6  F   UNL     1      44.583   3.636  13.099  0.00  0.00    +0.000 F 
ATOM      7  C   UNL     1      46.388   5.139  13.203  0.00  0.00    +0.000 A 
ENDROOT
BRANCH   1   8
ATOM      8  C   UNL     1      48.250   6.834  13.434  0.00  0.00    +0.000 C 
BRANCH   8  11
ATOM      9  O   UNL     1      50.276   6.659  15.329  0.00  0.00    +0.000 OA
ATOM     10  C   UNL     1      49.116   6.733  15.720  0.00  0.00    +0.000 C 
ATOM     11  N   UNL     1      48.045   6.756  14.855  0.00  0.00    +0.000 N 
ATOM     12  H   UNL     1      47.145   7.068  15.200  0.00  0.00    +0.000 HD
BRANCH  10  13
ATOM     13  C   UNL     1      48.788   6.754  17.152  0.00  0.00    +0.000 A 
ATOM     14  C   UNL     1      48.355   7.927  17.757  0.00  0.00    +0.000 A 
ATOM     15  S   UNL     1      48.050   7.755  19.428  0.00  0.00    +0.000 S 
ATOM     16  C   UNL     1      48.443   6.097  19.386  0.00  0.00    +0.000 A 
ATOM     17  N   UNL     1      48.370   5.328  20.507  0.00  0.00    +0.000 NA
ATOM     18  C   UNL     1      48.668   4.087  20.315  0.00  0.00    +0.000 A 
ATOM     19  N   UNL     1      49.029   3.545  19.116  0.00  0.00    +0.000 N 
ATOM     20  C   UNL     1      49.157   4.283  17.966  0.00  0.00    +0.000 A 
ATOM     21  O   UNL     1      49.551   3.778  16.920  0.00  0.00    +0.000 OA
ATOM     22  C   UNL     1      48.823   5.685  18.116  0.00  0.00    +0.000 A 
ATOM     23  H   UNL     1      49.271   2.565  19.037  0.00  0.00    +0.000 HD
ENDBRANCH  10  13
ENDBRANCH   8  11
ENDBRANCH   1   8
BRANCH   4  24
ATOM     24  C   UNL     1      43.702   4.545  10.544  0.00  0.00    +0.000 C 
BRANCH  24  25
ATOM     25  N   UNL     1      43.975   3.399   9.646  0.00  0.00    +0.000 NA
ATOM     26  H   UNL     1      44.650   2.801  10.122  0.00  0.00    +0.000 HD
BRANCH  25  27
ATOM     27  C   UNL     1      44.558   3.858   8.381  0.00  0.00    +0.000 C 
BRANCH  27  28
ATOM     28  C   UNL     1      45.527   2.895   7.666  0.00  0.00    +0.000 C 
ATOM     29  C   UNL     1      46.780   3.579   7.108  0.00  0.00    +0.000 C 
ATOM     30  C   UNL     1      47.564   2.597   6.233  0.00  0.00    +0.000 C 
ATOM     31  N   UNL     1      47.950   1.393   6.973  0.00  0.00    +0.000 NA
ATOM     32  C   UNL     1      46.784   0.726   7.563  0.00  0.00    +0.000 C 
ATOM     33  C   UNL     1      45.965   1.661   8.468  0.00  0.00    +0.000 C 
ATOM     34  H   UNL     1      48.591   1.655   7.721  0.00  0.00    +0.000 HD
ENDBRANCH  27  28
ENDBRANCH  25  27
ENDBRANCH  24  25
ENDBRANCH   4  24
TORSDOF 7
ENDMDL
MODEL 2
REMARK VINA RESULT:    -8.440      1.313      1.975
REMARK INTER + INTRA:         -12.815
REMARK INTER:                 -11.928
REMARK INTRA:                  -0.887
REMARK UNBOUND:                -0.922
REMARK  Name = 
REMARK  7 active torsions:
REMARK  status: ('A' for Active; 'I' for Inactive)
REMARK    1  A    between atoms: C_2  and  C_21
REMARK    2  A    between atoms: N_3  and  C_4
REMARK    3  A    between atoms: C_4  and  C_5
REMARK    4  A    between atoms: C_8  and  C_9
REMARK    5  A    between atoms: C_9  and  N_10
REMARK    6  A    between atoms: N_10  and  C_11
REMARK    7  A    between atoms: C_11  and  C_12
REMARK                            x       y       z     vdW  Elec       q    Type
REMARK                         _______ _______ _______ _____ _____    ______ ____
ROOT
ATOM      1  C   UNL     1      46.921   6.045  12.835  0.00  0.00    +0.000 A 
ATOM      2  C   UNL     1      46.378   6.773  11.767  0.00  0.00    +0.000 A 
ATOM      3  C   UNL     1      45.317   6.255  11.010  0.00  0.00    +0.000 A 
ATOM      4  C   UNL     1      44.787   4.988  11.290  0.00  0.00    +0.000 A 
ATOM      5  C   UNL     1      45.365   4.252  12.328  0.00  0.00    +0.000 A 
ATOM      6  F   UNL     1      44.891   3.035  12.631  0.00  0.00    +0.000 F 
ATOM      7  C   UNL     1      46.426   4.758  13.084  0.00  0.00    +0.000 A 
ENDROOT
BRANCH   1   8
ATOM      8  C   UNL     1      47.997   6.638  13.713  0.00  0.00    +0.000 C 
BRANCH   8  11
ATOM      9  O   UNL     1      50.099   6.621  15.530  0.00  0.00    +0.000 OA
ATOM     10  C   UNL     1      48.989   6.274  15.919  0.00  0.00    +0.000 C 
ATOM     11  N   UNL     1      47.904   6.188  15.075  0.00  0.00    +0.000 N 
ATOM     12  H   UNL     1      46.975   6.148  15.476  0.00  0.00    +0.000 HD
BRANCH  10  13
ATOM     13  C   UNL     1      48.752   5.881  17.314  0.00  0.00    +0.000 A 
ATOM     14  C   UNL     1      48.996   4.577  17.729  0.00  0.00    +0.000 A 
ATOM     15  S   UNL     1      48.636   4.311  19.376  0.00  0.00    +0.000 S 
ATOM     16  C   UNL     1      48.184   5.941  19.598  0.00  0.00    +0.000 A 
ATOM     17  N   UNL     1      47.780   6.398  20.815  0.00  0.00    +0.000 NA
ATOM     18  C   UNL     1      47.500   7.658  20.837  0.00  0.00    +0.000 A 
ATOM     19  N   UNL     1      47.585   8.498  19.764  0.00  0.00    +0.000 N 
ATOM     20  C   UNL     1      47.947   8.078  18.509  0.00  0.00    +0.000 A 
ATOM     21  O   UNL     1      47.947   8.845  17.552  0.00  0.00    +0.000 OA
ATOM     22  C   UNL     1      48.288   6.673  18.424  0.00  0.00    +0.000 A 
ATOM     23  H   UNL     1      47.330   9.475  19.844  0.00  0.00    +0.000 HD
ENDBRANCH  10  13
ENDBRANCH   8  11
ENDBRANCH   1   8
BRANCH   4  24
ATOM     24  C   UNL     1      43.611   4.448  10.511  0.00  0.00    +0.000 C 
BRANCH  24  25
ATOM     25  N   UNL     1      43.955   3.411   9.511  0.00  0.00    +0.000 NA
ATOM     26  H   UNL     1      44.477   2.685  10.001  0.00  0.00    +0.000 HD
BRANCH  25  27
ATOM     27  C   UNL     1      44.803   3.972   8.454  0.00  0.00    +0.000 C 
BRANCH  27  28
ATOM     28  C   UNL     1      45.651   2.978   7.635  0.00  0.00    +0.000 C 
ATOM     29  C   UNL     1      46.825   3.629   6.894  0.00  0.00    +0.000 C 
ATOM     30  C   UNL     1      47.466   2.616   5.943  0.00  0.00    +0.000 C 
ATOM     31  N   UNL     1      47.934   1.421   6.650  0.00  0.00    +0.000 NA
ATOM     32  C   UNL     1      46.852   0.786   7.410  0.00  0.00    +0.000 C 
ATOM     33  C   UNL     1      46.179   1.754   8.398  0.00  0.00    +0.000 C 
ATOM     34  H   UNL     1      48.676   1.688   7.296  0.00  0.00    +0.000 HD
ENDBRANCH  27  28
ENDBRANCH  25  27
ENDBRANCH  24  25
ENDBRANCH   4  24
TORSDOF 7
ENDMDL
MODEL 3
REMARK VINA RESULT:    -8.245      1.743      2.983
REMARK INTER + INTRA:         -12.541
REMARK INTER:                 -11.217
REMARK INTRA:                  -1.324
REMARK UNBOUND:                -0.922
REMARK  Name = 
REMARK  7 active torsions:
REMARK  status: ('A' for Active; 'I' for Inactive)
REMARK    1  A    between atoms: C_2  and  C_21
REMARK    2  A    between atoms: N_3  and  C_4
REMARK    3  A    between atoms: C_4  and  C_5
REMARK    4  A    between atoms: C_8  and  C_9
REMARK    5  A    between atoms: C_9  and  N_10
REMARK    6  A    between atoms: N_10  and  C_11
REMARK    7  A    between atoms: C_11  and  C_12
REMARK                            x       y       z     vdW  Elec       q    Type
REMARK                         _______ _______ _______ _____ _____    ______ ____
ROOT
ATOM      1  C   UNL     1      46.589   4.397  13.911  0.00  0.00    +0.000 A 
ATOM      2  C   UNL     1      46.660   5.699  13.395  0.00  0.00    +0.000 A 
ATOM      3  C   UNL     1      46.036   6.026  12.183  0.00  0.00    +0.000 A 
ATOM      4  C   UNL     1      45.343   5.055  11.447  0.00  0.00    +0.000 A 
ATOM      5  C   UNL     1      45.316   3.751  11.948  0.00  0.00    +0.000 A 
ATOM      6  F   UNL     1      44.666   2.789  11.277  0.00  0.00    +0.000 F 
ATOM      7  C   UNL     1      45.940   3.414  13.152  0.00  0.00    +0.000 A 
ENDROOT
BRANCH   1   8
ATOM      8  C   UNL     1      47.176   4.062  15.260  0.00  0.00    +0.000 C 
BRANCH   8  11
ATOM      9  O   UNL     1      49.333   4.073  17.012  0.00  0.00    +0.000 OA
ATOM     10  C   UNL     1      48.789   5.141  16.750  0.00  0.00    +0.000 C 
ATOM     11  N   UNL     1      47.675   5.223  15.946  0.00  0.00    +0.000 N 
ATOM     12  H   UNL     1      47.418   6.123  15.558  0.00  0.00    +0.000 HD
BRANCH  10  13
ATOM     13  C   UNL     1      49.268   6.407  17.319  0.00  0.00    +0.000 A 
ATOM     14  C   UNL     1      49.265   6.607  18.694  0.00  0.00    +0.000 A 
ATOM     15  S   UNL     1      49.834   8.149  19.157  0.00  0.00    +0.000 S 
ATOM     16  C   UNL     1      50.145   8.581  17.537  0.00  0.00    +0.000 A 
ATOM     17  N   UNL     1      50.673   9.796  17.223  0.00  0.00    +0.000 NA
ATOM     18  C   UNL     1      50.880   9.969  15.961  0.00  0.00    +0.000 A 
ATOM     19  N   UNL     1      50.613   9.048  14.990  0.00  0.00    +0.000 N 
ATOM     20  C   UNL     1      50.044   7.827  15.249  0.00  0.00    +0.000 A 
ATOM     21  O   UNL     1      49.753   7.050  14.345  0.00  0.00    +0.000 OA
ATOM     22  C   UNL     1      49.799   7.569  16.653  0.00  0.00    +0.000 A 
ATOM     23  H   UNL     1      50.781   9.256  14.012  0.00  0.00    +0.000 HD
ENDBRANCH  10  13
ENDBRANCH   8  11
ENDBRANCH   1   8
BRANCH   4  24
ATOM     24  C   UNL     1      44.625   5.415  10.167  0.00  0.00    +0.000 C 
BRANCH  24  25
ATOM     25  N   UNL     1      45.362   5.076   8.928  0.00  0.00    +0.000 NA
ATOM     26  H   UNL     1      45.339   5.903   8.331  0.00  0.00    +0.000 HD
BRANCH  25  27
ATOM     27  C   UNL     1      44.711   3.966   8.225  0.00  0.00    +0.000 C 
BRANCH  27  28
ATOM     28  C   UNL     1      45.631   2.920   7.564  0.00  0.00    +0.000 C 
ATOM     29  C   UNL     1      46.890   3.519   6.925  0.00  0.00    +0.000 C 
ATOM     30  C   UNL     1      47.621   2.448   6.112  0.00  0.00    +0.000 C 
ATOM     31  N   UNL     1      47.990   1.292   6.933  0.00  0.00    +0.000 NA
ATOM     32  C   UNL     1      46.821   0.710   7.601  0.00  0.00    +0.000 C 
ATOM     33  C   UNL     1      46.053   1.738   8.450  0.00  0.00    +0.000 C 
ATOM     34  H   UNL     1      48.658   1.591   7.643  0.00  0.00    +0.000 HD
ENDBRANCH  27  28
ENDBRANCH  25  27
ENDBRANCH  24  25
ENDBRANCH   4  24
TORSDOF 7
ENDMDL
MODEL 4
REMARK VINA RESULT:    -8.221      1.145      1.636
REMARK INTER + INTRA:         -12.508
REMARK INTER:                 -11.377
REMARK INTRA:                  -1.131
REMARK UNBOUND:                -0.922
REMARK  Name = 
REMARK  7 active torsions:
REMARK  status: ('A' for Active; 'I' for Inactive)
REMARK    1  A    between atoms: C_2  and  C_21
REMARK    2  A    between atoms: N_3  and  C_4
REMARK    3  A    between atoms: C_4  and  C_5
REMARK    4  A    between atoms: C_8  and  C_9
REMARK    5  A    between atoms: C_9  and  N_10
REMARK    6  A    between atoms: N_10  and  C_11
REMARK    7  A    between atoms: C_11  and  C_12
REMARK                            x       y       z     vdW  Elec       q    Type
REMARK                         _______ _______ _______ _____ _____    ______ ____
ROOT
ATOM      1  C   UNL     1      46.527   5.944  13.025  0.00  0.00    +0.000 A 
ATOM      2  C   UNL     1      46.585   4.566  13.276  0.00  0.00    +0.000 A 
ATOM      3  C   UNL     1      45.615   3.699  12.751  0.00  0.00    +0.000 A 
ATOM      4  C   UNL     1      44.553   4.192  11.981  0.00  0.00    +0.000 A 
ATOM      5  C   UNL     1      44.481   5.573  11.775  0.00  0.00    +0.000 A 
ATOM      6  F   UNL     1      43.481   6.090  11.045  0.00  0.00    +0.000 F 
ATOM      7  C   UNL     1      45.439   6.444  12.298  0.00  0.00    +0.000 A 
ENDROOT
BRANCH   1   8
ATOM      8  C   UNL     1      47.620   6.868  13.505  0.00  0.00    +0.000 C 
BRANCH   8  11
ATOM      9  O   UNL     1      50.135   7.021  14.679  0.00  0.00    +0.000 OA
ATOM     10  C   UNL     1      49.159   6.876  15.408  0.00  0.00    +0.000 C 
ATOM     11  N   UNL     1      47.883   6.724  14.911  0.00  0.00    +0.000 N 
ATOM     12  H   UNL     1      47.097   6.861  15.535  0.00  0.00    +0.000 HD
BRANCH  10  13
ATOM     13  C   UNL     1      49.294   6.808  16.868  0.00  0.00    +0.000 A 
ATOM     14  C   UNL     1      49.751   7.907  17.585  0.00  0.00    +0.000 A 
ATOM     15  S   UNL     1      49.863   7.622  19.264  0.00  0.00    +0.000 S 
ATOM     16  C   UNL     1      49.262   6.036  19.092  0.00  0.00    +0.000 A 
ATOM     17  N   UNL     1      49.086   5.230  20.175  0.00  0.00    +0.000 NA
ATOM     18  C   UNL     1      48.596   4.070  19.893  0.00  0.00    +0.000 A 
ATOM     19  N   UNL     1      48.266   3.643  18.639  0.00  0.00    +0.000 N 
ATOM     20  C   UNL     1      48.461   4.400  17.512  0.00  0.00    +0.000 A 
ATOM     21  O   UNL     1      48.219   3.960  16.393  0.00  0.00    +0.000 OA
ATOM     22  C   UNL     1      48.999   5.721  17.767  0.00  0.00    +0.000 A 
ATOM     23  H   UNL     1      47.904   2.710  18.483  0.00  0.00    +0.000 HD
ENDBRANCH  10  13
ENDBRANCH   8  11
ENDBRANCH   1   8
BRANCH   4  24
ATOM     24  C   UNL     1      43.535   3.257  11.371  0.00  0.00    +0.000 C 
BRANCH  24  25
ATOM     25  N   UNL     1      44.073   2.354  10.327  0.00  0.00    +0.000 NA
ATOM     26  H   UNL     1      44.839   1.831  10.751  0.00  0.00    +0.000 HD
BRANCH  25  27
ATOM     27  C   UNL     1      44.597   3.126   9.195  0.00  0.00    +0.000 C 
BRANCH  27  28
ATOM     28  C   UNL     1      45.862   2.580   8.501  0.00  0.00    +0.000 C 
ATOM     29  C   UNL     1      45.781   1.089   8.152  0.00  0.00    +0.000 C 
ATOM     30  C   UNL     1      47.149   0.592   7.676  0.00  0.00    +0.000 C 
ATOM     31  N   UNL     1      47.631   1.343   6.514  0.00  0.00    +0.000 NA
ATOM     32  C   UNL     1      47.683   2.783   6.787  0.00  0.00    +0.000 C 
ATOM     33  C   UNL     1      46.330   3.346   7.255  0.00  0.00    +0.000 C 
ATOM     34  H   UNL     1      46.999   1.181   5.730  0.00  0.00    +0.000 HD
ENDBRANCH  27  28
ENDBRANCH  25  27
ENDBRANCH  24  25
ENDBRANCH   4  24
TORSDOF 7
ENDMDL
MODEL 5
REMARK VINA RESULT:    -8.204      1.849      2.438
REMARK INTER + INTRA:         -12.484
REMARK INTER:                 -11.304
REMARK INTRA:                  -1.180
REMARK UNBOUND:                -0.922
REMARK  Name = 
REMARK  7 active torsions:
REMARK  status: ('A' for Active; 'I' for Inactive)
REMARK    1  A    between atoms: C_2  and  C_21
REMARK    2  A    between atoms: N_3  and  C_4
REMARK    3  A    between atoms: C_4  and  C_5
REMARK    4  A    between atoms: C_8  and  C_9
REMARK    5  A    between atoms: C_9  and  N_10
REMARK    6  A    between atoms: N_10  and  C_11
REMARK    7  A    between atoms: C_11  and  C_12
REMARK                            x       y       z     vdW  Elec       q    Type
REMARK                         _______ _______ _______ _____ _____    ______ ____
ROOT
ATOM      1  C   UNL     1      46.748   4.608  14.032  0.00  0.00    +0.000 A 
ATOM      2  C   UNL     1      46.826   5.896  13.482  0.00  0.00    +0.000 A 
ATOM      3  C   UNL     1      46.207   6.194  12.260  0.00  0.00    +0.000 A 
ATOM      4  C   UNL     1      45.512   5.207  11.547  0.00  0.00    +0.000 A 
ATOM      5  C   UNL     1      45.479   3.916  12.082  0.00  0.00    +0.000 A 
ATOM      6  F   UNL     1      44.826   2.939  11.435  0.00  0.00    +0.000 F 
ATOM      7  C   UNL     1      46.097   3.609  13.297  0.00  0.00    +0.000 A 
ENDROOT
BRANCH   1   8
ATOM      8  C   UNL     1      47.330   4.307  15.392  0.00  0.00    +0.000 C 
BRANCH   8  11
ATOM      9  O   UNL     1      49.744   4.625  16.731  0.00  0.00    +0.000 OA
ATOM     10  C   UNL     1      48.976   5.581  16.677  0.00  0.00    +0.000 C 
ATOM     11  N   UNL     1      47.732   5.496  16.093  0.00  0.00    +0.000 N 
ATOM     12  H   UNL     1      47.248   6.351  15.848  0.00  0.00    +0.000 HD
BRANCH  10  13
ATOM     13  C   UNL     1      49.319   6.876  17.278  0.00  0.00    +0.000 A 
ATOM     14  C   UNL     1      50.307   7.674  16.715  0.00  0.00    +0.000 A 
ATOM     15  S   UNL     1      50.577   9.125  17.572  0.00  0.00    +0.000 S 
ATOM     16  C   UNL     1      49.349   8.755  18.696  0.00  0.00    +0.000 A 
ATOM     17  N   UNL     1      49.041   9.611  19.709  0.00  0.00    +0.000 NA
ATOM     18  C   UNL     1      48.072   9.210  20.461  0.00  0.00    +0.000 A 
ATOM     19  N   UNL     1      47.386   8.042  20.297  0.00  0.00    +0.000 N 
ATOM     20  C   UNL     1      47.683   7.127  19.318  0.00  0.00    +0.000 A 
ATOM     21  O   UNL     1      47.091   6.055  19.242  0.00  0.00    +0.000 OA
ATOM     22  C   UNL     1      48.756   7.528  18.432  0.00  0.00    +0.000 A 
ATOM     23  H   UNL     1      46.647   7.776  20.937  0.00  0.00    +0.000 HD
ENDBRANCH  10  13
ENDBRANCH   8  11
ENDBRANCH   1   8
BRANCH   4  24
ATOM     24  C   UNL     1      44.799   5.536  10.256  0.00  0.00    +0.000 C 
BRANCH  24  25
ATOM     25  N   UNL     1      45.517   5.118   9.030  0.00  0.00    +0.000 NA
ATOM     26  H   UNL     1      45.531   5.922   8.403  0.00  0.00    +0.000 HD
BRANCH  25  27
ATOM     27  C   UNL     1      44.813   4.014   8.369  0.00  0.00    +0.000 C 
BRANCH  27  28
ATOM     28  C   UNL     1      45.680   2.968   7.639  0.00  0.00    +0.000 C 
ATOM     29  C   UNL     1      46.952   3.550   7.009  0.00  0.00    +0.000 C 
ATOM     30  C   UNL     1      47.626   2.494   6.130  0.00  0.00    +0.000 C 
ATOM     31  N   UNL     1      47.962   1.284   6.884  0.00  0.00    +0.000 NA
ATOM     32  C   UNL     1      46.780   0.715   7.542  0.00  0.00    +0.000 C 
ATOM     33  C   UNL     1      46.068   1.727   8.456  0.00  0.00    +0.000 C 
ATOM     34  H   UNL     1      48.652   1.520   7.597  0.00  0.00    +0.000 HD
ENDBRANCH  27  28
ENDBRANCH  25  27
ENDBRANCH  24  25
ENDBRANCH   4  24
TORSDOF 7
ENDMDL
MODEL 6
REMARK VINA RESULT:    -7.500      3.563      8.661
REMARK INTER + INTRA:         -11.491
REMARK INTER:                  -9.921
REMARK INTRA:                  -1.571
REMARK UNBOUND:                -0.922
REMARK  Name = 
REMARK  7 active torsions:
REMARK  status: ('A' for Active; 'I' for Inactive)
REMARK    1  A    between atoms: C_2  and  C_21
REMARK    2  A    between atoms: N_3  and  C_4
REMARK    3  A    between atoms: C_4  and  C_5
REMARK    4  A    between atoms: C_8  and  C_9
REMARK    5  A    between atoms: C_9  and  N_10
REMARK    6  A    between atoms: N_10  and  C_11
REMARK    7  A    between atoms: C_11  and  C_12
REMARK                            x       y       z     vdW  Elec       q    Type
REMARK                         _______ _______ _______ _____ _____    ______ ____
ROOT
ATOM      1  C   UNL     1      48.270   8.053  13.312  0.00  0.00    +0.000 A 
ATOM      2  C   UNL     1      49.493   7.406  13.539  0.00  0.00    +0.000 A 
ATOM      3  C   UNL     1      50.125   7.481  14.789  0.00  0.00    +0.000 A 
ATOM      4  C   UNL     1      49.559   8.222  15.836  0.00  0.00    +0.000 A 
ATOM      5  C   UNL     1      48.363   8.899  15.585  0.00  0.00    +0.000 A 
ATOM      6  F   UNL     1      47.785   9.622  16.557  0.00  0.00    +0.000 F 
ATOM      7  C   UNL     1      47.729   8.834  14.341  0.00  0.00    +0.000 A 
ENDROOT
BRANCH   1   8
ATOM      8  C   UNL     1      47.540   7.896  12.001  0.00  0.00    +0.000 C 
BRANCH   8  11
ATOM      9  O   UNL     1      44.796   7.634  11.645  0.00  0.00    +0.000 OA
ATOM     10  C   UNL     1      45.481   6.616  11.673  0.00  0.00    +0.000 C 
ATOM     11  N   UNL     1      46.837   6.645  11.910  0.00  0.00    +0.000 N 
ATOM     12  H   UNL     1      47.391   5.831  11.676  0.00  0.00    +0.000 HD
BRANCH  10  13
ATOM     13  C   UNL     1      44.886   5.285  11.499  0.00  0.00    +0.000 A 
ATOM     14  C   UNL     1      44.141   4.708  12.520  0.00  0.00    +0.000 A 
ATOM     15  S   UNL     1      43.557   3.150  12.136  0.00  0.00    +0.000 S 
ATOM     16  C   UNL     1      44.243   3.216  10.577  0.00  0.00    +0.000 A 
ATOM     17  N   UNL     1      44.095   2.185   9.699  0.00  0.00    +0.000 NA
ATOM     18  C   UNL     1      44.643   2.391   8.549  0.00  0.00    +0.000 A 
ATOM     19  N   UNL     1      45.319   3.522   8.195  0.00  0.00    +0.000 N 
ATOM     20  C   UNL     1      45.531   4.571   9.054  0.00  0.00    +0.000 A 
ATOM     21  O   UNL     1      46.203   5.543   8.725  0.00  0.00    +0.000 OA
ATOM     22  C   UNL     1      44.927   4.404  10.360  0.00  0.00    +0.000 A 
ATOM     23  H   UNL     1      45.745   3.611   7.280  0.00  0.00    +0.000 HD
ENDBRANCH  10  13
ENDBRANCH   8  11
ENDBRANCH   1   8
BRANCH   4  24
ATOM     24  C   UNL     1      50.209   8.264  17.199  0.00  0.00    +0.000 C 
BRANCH  24  25
ATOM     25  N   UNL     1      50.498   6.935  17.786  0.00  0.00    +0.000 NA
ATOM     26  H   UNL     1      50.888   6.358  17.042  0.00  0.00    +0.000 HD
BRANCH  25  27
ATOM     27  C   UNL     1      49.266   6.307  18.276  0.00  0.00    +0.000 C 
BRANCH  27  28
ATOM     28  C   UNL     1      48.958   4.882  17.771  0.00  0.00    +0.000 C 
ATOM     29  C   UNL     1      48.111   4.849  16.493  0.00  0.00    +0.000 C 
ATOM     30  C   UNL     1      47.675   3.413  16.195  0.00  0.00    +0.000 C 
ATOM     31  N   UNL     1      48.820   2.511  16.048  0.00  0.00    +0.000 NA
ATOM     32  C   UNL     1      49.685   2.542  17.232  0.00  0.00    +0.000 C 
ATOM     33  C   UNL     1      50.171   3.961  17.572  0.00  0.00    +0.000 C 
ATOM     34  H   UNL     1      49.366   2.799  15.236  0.00  0.00    +0.000 HD
ENDBRANCH  27  28
ENDBRANCH  25  27
ENDBRANCH  24  25
ENDBRANCH   4  24
TORSDOF 7
ENDMDL
MODEL 7
REMARK VINA RESULT:    -7.420      3.546      8.775
REMARK INTER + INTRA:         -11.379
REMARK INTER:                  -9.770
REMARK INTRA:                  -1.609
REMARK UNBOUND:                -0.922
REMARK  Name = 
REMARK  7 active torsions:
REMARK  status: ('A' for Active; 'I' for Inactive)
REMARK    1  A    between atoms: C_2  and  C_21
REMARK    2  A    between atoms: N_3  and  C_4
REMARK    3  A    between atoms: C_4  and  C_5
REMARK    4  A    between atoms: C_8  and  C_9
REMARK    5  A    between atoms: C_9  and  N_10
REMARK    6  A    between atoms: N_10  and  C_11
REMARK    7  A    between atoms: C_11  and  C_12
REMARK                            x       y       z     vdW  Elec       q    Type
REMARK                         _______ _______ _______ _____ _____    ______ ____
ROOT
ATOM      1  C   UNL     1      48.152   8.055  12.946  0.00  0.00    +0.000 A 
ATOM      2  C   UNL     1      49.442   7.517  13.062  0.00  0.00    +0.000 A 
ATOM      3  C   UNL     1      50.139   7.578  14.277  0.00  0.00    +0.000 A 
ATOM      4  C   UNL     1      49.573   8.196  15.400  0.00  0.00    +0.000 A 
ATOM      5  C   UNL     1      48.305   8.768  15.261  0.00  0.00    +0.000 A 
ATOM      6  F   UNL     1      47.724   9.371  16.309  0.00  0.00    +0.000 F 
ATOM      7  C   UNL     1      47.605   8.717  14.054  0.00  0.00    +0.000 A 
ENDROOT
BRANCH   1   8
ATOM      8  C   UNL     1      47.360   7.906  11.671  0.00  0.00    +0.000 C 
BRANCH   8  11
ATOM      9  O   UNL     1      44.616   7.484  11.805  0.00  0.00    +0.000 OA
ATOM     10  C   UNL     1      45.345   6.521  11.586  0.00  0.00    +0.000 C 
ATOM     11  N   UNL     1      46.717   6.624  11.569  0.00  0.00    +0.000 N 
ATOM     12  H   UNL     1      47.258   5.881  11.143  0.00  0.00    +0.000 HD
BRANCH  10  13
ATOM     13  C   UNL     1      44.797   5.176  11.374  0.00  0.00    +0.000 A 
ATOM     14  C   UNL     1      44.016   4.571  12.352  0.00  0.00    +0.000 A 
ATOM     15  S   UNL     1      43.496   3.001  11.929  0.00  0.00    +0.000 S 
ATOM     16  C   UNL     1      44.259   3.098  10.407  0.00  0.00    +0.000 A 
ATOM     17  N   UNL     1      44.185   2.070   9.517  0.00  0.00    +0.000 NA
ATOM     18  C   UNL     1      44.786   2.299   8.398  0.00  0.00    +0.000 A 
ATOM     19  N   UNL     1      45.448   3.451   8.086  0.00  0.00    +0.000 N 
ATOM     20  C   UNL     1      45.586   4.498   8.961  0.00  0.00    +0.000 A 
ATOM     21  O   UNL     1      46.247   5.491   8.674  0.00  0.00    +0.000 OA
ATOM     22  C   UNL     1      44.920   4.305  10.233  0.00  0.00    +0.000 A 
ATOM     23  H   UNL     1      45.917   3.558   7.195  0.00  0.00    +0.000 HD
ENDBRANCH  10  13
ENDBRANCH   8  11
ENDBRANCH   1   8
BRANCH   4  24
ATOM     24  C   UNL     1      50.299   8.219  16.725  0.00  0.00    +0.000 C 
BRANCH  24  25
ATOM     25  N   UNL     1      49.759   7.288  17.741  0.00  0.00    +0.000 NA
ATOM     26  H   UNL     1      50.064   7.630  18.652  0.00  0.00    +0.000 HD
BRANCH  25  27
ATOM     27  C   UNL     1      50.292   5.936  17.541  0.00  0.00    +0.000 C 
BRANCH  27  28
ATOM     28  C   UNL     1      49.267   4.809  17.295  0.00  0.00    +0.000 C 
ATOM     29  C   UNL     1      48.790   4.116  18.577  0.00  0.00    +0.000 C 
ATOM     30  C   UNL     1      47.957   2.882  18.221  0.00  0.00    +0.000 C 
ATOM     31  N   UNL     1      46.801   3.222  17.388  0.00  0.00    +0.000 NA
ATOM     32  C   UNL     1      47.207   3.927  16.167  0.00  0.00    +0.000 C 
ATOM     33  C   UNL     1      48.034   5.189  16.462  0.00  0.00    +0.000 C 
ATOM     34  H   UNL     1      46.174   3.823  17.921  0.00  0.00    +0.000 HD
ENDBRANCH  27  28
ENDBRANCH  25  27
ENDBRANCH  24  25
ENDBRANCH   4  24
TORSDOF 7
ENDMDL
MODEL 8
REMARK VINA RESULT:    -7.341      3.835      8.299
REMARK INTER + INTRA:         -11.267
REMARK INTER:                  -9.707
REMARK INTRA:                  -1.560
REMARK UNBOUND:                -0.922
REMARK  Name = 
REMARK  7 active torsions:
REMARK  status: ('A' for Active; 'I' for Inactive)
REMARK    1  A    between atoms: C_2  and  C_21
REMARK    2  A    between atoms: N_3  and  C_4
REMARK    3  A    between atoms: C_4  and  C_5
REMARK    4  A    between atoms: C_8  and  C_9
REMARK    5  A    between atoms: C_9  and  N_10
REMARK    6  A    between atoms: N_10  and  C_11
REMARK    7  A    between atoms: C_11  and  C_12
REMARK                            x       y       z     vdW  Elec       q    Type
REMARK                         _______ _______ _______ _____ _____    ______ ____
ROOT
ATOM      1  C   UNL     1      48.569   8.085  13.533  0.00  0.00    +0.000 A 
ATOM      2  C   UNL     1      47.838   8.773  14.512  0.00  0.00    +0.000 A 
ATOM      3  C   UNL     1      48.235   8.747  15.856  0.00  0.00    +0.000 A 
ATOM      4  C   UNL     1      49.361   8.015  16.258  0.00  0.00    +0.000 A 
ATOM      5  C   UNL     1      50.057   7.297  15.282  0.00  0.00    +0.000 A 
ATOM      6  F   UNL     1      51.140   6.582  15.620  0.00  0.00    +0.000 F 
ATOM      7  C   UNL     1      49.666   7.313  13.941  0.00  0.00    +0.000 A 
ENDROOT
BRANCH   1   8
ATOM      8  C   UNL     1      48.203   8.189  12.073  0.00  0.00    +0.000 C 
BRANCH   8  11
ATOM      9  O   UNL     1      45.456   7.954  11.729  0.00  0.00    +0.000 OA
ATOM     10  C   UNL     1      46.167   7.013  11.395  0.00  0.00    +0.000 C 
ATOM     11  N   UNL     1      47.531   7.014  11.589  0.00  0.00    +0.000 N 
ATOM     12  H   UNL     1      48.097   6.346  11.081  0.00  0.00    +0.000 HD
BRANCH  10  13
ATOM     13  C   UNL     1      45.602   5.794  10.804  0.00  0.00    +0.000 A 
ATOM     14  C   UNL     1      45.835   5.485   9.469  0.00  0.00    +0.000 A 
ATOM     15  S   UNL     1      45.073   4.044   8.963  0.00  0.00    +0.000 S 
ATOM     16  C   UNL     1      44.445   3.763  10.523  0.00  0.00    +0.000 A 
ATOM     17  N   UNL     1      43.694   2.659  10.791  0.00  0.00    +0.000 NA
ATOM     18  C   UNL     1      43.314   2.566  12.020  0.00  0.00    +0.000 A 
ATOM     19  N   UNL     1      43.612   3.466  13.002  0.00  0.00    +0.000 N 
ATOM     20  C   UNL     1      44.328   4.614  12.776  0.00  0.00    +0.000 A 
ATOM     21  O   UNL     1      44.519   5.437  13.666  0.00  0.00    +0.000 OA
ATOM     22  C   UNL     1      44.795   4.768  11.413  0.00  0.00    +0.000 A 
ATOM     23  H   UNL     1      43.264   3.345  13.946  0.00  0.00    +0.000 HD
ENDBRANCH  10  13
ENDBRANCH   8  11
ENDBRANCH   1   8
BRANCH   4  24
ATOM     24  C   UNL     1      49.823   8.025  17.697  0.00  0.00    +0.000 C 
BRANCH  24  25
ATOM     25  N   UNL     1      50.053   6.685  18.282  0.00  0.00    +0.000 NA
ATOM     26  H   UNL     1      50.690   6.191  17.658  0.00  0.00    +0.000 HD
BRANCH  25  27
ATOM     27  C   UNL     1      48.796   5.933  18.365  0.00  0.00    +0.000 C 
BRANCH  27  28
ATOM     28  C   UNL     1      48.812   4.481  17.844  0.00  0.00    +0.000 C 
ATOM     29  C   UNL     1      47.992   4.274  16.565  0.00  0.00    +0.000 C 
ATOM     30  C   UNL     1      47.887   2.779  16.251  0.00  0.00    +0.000 C 
ATOM     31  N   UNL     1      49.204   2.158  16.095  0.00  0.00    +0.000 NA
ATOM     32  C   UNL     1      50.042   2.368  17.281  0.00  0.00    +0.000 C 
ATOM     33  C   UNL     1      50.200   3.856  17.636  0.00  0.00    +0.000 C 
ATOM     34  H   UNL     1      49.670   2.568  15.287  0.00  0.00    +0.000 HD
ENDBRANCH  27  28
ENDBRANCH  25  27
ENDBRANCH  24  25
ENDBRANCH   4  24
TORSDOF 7
ENDMDL
MODEL 9
REMARK VINA RESULT:    -7.029      3.763      8.242
REMARK INTER + INTRA:         -10.827
REMARK INTER:                  -8.935
REMARK INTRA:                  -1.892
REMARK UNBOUND:                -0.922
REMARK  Name = 
REMARK  7 active torsions:
REMARK  status: ('A' for Active; 'I' for Inactive)
REMARK    1  A    between atoms: C_2  and  C_21
REMARK    2  A    between atoms: N_3  and  C_4
REMARK    3  A    between atoms: C_4  and  C_5
REMARK    4  A    between atoms: C_8  and  C_9
REMARK    5  A    between atoms: C_9  and  N_10
REMARK    6  A    between atoms: N_10  and  C_11
REMARK    7  A    between atoms: C_11  and  C_12
REMARK                            x       y       z     vdW  Elec       q    Type
REMARK                         _______ _______ _______ _____ _____    ______ ____
ROOT
ATOM      1  C   UNL     1      49.355   8.036  15.925  0.00  0.00    +0.000 A 
ATOM      2  C   UNL     1      50.414   7.336  16.522  0.00  0.00    +0.000 A 
ATOM      3  C   UNL     1      50.393   7.031  17.889  0.00  0.00    +0.000 A 
ATOM      4  C   UNL     1      49.323   7.437  18.700  0.00  0.00    +0.000 A 
ATOM      5  C   UNL     1      48.295   8.172  18.104  0.00  0.00    +0.000 A 
ATOM      6  F   UNL     1      47.251   8.582  18.840  0.00  0.00    +0.000 F 
ATOM      7  C   UNL     1      48.310   8.485  16.742  0.00  0.00    +0.000 A 
ENDROOT
BRANCH   1   8
ATOM      8  C   UNL     1      49.327   8.282  14.436  0.00  0.00    +0.000 C 
BRANCH   8  11
ATOM      9  O   UNL     1      48.982   6.227  12.598  0.00  0.00    +0.000 OA
ATOM     10  C   UNL     1      47.990   6.836  12.984  0.00  0.00    +0.000 C 
ATOM     11  N   UNL     1      48.072   7.910  13.841  0.00  0.00    +0.000 N 
ATOM     12  H   UNL     1      47.235   8.215  14.324  0.00  0.00    +0.000 HD
BRANCH  10  13
ATOM     13  C   UNL     1      46.643   6.487  12.516  0.00  0.00    +0.000 A 
ATOM     14  C   UNL     1      45.835   7.445  11.917  0.00  0.00    +0.000 A 
ATOM     15  S   UNL     1      44.299   6.852  11.466  0.00  0.00    +0.000 S 
ATOM     16  C   UNL     1      44.682   5.284  12.016  0.00  0.00    +0.000 A 
ATOM     17  N   UNL     1      43.789   4.262  11.905  0.00  0.00    +0.000 NA
ATOM     18  C   UNL     1      44.230   3.129  12.336  0.00  0.00    +0.000 A 
ATOM     19  N   UNL     1      45.471   2.921  12.863  0.00  0.00    +0.000 N 
ATOM     20  C   UNL     1      46.392   3.923  13.034  0.00  0.00    +0.000 A 
ATOM     21  O   UNL     1      47.473   3.715  13.575  0.00  0.00    +0.000 OA
ATOM     22  C   UNL     1      45.959   5.220  12.556  0.00  0.00    +0.000 A 
ATOM     23  H   UNL     1      45.748   2.008  13.204  0.00  0.00    +0.000 HD
ENDBRANCH  10  13
ENDBRANCH   8  11
ENDBRANCH   1   8
BRANCH   4  24
ATOM     24  C   UNL     1      49.271   7.066  20.163  0.00  0.00    +0.000 C 
BRANCH  24  25
ATOM     25  N   UNL     1      48.337   5.964  20.489  0.00  0.00    +0.000 NA
ATOM     26  H   UNL     1      48.071   6.076  21.466  0.00  0.00    +0.000 HD
BRANCH  25  27
ATOM     27  C   UNL     1      48.994   4.662  20.324  0.00  0.00    +0.000 C 
BRANCH  27  28
ATOM     28  C   UNL     1      48.636   3.852  19.061  0.00  0.00    +0.000 C 
ATOM     29  C   UNL     1      47.570   4.517  18.182  0.00  0.00    +0.000 C 
ATOM     30  C   UNL     1      47.124   3.548  17.083  0.00  0.00    +0.000 C 
ATOM     31  N   UNL     1      48.247   3.111  16.249  0.00  0.00    +0.000 NA
ATOM     32  C   UNL     1      49.313   2.506  17.055  0.00  0.00    +0.000 C 
ATOM     33  C   UNL     1      49.815   3.441  18.167  0.00  0.00    +0.000 C 
ATOM     34  H   UNL     1      48.626   3.918  15.756  0.00  0.00    +0.000 HD
ENDBRANCH  27  28
ENDBRANCH  25  27
ENDBRANCH  24  25
ENDBRANCH   4  24
TORSDOF 7
ENDMDL
