MODEL 1
REMARK VINA RESULT:    -7.507      0.000      0.000
REMARK INTER + INTRA:         -10.821
REMARK INTER:                  -9.701
REMARK INTRA:                  -1.120
REMARK UNBOUND:                -1.120
REMARK  Name = 
REMARK  6 active torsions:
REMARK  status: ('A' for Active; 'I' for Inactive)
REMARK    1  A    between atoms: C_1  and  C_2
REMARK    2  A    between atoms: C_4  and  C_5
REMARK    3  A    between atoms: C_10  and  O_11
REMARK    4  A    between atoms: O_11  and  C_12
REMARK    5  A    between atoms: C_12  and  C_13
REMARK    6  A    between atoms: C_17  and  C_18
REMARK                            x       y       z     vdW  Elec       q    Type
REMARK                         _______ _______ _______ _____ _____    ______ ____
ROOT
ATOM      1  O   UNL     1      44.475   6.682  12.619  0.00  0.00    +0.000 OA
ENDROOT
BRANCH   1   8
ATOM      2  C   UNL     1      46.555   4.504  13.652  0.00  0.00    +0.000 C 
ATOM      3  C   UNL     1      46.812   5.872  13.083  0.00  0.00    +0.000 A 
ATOM      4  C   UNL     1      48.174   6.245  12.991  0.00  0.00    +0.000 A 
ATOM      5  C   UNL     1      48.586   7.483  12.480  0.00  0.00    +0.000 A 
ATOM      6  C   UNL     1      47.615   8.379  12.045  0.00  0.00    +0.000 A 
ATOM      7  C   UNL     1      46.262   8.028  12.128  0.00  0.00    +0.000 A 
ATOM      8  C   UNL     1      45.841   6.787  12.642  0.00  0.00    +0.000 A 
BRANCH   5   9
ATOM      9  C   UNL     1      50.053   7.755  12.436  0.00  0.00    +0.000 C 
ATOM     10  N   UNL     1      50.771   7.690  13.595  0.00  0.00    +0.000 N 
ATOM     11  O   UNL     1      50.621   8.039  11.386  0.00  0.00    +0.000 OA
ATOM     12  H   UNL     1      50.395   7.480  14.505  0.00  0.00    +0.000 HD
ATOM     13  H   UNL     1      51.760   7.889  13.523  0.00  0.00    +0.000 HD
ENDBRANCH   5   9
ENDBRANCH   1   8
BRANCH   1  14
ATOM     14  C   UNL     1      43.807   6.395  11.398  0.00  0.00    +0.000 C 
BRANCH  14  15
ATOM     15  C   UNL     1      43.796   4.917  11.071  0.00  0.00    +0.000 A 
ATOM     16  C   UNL     1      43.263   3.975  11.942  0.00  0.00    +0.000 A 
ATOM     17  C   UNL     1      43.352   2.629  11.605  0.00  0.00    +0.000 A 
ATOM     18  C   UNL     1      43.985   2.257  10.422  0.00  0.00    +0.000 A 
ATOM     19  C   UNL     1      44.519   3.247   9.605  0.00  0.00    +0.000 A 
ATOM     20  N   UNL     1      44.426   4.560   9.921  0.00  0.00    +0.000 NA
BRANCH  19  21
ATOM     21  C   UNL     1      45.241   2.892   8.321  0.00  0.00    +0.000 C 
ATOM     22  C   UNL     1      46.038   1.589   8.469  0.00  0.00    +0.000 C 
ATOM     23  C   UNL     1      46.858   1.315   7.217  0.00  0.00    +0.000 C 
ATOM     24  O   UNL     1      47.709   2.420   6.912  0.00  0.00    +0.000 OA
ATOM     25  C   UNL     1      46.973   3.614   6.651  0.00  0.00    +0.000 C 
ATOM     26  C   UNL     1      46.164   4.032   7.871  0.00  0.00    +0.000 C 
ENDBRANCH  19  21
ENDBRANCH  14  15
ENDBRANCH   1  14
TORSDOF 5
ENDMDL
MODEL 2
REMARK VINA RESULT:    -7.417      1.817      6.389
REMARK INTER + INTRA:         -10.705
REMARK INTER:                 -10.022
REMARK INTRA:                  -0.684
REMARK UNBOUND:                -1.120
REMARK  Name = 
REMARK  6 active torsions:
REMARK  status: ('A' for Active; 'I' for Inactive)
REMARK    1  A    between atoms: C_1  and  C_2
REMARK    2  A    between atoms: C_4  and  C_5
REMARK    3  A    between atoms: C_10  and  O_11
REMARK    4  A    between atoms: O_11  and  C_12
REMARK    5  A    between atoms: C_12  and  C_13
REMARK    6  A    between atoms: C_17  and  C_18
REMARK                            x       y       z     vdW  Elec       q    Type
REMARK                         _______ _______ _______ _____ _____    ______ ____
ROOT
ATOM      1  O   UNL     1      43.741   4.886   9.857  0.00  0.00    +0.000 OA
ENDROOT
BRANCH   1   8
ATOM      2  C   UNL     1      43.761   1.762  10.471  0.00  0.00    +0.000 C 
ATOM      3  C   UNL     1      44.604   2.548   9.506  0.00  0.00    +0.000 A 
ATOM      4  C   UNL     1      45.542   1.792   8.763  0.00  0.00    +0.000 A 
ATOM      5  C   UNL     1      46.401   2.369   7.819  0.00  0.00    +0.000 A 
ATOM      6  C   UNL     1      46.328   3.742   7.605  0.00  0.00    +0.000 A 
ATOM      7  C   UNL     1      45.408   4.507   8.332  0.00  0.00    +0.000 A 
ATOM      8  C   UNL     1      44.542   3.934   9.283  0.00  0.00    +0.000 A 
BRANCH   5   9
ATOM      9  C   UNL     1      47.343   1.462   7.100  0.00  0.00    +0.000 C 
ATOM     10  N   UNL     1      48.458   1.994   6.520  0.00  0.00    +0.000 N 
ATOM     11  O   UNL     1      47.135   0.256   7.020  0.00  0.00    +0.000 OA
ATOM     12  H   UNL     1      48.709   2.969   6.519  0.00  0.00    +0.000 HD
ATOM     13  H   UNL     1      49.066   1.345   6.037  0.00  0.00    +0.000 HD
ENDBRANCH   5   9
ENDBRANCH   1   8
BRANCH   1  14
ATOM     14  C   UNL     1      43.602   4.935  11.271  0.00  0.00    +0.000 C 
BRANCH  14  15
ATOM     15  C   UNL     1      44.928   5.081  11.985  0.00  0.00    +0.000 A 
ATOM     16  C   UNL     1      45.289   4.255  13.042  0.00  0.00    +0.000 A 
ATOM     17  C   UNL     1      46.493   4.495  13.695  0.00  0.00    +0.000 A 
ATOM     18  C   UNL     1      47.294   5.560  13.291  0.00  0.00    +0.000 A 
ATOM     19  C   UNL     1      46.864   6.363  12.241  0.00  0.00    +0.000 A 
ATOM     20  N   UNL     1      45.699   6.129  11.593  0.00  0.00    +0.000 NA
BRANCH  19  21
ATOM     21  C   UNL     1      47.687   7.551  11.782  0.00  0.00    +0.000 C 
ATOM     22  C   UNL     1      49.163   7.392  12.170  0.00  0.00    +0.000 C 
ATOM     23  C   UNL     1      49.950   8.646  11.817  0.00  0.00    +0.000 C 
ATOM     24  O   UNL     1      49.369   9.799  12.422  0.00  0.00    +0.000 OA
ATOM     25  C   UNL     1      48.033  10.030  11.977  0.00  0.00    +0.000 C 
ATOM     26  C   UNL     1      47.128   8.863  12.345  0.00  0.00    +0.000 C 
ENDBRANCH  19  21
ENDBRANCH  14  15
ENDBRANCH   1  14
TORSDOF 5
ENDMDL
MODEL 3
REMARK VINA RESULT:    -7.320      2.554      6.867
REMARK INTER + INTRA:         -10.580
REMARK INTER:                 -10.033
REMARK INTRA:                  -0.546
REMARK UNBOUND:                -1.120
REMARK  Name = 
REMARK  6 active torsions:
REMARK  status: ('A' for Active; 'I' for Inactive)
REMARK    1  A    between atoms: C_1  and  C_2
REMARK    2  A    between atoms: C_4  and  C_5
REMARK    3  A    between atoms: C_10  and  O_11
REMARK    4  A    between atoms: O_11  and  C_12
REMARK    5  A    between atoms: C_12  and  C_13
REMARK    6  A    between atoms: C_17  and  C_18
REMARK                            x       y       z     vdW  Elec       q    Type
REMARK                         _______ _______ _______ _____ _____    ______ ____
ROOT
ATOM      1  O   UNL     1      43.978   5.117   9.964  0.00  0.00    +0.000 OA
ENDROOT
BRANCH   1   8
ATOM      2  C   UNL     1      43.773   2.083  10.908  0.00  0.00    +0.000 C 
ATOM      3  C   UNL     1      44.599   2.683   9.804  0.00  0.00    +0.000 A 
ATOM      4  C   UNL     1      45.400   1.769   9.079  0.00  0.00    +0.000 A 
ATOM      5  C   UNL     1      46.224   2.162   8.017  0.00  0.00    +0.000 A 
ATOM      6  C   UNL     1      46.256   3.507   7.663  0.00  0.00    +0.000 A 
ATOM      7  C   UNL     1      45.471   4.427   8.369  0.00  0.00    +0.000 A 
ATOM      8  C   UNL     1      44.641   4.039   9.438  0.00  0.00    +0.000 A 
BRANCH   5   9
ATOM      9  C   UNL     1      47.019   1.100   7.333  0.00  0.00    +0.000 C 
ATOM     10  N   UNL     1      46.775  -0.207   7.639  0.00  0.00    +0.000 N 
ATOM     11  O   UNL     1      47.884   1.379   6.508  0.00  0.00    +0.000 OA
ATOM     12  H   UNL     1      46.100  -0.535   8.309  0.00  0.00    +0.000 HD
ATOM     13  H   UNL     1      47.341  -0.894   7.159  0.00  0.00    +0.000 HD
ENDBRANCH   5   9
ENDBRANCH   1   8
BRANCH   1  14
ATOM     14  C   UNL     1      43.941   5.307  11.372  0.00  0.00    +0.000 C 
BRANCH  14  15
ATOM     15  C   UNL     1      45.271   5.757  11.937  0.00  0.00    +0.000 A 
ATOM     16  C   UNL     1      46.142   6.564  11.215  0.00  0.00    +0.000 A 
ATOM     17  C   UNL     1      47.377   6.878  11.772  0.00  0.00    +0.000 A 
ATOM     18  C   UNL     1      47.719   6.364  13.020  0.00  0.00    +0.000 A 
ATOM     19  C   UNL     1      46.812   5.543  13.680  0.00  0.00    +0.000 A 
ATOM     20  N   UNL     1      45.604   5.242  13.150  0.00  0.00    +0.000 NA
BRANCH  19  21
ATOM     21  C   UNL     1      47.149   4.937  15.028  0.00  0.00    +0.000 C 
ATOM     22  C   UNL     1      48.277   5.711  15.723  0.00  0.00    +0.000 C 
ATOM     23  C   UNL     1      48.689   5.017  17.013  0.00  0.00    +0.000 C 
ATOM     24  O   UNL     1      49.056   3.660  16.767  0.00  0.00    +0.000 OA
ATOM     25  C   UNL     1      47.978   2.895  16.233  0.00  0.00    +0.000 C 
ATOM     26  C   UNL     1      47.525   3.456  14.892  0.00  0.00    +0.000 C 
ENDBRANCH  19  21
ENDBRANCH  14  15
ENDBRANCH   1  14
TORSDOF 5
ENDMDL
MODEL 4
REMARK VINA RESULT:    -7.142      2.715      3.389
REMARK INTER + INTRA:         -10.350
REMARK INTER:                  -9.341
REMARK INTRA:                  -1.009
REMARK UNBOUND:                -1.120
REMARK  Name = 
REMARK  6 active torsions:
REMARK  status: ('A' for Active; 'I' for Inactive)
REMARK    1  A    between atoms: C_1  and  C_2
REMARK    2  A    between atoms: C_4  and  C_5
REMARK    3  A    between atoms: C_10  and  O_11
REMARK    4  A    between atoms: O_11  and  C_12
REMARK    5  A    between atoms: C_12  and  C_13
REMARK    6  A    between atoms: C_17  and  C_18
REMARK                            x       y       z     vdW  Elec       q    Type
REMARK                         _______ _______ _______ _____ _____    ______ ____
ROOT
ATOM      1  O   UNL     1      47.652   6.381  12.313  0.00  0.00    +0.000 OA
ENDROOT
BRANCH   1   8
ATOM      2  C   UNL     1      46.313   3.684  13.349  0.00  0.00    +0.000 C 
ATOM      3  C   UNL     1      47.125   4.697  14.108  0.00  0.00    +0.000 A 
ATOM      4  C   UNL     1      47.324   4.411  15.479  0.00  0.00    +0.000 A 
ATOM      5  C   UNL     1      48.060   5.249  16.327  0.00  0.00    +0.000 A 
ATOM      6  C   UNL     1      48.617   6.408  15.798  0.00  0.00    +0.000 A 
ATOM      7  C   UNL     1      48.430   6.709  14.443  0.00  0.00    +0.000 A 
ATOM      8  C   UNL     1      47.690   5.872  13.585  0.00  0.00    +0.000 A 
BRANCH   5   9
ATOM      9  C   UNL     1      48.197   4.834  17.755  0.00  0.00    +0.000 C 
ATOM     10  N   UNL     1      47.076   4.487  18.451  0.00  0.00    +0.000 N 
ATOM     11  O   UNL     1      49.291   4.803  18.310  0.00  0.00    +0.000 OA
ATOM     12  H   UNL     1      46.137   4.493  18.090  0.00  0.00    +0.000 HD
ATOM     13  H   UNL     1      47.212   4.220  19.418  0.00  0.00    +0.000 HD
ENDBRANCH   5   9
ENDBRANCH   1   8
BRANCH   1  14
ATOM     14  C   UNL     1      46.557   7.192  11.908  0.00  0.00    +0.000 C 
BRANCH  14  15
ATOM     15  C   UNL     1      45.375   6.380  11.424  0.00  0.00    +0.000 A 
ATOM     16  C   UNL     1      44.131   6.453  12.039  0.00  0.00    +0.000 A 
ATOM     17  C   UNL     1      43.112   5.624  11.583  0.00  0.00    +0.000 A 
ATOM     18  C   UNL     1      43.363   4.733  10.544  0.00  0.00    +0.000 A 
ATOM     19  C   UNL     1      44.637   4.692   9.988  0.00  0.00    +0.000 A 
ATOM     20  N   UNL     1      45.630   5.503  10.418  0.00  0.00    +0.000 NA
BRANCH  19  21
ATOM     21  C   UNL     1      44.968   3.720   8.872  0.00  0.00    +0.000 C 
ATOM     22  C   UNL     1      45.322   2.333   9.425  0.00  0.00    +0.000 C 
ATOM     23  C   UNL     1      45.776   1.408   8.306  0.00  0.00    +0.000 C 
ATOM     24  O   UNL     1      46.865   1.979   7.582  0.00  0.00    +0.000 OA
ATOM     25  C   UNL     1      46.514   3.213   6.959  0.00  0.00    +0.000 C 
ATOM     26  C   UNL     1      46.110   4.251   7.997  0.00  0.00    +0.000 C 
ENDBRANCH  19  21
ENDBRANCH  14  15
ENDBRANCH   1  14
TORSDOF 5
ENDMDL
MODEL 5
REMARK VINA RESULT:    -6.973      1.379      1.954
REMARK INTER + INTRA:         -10.131
REMARK INTER:                  -9.478
REMARK INTRA:                  -0.653
REMARK UNBOUND:                -1.120
REMARK  Name = 
REMARK  6 active torsions:
REMARK  status: ('A' for Active; 'I' for Inactive)
REMARK    1  A    between atoms: C_1  and  C_2
REMARK    2  A    between atoms: C_4  and  C_5
REMARK    3  A    between atoms: C_10  and  O_11
REMARK    4  A    between atoms: O_11  and  C_12
REMARK    5  A    between atoms: C_12  and  C_13
REMARK    6  A    between atoms: C_17  and  C_18
REMARK                            x       y       z     vdW  Elec       q    Type
REMARK                         _______ _______ _______ _____ _____    ______ ____
ROOT
ATOM      1  O   UNL     1      44.878   7.041  10.984  0.00  0.00    +0.000 OA
ENDROOT
BRANCH   1   8
ATOM      2  C   UNL     1      45.585   9.753  12.495  0.00  0.00    +0.000 C 
ATOM      3  C   UNL     1      46.225   8.398  12.620  0.00  0.00    +0.000 A 
ATOM      4  C   UNL     1      47.296   8.315  13.542  0.00  0.00    +0.000 A 
ATOM      5  C   UNL     1      47.997   7.126  13.781  0.00  0.00    +0.000 A 
ATOM      6  C   UNL     1      47.625   5.982  13.083  0.00  0.00    +0.000 A 
ATOM      7  C   UNL     1      46.569   6.044  12.165  0.00  0.00    +0.000 A 
ATOM      8  C   UNL     1      45.860   7.236  11.919  0.00  0.00    +0.000 A 
BRANCH   5   9
ATOM      9  C   UNL     1      49.106   7.170  14.780  0.00  0.00    +0.000 C 
ATOM     10  N   UNL     1      50.382   7.372  14.340  0.00  0.00    +0.000 N 
ATOM     11  O   UNL     1      48.893   7.026  15.979  0.00  0.00    +0.000 OA
ATOM     12  H   UNL     1      50.659   7.487  13.379  0.00  0.00    +0.000 HD
ATOM     13  H   UNL     1      51.104   7.387  15.049  0.00  0.00    +0.000 HD
ENDBRANCH   5   9
ENDBRANCH   1   8
BRANCH   1  14
ATOM     14  C   UNL     1      43.671   6.388  11.350  0.00  0.00    +0.000 C 
BRANCH  14  15
ATOM     15  C   UNL     1      43.697   4.903  11.059  0.00  0.00    +0.000 A 
ATOM     16  C   UNL     1      43.204   3.967  11.960  0.00  0.00    +0.000 A 
ATOM     17  C   UNL     1      43.327   2.616  11.654  0.00  0.00    +0.000 A 
ATOM     18  C   UNL     1      43.954   2.234  10.471  0.00  0.00    +0.000 A 
ATOM     19  C   UNL     1      44.447   3.219   9.623  0.00  0.00    +0.000 A 
ATOM     20  N   UNL     1      44.321   4.536   9.909  0.00  0.00    +0.000 NA
BRANCH  19  21
ATOM     21  C   UNL     1      45.161   2.854   8.337  0.00  0.00    +0.000 C 
ATOM     22  C   UNL     1      46.000   1.579   8.505  0.00  0.00    +0.000 C 
ATOM     23  C   UNL     1      46.809   1.299   7.248  0.00  0.00    +0.000 C 
ATOM     24  O   UNL     1      47.621   2.420   6.903  0.00  0.00    +0.000 OA
ATOM     25  C   UNL     1      46.846   3.584   6.624  0.00  0.00    +0.000 C 
ATOM     26  C   UNL     1      46.043   4.009   7.846  0.00  0.00    +0.000 C 
ENDBRANCH  19  21
ENDBRANCH  14  15
ENDBRANCH   1  14
TORSDOF 5
ENDMDL
MODEL 6
REMARK VINA RESULT:    -6.783      1.946      6.757
REMARK INTER + INTRA:          -9.886
REMARK INTER:                  -9.172
REMARK INTRA:                  -0.714
REMARK UNBOUND:                -1.120
REMARK  Name = 
REMARK  6 active torsions:
REMARK  status: ('A' for Active; 'I' for Inactive)
REMARK    1  A    between atoms: C_1  and  C_2
REMARK    2  A    between atoms: C_4  and  C_5
REMARK    3  A    between atoms: C_10  and  O_11
REMARK    4  A    between atoms: O_11  and  C_12
REMARK    5  A    between atoms: C_12  and  C_13
REMARK    6  A    between atoms: C_17  and  C_18
REMARK                            x       y       z     vdW  Elec       q    Type
REMARK                         _______ _______ _______ _____ _____    ______ ____
ROOT
ATOM      1  O   UNL     1      44.069   4.939  10.159  0.00  0.00    +0.000 OA
ENDROOT
BRANCH   1   8
ATOM      2  C   UNL     1      43.944   1.760  10.294  0.00  0.00    +0.000 C 
ATOM      3  C   UNL     1      44.803   2.644   9.434  0.00  0.00    +0.000 A 
ATOM      4  C   UNL     1      45.683   1.966   8.556  0.00  0.00    +0.000 A 
ATOM      5  C   UNL     1      46.548   2.639   7.684  0.00  0.00    +0.000 A 
ATOM      6  C   UNL     1      46.541   4.030   7.682  0.00  0.00    +0.000 A 
ATOM      7  C   UNL     1      45.678   4.719   8.544  0.00  0.00    +0.000 A 
ATOM      8  C   UNL     1      44.807   4.049   9.424  0.00  0.00    +0.000 A 
BRANCH   5   9
ATOM      9  C   UNL     1      47.426   1.808   6.808  0.00  0.00    +0.000 C 
ATOM     10  N   UNL     1      48.525   2.383   6.240  0.00  0.00    +0.000 N 
ATOM     11  O   UNL     1      47.177   0.627   6.589  0.00  0.00    +0.000 OA
ATOM     12  H   UNL     1      48.805   3.344   6.348  0.00  0.00    +0.000 HD
ATOM     13  H   UNL     1      49.089   1.787   5.648  0.00  0.00    +0.000 HD
ENDBRANCH   5   9
ENDBRANCH   1   8
BRANCH   1  14
ATOM     14  C   UNL     1      44.370   5.143  11.533  0.00  0.00    +0.000 C 
BRANCH  14  15
ATOM     15  C   UNL     1      45.076   6.457  11.789  0.00  0.00    +0.000 A 
ATOM     16  C   UNL     1      44.461   7.681  11.554  0.00  0.00    +0.000 A 
ATOM     17  C   UNL     1      45.197   8.845  11.744  0.00  0.00    +0.000 A 
ATOM     18  C   UNL     1      46.529   8.759  12.143  0.00  0.00    +0.000 A 
ATOM     19  C   UNL     1      47.092   7.503  12.338  0.00  0.00    +0.000 A 
ATOM     20  N   UNL     1      46.379   6.366  12.166  0.00  0.00    +0.000 NA
BRANCH  19  21
ATOM     21  C   UNL     1      48.544   7.356  12.746  0.00  0.00    +0.000 C 
ATOM     22  C   UNL     1      48.709   7.444  14.269  0.00  0.00    +0.000 C 
ATOM     23  C   UNL     1      50.181   7.424  14.653  0.00  0.00    +0.000 C 
ATOM     24  O   UNL     1      50.896   8.463  13.987  0.00  0.00    +0.000 OA
ATOM     25  C   UNL     1      50.854   8.325  12.567  0.00  0.00    +0.000 C 
ATOM     26  C   UNL     1      49.423   8.406  12.055  0.00  0.00    +0.000 C 
ENDBRANCH  19  21
ENDBRANCH  14  15
ENDBRANCH   1  14
TORSDOF 5
ENDMDL
MODEL 7
REMARK VINA RESULT:    -6.483      4.907      8.478
REMARK INTER + INTRA:          -9.498
REMARK INTER:                  -8.790
REMARK INTRA:                  -0.709
REMARK UNBOUND:                -1.120
REMARK  Name = 
REMARK  6 active torsions:
REMARK  status: ('A' for Active; 'I' for Inactive)
REMARK    1  A    between atoms: C_1  and  C_2
REMARK    2  A    between atoms: C_4  and  C_5
REMARK    3  A    between atoms: C_10  and  O_11
REMARK    4  A    between atoms: O_11  and  C_12
REMARK    5  A    between atoms: C_12  and  C_13
REMARK    6  A    between atoms: C_17  and  C_18
REMARK                            x       y       z     vdW  Elec       q    Type
REMARK                         _______ _______ _______ _____ _____    ______ ____
ROOT
ATOM      1  O   UNL     1      48.167   5.926  14.133  0.00  0.00    +0.000 OA
ENDROOT
BRANCH   1   8
ATOM      2  C   UNL     1      46.450   8.357  13.002  0.00  0.00    +0.000 C 
ATOM      3  C   UNL     1      46.131   6.888  13.009  0.00  0.00    +0.000 A 
ATOM      4  C   UNL     1      44.890   6.533  12.430  0.00  0.00    +0.000 A 
ATOM      5  C   UNL     1      44.443   5.208  12.352  0.00  0.00    +0.000 A 
ATOM      6  C   UNL     1      45.253   4.201  12.867  0.00  0.00    +0.000 A 
ATOM      7  C   UNL     1      46.485   4.532  13.444  0.00  0.00    +0.000 A 
ATOM      8  C   UNL     1      46.940   5.862  13.527  0.00  0.00    +0.000 A 
BRANCH   5   9
ATOM      9  C   UNL     1      43.114   4.966  11.717  0.00  0.00    +0.000 C 
ATOM     10  N   UNL     1      42.167   5.947  11.774  0.00  0.00    +0.000 N 
ATOM     11  O   UNL     1      42.858   3.908  11.150  0.00  0.00    +0.000 OA
ATOM     12  H   UNL     1      42.275   6.840  12.225  0.00  0.00    +0.000 HD
ATOM     13  H   UNL     1      41.278   5.739  11.337  0.00  0.00    +0.000 HD
ENDBRANCH   5   9
ENDBRANCH   1   8
BRANCH   1  14
ATOM     14  C   UNL     1      48.261   6.265  15.510  0.00  0.00    +0.000 C 
BRANCH  14  15
ATOM     15  C   UNL     1      48.500   5.061  16.394  0.00  0.00    +0.000 A 
ATOM     16  C   UNL     1      47.455   4.368  16.992  0.00  0.00    +0.000 A 
ATOM     17  C   UNL     1      47.756   3.315  17.849  0.00  0.00    +0.000 A 
ATOM     18  C   UNL     1      49.087   2.993  18.101  0.00  0.00    +0.000 A 
ATOM     19  C   UNL     1      50.086   3.741  17.490  0.00  0.00    +0.000 A 
ATOM     20  N   UNL     1      49.801   4.760  16.646  0.00  0.00    +0.000 NA
BRANCH  19  21
ATOM     21  C   UNL     1      51.550   3.448  17.754  0.00  0.00    +0.000 C 
ATOM     22  C   UNL     1      51.843   1.944  17.672  0.00  0.00    +0.000 C 
ATOM     23  C   UNL     1      53.284   1.655  18.065  0.00  0.00    +0.000 C 
ATOM     24  O   UNL     1      53.574   2.177  19.361  0.00  0.00    +0.000 OA
ATOM     25  C   UNL     1      53.424   3.594  19.421  0.00  0.00    +0.000 C 
ATOM     26  C   UNL     1      51.989   4.002  19.116  0.00  0.00    +0.000 C 
ENDBRANCH  19  21
ENDBRANCH  14  15
ENDBRANCH   1  14
TORSDOF 5
ENDMDL
MODEL 8
REMARK VINA RESULT:    -6.460      4.935      6.452
REMARK INTER + INTRA:          -9.469
REMARK INTER:                  -8.780
REMARK INTRA:                  -0.689
REMARK UNBOUND:                -1.120
REMARK  Name = 
REMARK  6 active torsions:
REMARK  status: ('A' for Active; 'I' for Inactive)
REMARK    1  A    between atoms: C_1  and  C_2
REMARK    2  A    between atoms: C_4  and  C_5
REMARK    3  A    between atoms: C_10  and  O_11
REMARK    4  A    between atoms: O_11  and  C_12
REMARK    5  A    between atoms: C_12  and  C_13
REMARK    6  A    between atoms: C_17  and  C_18
REMARK                            x       y       z     vdW  Elec       q    Type
REMARK                         _______ _______ _______ _____ _____    ______ ____
ROOT
ATOM      1  O   UNL     1      48.190   4.528  17.215  0.00  0.00    +0.000 OA
ENDROOT
BRANCH   1   8
ATOM      2  C   UNL     1      50.832   5.962  18.265  0.00  0.00    +0.000 C 
ATOM      3  C   UNL     1      50.617   4.524  17.881  0.00  0.00    +0.000 A 
ATOM      4  C   UNL     1      51.752   3.687  18.004  0.00  0.00    +0.000 A 
ATOM      5  C   UNL     1      51.721   2.322  17.692  0.00  0.00    +0.000 A 
ATOM      6  C   UNL     1      50.527   1.769  17.243  0.00  0.00    +0.000 A 
ATOM      7  C   UNL     1      49.393   2.581  17.113  0.00  0.00    +0.000 A 
ATOM      8  C   UNL     1      49.417   3.954  17.424  0.00  0.00    +0.000 A 
BRANCH   5   9
ATOM      9  C   UNL     1      52.986   1.548  17.866  0.00  0.00    +0.000 C 
ATOM     10  N   UNL     1      54.157   2.089  17.422  0.00  0.00    +0.000 N 
ATOM     11  O   UNL     1      52.991   0.440  18.394  0.00  0.00    +0.000 OA
ATOM     12  H   UNL     1      54.254   2.981  16.965  0.00  0.00    +0.000 HD
ATOM     13  H   UNL     1      54.989   1.528  17.552  0.00  0.00    +0.000 HD
ENDBRANCH   5   9
ENDBRANCH   1   8
BRANCH   1  14
ATOM     14  C   UNL     1      47.291   3.954  16.276  0.00  0.00    +0.000 C 
BRANCH  14  15
ATOM     15  C   UNL     1      47.175   4.766  15.004  0.00  0.00    +0.000 A 
ATOM     16  C   UNL     1      47.992   5.862  14.755  0.00  0.00    +0.000 A 
ATOM     17  C   UNL     1      47.780   6.602  13.597  0.00  0.00    +0.000 A 
ATOM     18  C   UNL     1      46.750   6.243  12.730  0.00  0.00    +0.000 A 
ATOM     19  C   UNL     1      45.954   5.150  13.050  0.00  0.00    +0.000 A 
ATOM     20  N   UNL     1      46.162   4.417  14.169  0.00  0.00    +0.000 NA
BRANCH  19  21
ATOM     21  C   UNL     1      44.804   4.735  12.153  0.00  0.00    +0.000 C 
ATOM     22  C   UNL     1      44.366   3.292  12.437  0.00  0.00    +0.000 C 
ATOM     23  C   UNL     1      43.301   2.848  11.444  0.00  0.00    +0.000 C 
ATOM     24  O   UNL     1      43.758   3.005  10.102  0.00  0.00    +0.000 OA
ATOM     25  C   UNL     1      44.054   4.364   9.785  0.00  0.00    +0.000 C 
ATOM     26  C   UNL     1      45.170   4.899  10.673  0.00  0.00    +0.000 C 
ENDBRANCH  19  21
ENDBRANCH  14  15
ENDBRANCH   1  14
TORSDOF 5
ENDMDL
MODEL 9
REMARK VINA RESULT:    -6.433      1.405      2.039
REMARK INTER + INTRA:          -9.434
REMARK INTER:                  -8.885
REMARK INTRA:                  -0.549
REMARK UNBOUND:                -1.120
REMARK  Name = 
REMARK  6 active torsions:
REMARK  status: ('A' for Active; 'I' for Inactive)
REMARK    1  A    between atoms: C_1  and  C_2
REMARK    2  A    between atoms: C_4  and  C_5
REMARK    3  A    between atoms: C_10  and  O_11
REMARK    4  A    between atoms: O_11  and  C_12
REMARK    5  A    between atoms: C_12  and  C_13
REMARK    6  A    between atoms: C_17  and  C_18
REMARK                            x       y       z     vdW  Elec       q    Type
REMARK                         _______ _______ _______ _____ _____    ______ ____
ROOT
ATOM      1  O   UNL     1      45.853   6.637  12.279  0.00  0.00    +0.000 OA
ENDROOT
BRANCH   1   8
ATOM      2  C   UNL     1      45.416   9.790  12.344  0.00  0.00    +0.000 C 
ATOM      3  C   UNL     1      46.681   9.008  12.124  0.00  0.00    +0.000 A 
ATOM      4  C   UNL     1      47.847   9.784  11.917  0.00  0.00    +0.000 A 
ATOM      5  C   UNL     1      49.108   9.213  11.703  0.00  0.00    +0.000 A 
ATOM      6  C   UNL     1      49.216   7.826  11.692  0.00  0.00    +0.000 A 
ATOM      7  C   UNL     1      48.075   7.041  11.895  0.00  0.00    +0.000 A 
ATOM      8  C   UNL     1      46.804   7.608  12.110  0.00  0.00    +0.000 A 
BRANCH   5   9
ATOM      9  C   UNL     1      50.258  10.142  11.498  0.00  0.00    +0.000 C 
ATOM     10  N   UNL     1      51.526   9.640  11.536  0.00  0.00    +0.000 N 
ATOM     11  O   UNL     1      50.086  11.340  11.301  0.00  0.00    +0.000 OA
ATOM     12  H   UNL     1      51.770   8.678  11.705  0.00  0.00    +0.000 HD
ATOM     13  H   UNL     1      52.277  10.304  11.401  0.00  0.00    +0.000 HD
ENDBRANCH   5   9
ENDBRANCH   1   8
BRANCH   1  14
ATOM     14  C   UNL     1      44.775   6.533  11.359  0.00  0.00    +0.000 C 
BRANCH  14  15
ATOM     15  C   UNL     1      44.443   5.099  11.007  0.00  0.00    +0.000 A 
ATOM     16  C   UNL     1      43.722   4.278  11.867  0.00  0.00    +0.000 A 
ATOM     17  C   UNL     1      43.517   2.951  11.506  0.00  0.00    +0.000 A 
ATOM     18  C   UNL     1      44.050   2.472  10.312  0.00  0.00    +0.000 A 
ATOM     19  C   UNL     1      44.782   3.339   9.508  0.00  0.00    +0.000 A 
ATOM     20  N   UNL     1      44.976   4.635   9.846  0.00  0.00    +0.000 NA
BRANCH  19  21
ATOM     21  C   UNL     1      45.405   2.859   8.212  0.00  0.00    +0.000 C 
ATOM     22  C   UNL     1      46.149   1.532   8.407  0.00  0.00    +0.000 C 
ATOM     23  C   UNL     1      46.875   1.130   7.132  0.00  0.00    +0.000 C 
ATOM     24  O   UNL     1      47.754   2.167   6.697  0.00  0.00    +0.000 OA
ATOM     25  C   UNL     1      47.059   3.375   6.394  0.00  0.00    +0.000 C 
ATOM     26  C   UNL     1      46.348   3.917   7.627  0.00  0.00    +0.000 C 
ENDBRANCH  19  21
ENDBRANCH  14  15
ENDBRANCH   1  14
TORSDOF 5
ENDMDL
