MODEL 1
REMARK VINA RESULT:    -7.394      0.000      0.000
REMARK INTER + INTRA:         -10.629
REMARK INTER:                  -9.771
REMARK INTRA:                  -0.858
REMARK UNBOUND:                -0.858
REMARK  Name = 
REMARK  9 active torsions:
REMARK  status: ('A' for Active; 'I' for Inactive)
REMARK    1  A    between atoms: C_1  and  C_2
REMARK    2  A    between atoms: C_2  and  C_3
REMARK    3  A    between atoms: C_2  and  C_4
REMARK    4  A    between atoms: C_2  and  C_5
REMARK    5  A    between atoms: N_7  and  C_8
REMARK    6  A    between atoms: C_8  and  C_9
REMARK    7  A    between atoms: C_12  and  C_13
REMARK    8  A    between atoms: C_13  and  C_14
REMARK    9  A    between atoms: C_14  and  N_15
REMARK                            x       y       z     vdW  Elec       q    Type
REMARK                         _______ _______ _______ _____ _____    ______ ____
ROOT
ATOM      1  C   UNL     1      46.107   7.212  12.140  0.00  0.00    +0.000 A 
ATOM      2  C   UNL     1      45.099   6.927  11.232  0.00  0.00    +0.000 A 
ATOM      3  N   UNL     1      44.826   5.584  11.262  0.00  0.00    +0.000 N 
ATOM      4  C   UNL     1      45.590   4.970  12.231  0.00  0.00    +0.000 A 
ATOM      5  C   UNL     1      45.638   3.629  12.650  0.00  0.00    +0.000 A 
ATOM      6  C   UNL     1      46.545   3.275  13.653  0.00  0.00    +0.000 A 
ATOM      7  C   UNL     1      47.376   4.231  14.222  0.00  0.00    +0.000 A 
ATOM      8  C   UNL     1      47.319   5.564  13.799  0.00  0.00    +0.000 A 
ATOM      9  C   UNL     1      46.412   5.958  12.788  0.00  0.00    +0.000 A 
ENDROOT
BRANCH   1  11
ATOM     10  C   UNL     1      46.931   8.881  13.886  0.00  0.00    +0.000 C 
ATOM     11  C   UNL     1      46.751   8.582  12.376  0.00  0.00    +0.000 C 
ATOM     12  C   UNL     1      45.866   9.707  11.798  0.00  0.00    +0.000 C 
ATOM     13  C   UNL     1      48.150   8.651  11.733  0.00  0.00    +0.000 C 
ENDBRANCH   1  11
BRANCH   3  14
ATOM     14  C   UNL     1      43.875   4.923  10.371  0.00  0.00    +0.000 C 
BRANCH  14  15
ATOM     15  C   UNL     1      44.583   3.962   9.457  0.00  0.00    +0.000 A 
ATOM     16  C   UNL     1      44.432   2.579   9.579  0.00  0.00    +0.000 A 
ATOM     17  C   UNL     1      45.220   1.724   8.812  0.00  0.00    +0.000 A 
ATOM     18  C   UNL     1      46.139   2.273   7.923  0.00  0.00    +0.000 A 
ATOM     19  N   UNL     1      46.263   3.609   7.747  0.00  0.00    +0.000 NA
ATOM     20  C   UNL     1      45.494   4.416   8.511  0.00  0.00    +0.000 A 
BRANCH  18  21
ATOM     21  C   UNL     1      47.105   1.390   7.176  0.00  0.00    +0.000 C 
BRANCH  21  22
ATOM     22  C   UNL     1      48.262   2.214   6.603  0.00  0.00    +0.000 C 
BRANCH  22  23
ATOM     23  N   UNL     1      47.929   2.777   5.292  0.00  0.00    +0.000 NA
ATOM     24  H   UNL     1      47.129   2.284   4.897  0.00  0.00    +0.000 HD
ATOM     25  H   UNL     1      48.708   2.620   4.654  0.00  0.00    +0.000 HD
ENDBRANCH  22  23
ENDBRANCH  21  22
ENDBRANCH  18  21
ENDBRANCH  14  15
ENDBRANCH   3  14
TORSDOF 6
ENDMDL
MODEL 2
REMARK VINA RESULT:    -6.729      1.289      2.934
REMARK INTER + INTRA:          -9.750
REMARK INTER:                  -9.599
REMARK INTRA:                  -0.151
REMARK UNBOUND:                -0.858
REMARK  Name = 
REMARK  9 active torsions:
REMARK  status: ('A' for Active; 'I' for Inactive)
REMARK    1  A    between atoms: C_1  and  C_2
REMARK    2  A    between atoms: C_2  and  C_3
REMARK    3  A    between atoms: C_2  and  C_4
REMARK    4  A    between atoms: C_2  and  C_5
REMARK    5  A    between atoms: N_7  and  C_8
REMARK    6  A    between atoms: C_8  and  C_9
REMARK    7  A    between atoms: C_12  and  C_13
REMARK    8  A    between atoms: C_13  and  C_14
REMARK    9  A    between atoms: C_14  and  N_15
REMARK                            x       y       z     vdW  Elec       q    Type
REMARK                         _______ _______ _______ _____ _____    ______ ____
ROOT
ATOM      1  C   UNL     1      46.845   6.784  13.114  0.00  0.00    +0.000 A 
ATOM      2  C   UNL     1      46.336   5.545  12.760  0.00  0.00    +0.000 A 
ATOM      3  N   UNL     1      45.187   5.716  12.032  0.00  0.00    +0.000 N 
ATOM      4  C   UNL     1      44.953   7.058  11.831  0.00  0.00    +0.000 A 
ATOM      5  C   UNL     1      43.929   7.718  11.128  0.00  0.00    +0.000 A 
ATOM      6  C   UNL     1      43.922   9.115  11.113  0.00  0.00    +0.000 A 
ATOM      7  C   UNL     1      44.907   9.833  11.778  0.00  0.00    +0.000 A 
ATOM      8  C   UNL     1      45.923   9.167  12.474  0.00  0.00    +0.000 A 
ATOM      9  C   UNL     1      45.962   7.754  12.508  0.00  0.00    +0.000 A 
ENDROOT
BRANCH   1  11
ATOM     10  C   UNL     1      48.264   5.947  15.062  0.00  0.00    +0.000 C 
ATOM     11  C   UNL     1      48.083   7.040  13.980  0.00  0.00    +0.000 C 
ATOM     12  C   UNL     1      47.961   8.389  14.720  0.00  0.00    +0.000 C 
ATOM     13  C   UNL     1      49.364   7.042  13.123  0.00  0.00    +0.000 C 
ENDBRANCH   1  11
BRANCH   3  14
ATOM     14  C   UNL     1      44.341   4.617  11.568  0.00  0.00    +0.000 C 
BRANCH  14  15
ATOM     15  C   UNL     1      44.766   4.161  10.200  0.00  0.00    +0.000 A 
ATOM     16  C   UNL     1      44.755   2.813   9.835  0.00  0.00    +0.000 A 
ATOM     17  C   UNL     1      45.297   2.420   8.614  0.00  0.00    +0.000 A 
ATOM     18  C   UNL     1      45.831   3.389   7.772  0.00  0.00    +0.000 A 
ATOM     19  N   UNL     1      45.802   4.707   8.079  0.00  0.00    +0.000 NA
ATOM     20  C   UNL     1      45.280   5.061   9.275  0.00  0.00    +0.000 A 
BRANCH  18  21
ATOM     21  C   UNL     1      46.549   2.996   6.506  0.00  0.00    +0.000 C 
BRANCH  21  22
ATOM     22  C   UNL     1      47.533   1.852   6.773  0.00  0.00    +0.000 C 
BRANCH  22  23
ATOM     23  N   UNL     1      48.563   1.772   5.736  0.00  0.00    +0.000 NA
ATOM     24  H   UNL     1      49.025   2.675   5.634  0.00  0.00    +0.000 HD
ATOM     25  H   UNL     1      48.119   1.572   4.840  0.00  0.00    +0.000 HD
ENDBRANCH  22  23
ENDBRANCH  21  22
ENDBRANCH  18  21
ENDBRANCH  14  15
ENDBRANCH   3  14
TORSDOF 6
ENDMDL
MODEL 3
REMARK VINA RESULT:    -5.998      1.621      2.805
REMARK INTER + INTRA:          -8.784
REMARK INTER:                  -8.266
REMARK INTRA:                  -0.518
REMARK UNBOUND:                -0.858
REMARK  Name = 
REMARK  9 active torsions:
REMARK  status: ('A' for Active; 'I' for Inactive)
REMARK    1  A    between atoms: C_1  and  C_2
REMARK    2  A    between atoms: C_2  and  C_3
REMARK    3  A    between atoms: C_2  and  C_4
REMARK    4  A    between atoms: C_2  and  C_5
REMARK    5  A    between atoms: N_7  and  C_8
REMARK    6  A    between atoms: C_8  and  C_9
REMARK    7  A    between atoms: C_12  and  C_13
REMARK    8  A    between atoms: C_13  and  C_14
REMARK    9  A    between atoms: C_14  and  N_15
REMARK                            x       y       z     vdW  Elec       q    Type
REMARK                         _______ _______ _______ _____ _____    ______ ____
ROOT
ATOM      1  C   UNL     1      44.227   8.519  11.305  0.00  0.00    +0.000 A 
ATOM      2  C   UNL     1      43.653   7.273  11.104  0.00  0.00    +0.000 A 
ATOM      3  N   UNL     1      44.488   6.302  11.592  0.00  0.00    +0.000 N 
ATOM      4  C   UNL     1      45.588   6.883  12.184  0.00  0.00    +0.000 A 
ATOM      5  C   UNL     1      46.689   6.307  12.842  0.00  0.00    +0.000 A 
ATOM      6  C   UNL     1      47.692   7.149  13.330  0.00  0.00    +0.000 A 
ATOM      7  C   UNL     1      47.598   8.525  13.167  0.00  0.00    +0.000 A 
ATOM      8  C   UNL     1      46.497   9.090  12.512  0.00  0.00    +0.000 A 
ATOM      9  C   UNL     1      45.463   8.267  12.008  0.00  0.00    +0.000 A 
ENDROOT
BRANCH   1  11
ATOM     10  C   UNL     1      43.827  10.959  11.934  0.00  0.00    +0.000 C 
ATOM     11  C   UNL     1      43.651   9.865  10.852  0.00  0.00    +0.000 C 
ATOM     12  C   UNL     1      42.137   9.744  10.577  0.00  0.00    +0.000 C 
ATOM     13  C   UNL     1      44.363  10.369   9.582  0.00  0.00    +0.000 C 
ENDBRANCH   1  11
BRANCH   3  14
ATOM     14  C   UNL     1      44.234   4.868  11.470  0.00  0.00    +0.000 C 
BRANCH  14  15
ATOM     15  C   UNL     1      44.912   4.311  10.250  0.00  0.00    +0.000 A 
ATOM     16  C   UNL     1      45.596   5.127   9.347  0.00  0.00    +0.000 A 
ATOM     17  C   UNL     1      46.080   4.594   8.155  0.00  0.00    +0.000 A 
ATOM     18  C   UNL     1      45.879   3.242   7.894  0.00  0.00    +0.000 A 
ATOM     19  N   UNL     1      45.269   2.419   8.778  0.00  0.00    +0.000 NA
ATOM     20  C   UNL     1      44.800   2.965   9.923  0.00  0.00    +0.000 A 
BRANCH  18  21
ATOM     21  C   UNL     1      46.263   2.653   6.561  0.00  0.00    +0.000 C 
BRANCH  21  22
ATOM     22  C   UNL     1      47.518   1.785   6.691  0.00  0.00    +0.000 C 
BRANCH  22  23
ATOM     23  N   UNL     1      48.729   2.527   6.334  0.00  0.00    +0.000 NA
ATOM     24  H   UNL     1      49.348   1.936   5.780  0.00  0.00    +0.000 HD
ATOM     25  H   UNL     1      49.239   2.762   7.184  0.00  0.00    +0.000 HD
ENDBRANCH  22  23
ENDBRANCH  21  22
ENDBRANCH  18  21
ENDBRANCH  14  15
ENDBRANCH   3  14
TORSDOF 6
ENDMDL
MODEL 4
REMARK VINA RESULT:    -5.833      2.387      6.588
REMARK INTER + INTRA:          -8.566
REMARK INTER:                  -7.858
REMARK INTRA:                  -0.708
REMARK UNBOUND:                -0.858
REMARK  Name = 
REMARK  9 active torsions:
REMARK  status: ('A' for Active; 'I' for Inactive)
REMARK    1  A    between atoms: C_1  and  C_2
REMARK    2  A    between atoms: C_2  and  C_3
REMARK    3  A    between atoms: C_2  and  C_4
REMARK    4  A    between atoms: C_2  and  C_5
REMARK    5  A    between atoms: N_7  and  C_8
REMARK    6  A    between atoms: C_8  and  C_9
REMARK    7  A    between atoms: C_12  and  C_13
REMARK    8  A    between atoms: C_13  and  C_14
REMARK    9  A    between atoms: C_14  and  N_15
REMARK                            x       y       z     vdW  Elec       q    Type
REMARK                         _______ _______ _______ _____ _____    ______ ____
ROOT
ATOM      1  C   UNL     1      45.405   4.284   9.427  0.00  0.00    +0.000 A 
ATOM      2  C   UNL     1      45.873   5.570   9.647  0.00  0.00    +0.000 A 
ATOM      3  N   UNL     1      45.406   6.023  10.854  0.00  0.00    +0.000 N 
ATOM      4  C   UNL     1      44.686   5.031  11.483  0.00  0.00    +0.000 A 
ATOM      5  C   UNL     1      44.047   5.012  12.735  0.00  0.00    +0.000 A 
ATOM      6  C   UNL     1      43.353   3.859  13.113  0.00  0.00    +0.000 A 
ATOM      7  C   UNL     1      43.299   2.758  12.268  0.00  0.00    +0.000 A 
ATOM      8  C   UNL     1      43.940   2.787  11.024  0.00  0.00    +0.000 A 
ATOM      9  C   UNL     1      44.654   3.935  10.610  0.00  0.00    +0.000 A 
ENDROOT
BRANCH   1  11
ATOM     10  C   UNL     1      46.049   1.985   8.527  0.00  0.00    +0.000 C 
ATOM     11  C   UNL     1      45.644   3.437   8.172  0.00  0.00    +0.000 C 
ATOM     12  C   UNL     1      46.789   4.029   7.325  0.00  0.00    +0.000 C 
ATOM     13  C   UNL     1      44.366   3.351   7.315  0.00  0.00    +0.000 C 
ENDBRANCH   1  11
BRANCH   3  14
ATOM     14  C   UNL     1      45.635   7.373  11.365  0.00  0.00    +0.000 C 
BRANCH  14  15
ATOM     15  C   UNL     1      46.698   7.367  12.427  0.00  0.00    +0.000 A 
ATOM     16  C   UNL     1      46.836   8.413  13.341  0.00  0.00    +0.000 A 
ATOM     17  C   UNL     1      47.924   8.438  14.209  0.00  0.00    +0.000 A 
ATOM     18  C   UNL     1      48.852   7.403  14.156  0.00  0.00    +0.000 A 
ATOM     19  N   UNL     1      48.709   6.349  13.318  0.00  0.00    +0.000 NA
ATOM     20  C   UNL     1      47.649   6.355  12.478  0.00  0.00    +0.000 A 
BRANCH  18  21
ATOM     21  C   UNL     1      50.113   7.459  14.979  0.00  0.00    +0.000 C 
BRANCH  21  22
ATOM     22  C   UNL     1      49.948   6.665  16.279  0.00  0.00    +0.000 C 
BRANCH  22  23
ATOM     23  N   UNL     1      49.033   5.534  16.110  0.00  0.00    +0.000 NA
ATOM     24  H   UNL     1      48.415   5.464  16.918  0.00  0.00    +0.000 HD
ATOM     25  H   UNL     1      49.572   4.670  16.084  0.00  0.00    +0.000 HD
ENDBRANCH  22  23
ENDBRANCH  21  22
ENDBRANCH  18  21
ENDBRANCH  14  15
ENDBRANCH   3  14
TORSDOF 6
ENDMDL
MODEL 5
REMARK VINA RESULT:    -5.732      4.217      7.128
REMARK INTER + INTRA:          -8.434
REMARK INTER:                  -7.762
REMARK INTRA:                  -0.672
REMARK UNBOUND:                -0.858
REMARK  Name = 
REMARK  9 active torsions:
REMARK  status: ('A' for Active; 'I' for Inactive)
REMARK    1  A    between atoms: C_1  and  C_2
REMARK    2  A    between atoms: C_2  and  C_3
REMARK    3  A    between atoms: C_2  and  C_4
REMARK    4  A    between atoms: C_2  and  C_5
REMARK    5  A    between atoms: N_7  and  C_8
REMARK    6  A    between atoms: C_8  and  C_9
REMARK    7  A    between atoms: C_12  and  C_13
REMARK    8  A    between atoms: C_13  and  C_14
REMARK    9  A    between atoms: C_14  and  N_15
REMARK                            x       y       z     vdW  Elec       q    Type
REMARK                         _______ _______ _______ _____ _____    ______ ____
ROOT
ATOM      1  C   UNL     1      48.168   6.687  13.546  0.00  0.00    +0.000 A 
ATOM      2  C   UNL     1      48.187   6.059  14.781  0.00  0.00    +0.000 A 
ATOM      3  N   UNL     1      47.156   5.157  14.850  0.00  0.00    +0.000 N 
ATOM      4  C   UNL     1      46.484   5.120  13.648  0.00  0.00    +0.000 A 
ATOM      5  C   UNL     1      45.392   4.340  13.230  0.00  0.00    +0.000 A 
ATOM      6  C   UNL     1      44.886   4.533  11.942  0.00  0.00    +0.000 A 
ATOM      7  C   UNL     1      45.455   5.476  11.095  0.00  0.00    +0.000 A 
ATOM      8  C   UNL     1      46.544   6.247  11.519  0.00  0.00    +0.000 A 
ATOM      9  C   UNL     1      47.082   6.075  12.816  0.00  0.00    +0.000 A 
ENDROOT
BRANCH   1  11
ATOM     10  C   UNL     1      48.346   9.124  12.810  0.00  0.00    +0.000 C 
ATOM     11  C   UNL     1      49.110   7.804  13.083  0.00  0.00    +0.000 C 
ATOM     12  C   UNL     1      49.815   7.412  11.768  0.00  0.00    +0.000 C 
ATOM     13  C   UNL     1      50.169   8.111  14.160  0.00  0.00    +0.000 C 
ENDBRANCH   1  11
BRANCH   3  14
ATOM     14  C   UNL     1      46.828   4.380  16.043  0.00  0.00    +0.000 C 
BRANCH  14  15
ATOM     15  C   UNL     1      48.031   3.620  16.529  0.00  0.00    +0.000 A 
ATOM     16  C   UNL     1      48.886   4.138  17.504  0.00  0.00    +0.000 A 
ATOM     17  C   UNL     1      50.068   3.470  17.816  0.00  0.00    +0.000 A 
ATOM     18  C   UNL     1      50.365   2.284  17.153  0.00  0.00    +0.000 A 
ATOM     19  N   UNL     1      49.525   1.733  16.246  0.00  0.00    +0.000 NA
ATOM     20  C   UNL     1      48.389   2.408  15.954  0.00  0.00    +0.000 A 
BRANCH  18  21
ATOM     21  C   UNL     1      51.693   1.601  17.360  0.00  0.00    +0.000 C 
BRANCH  21  22
ATOM     22  C   UNL     1      52.735   2.590  17.893  0.00  0.00    +0.000 C 
BRANCH  22  23
ATOM     23  N   UNL     1      53.349   2.112  19.134  0.00  0.00    +0.000 NA
ATOM     24  H   UNL     1      53.002   2.654  19.924  0.00  0.00    +0.000 HD
ATOM     25  H   UNL     1      54.354   2.274  19.092  0.00  0.00    +0.000 HD
ENDBRANCH  22  23
ENDBRANCH  21  22
ENDBRANCH  18  21
ENDBRANCH  14  15
ENDBRANCH   3  14
TORSDOF 6
ENDMDL
MODEL 6
REMARK VINA RESULT:    -5.592      3.860      8.093
REMARK INTER + INTRA:          -8.247
REMARK INTER:                  -7.369
REMARK INTRA:                  -0.879
REMARK UNBOUND:                -0.858
REMARK  Name = 
REMARK  9 active torsions:
REMARK  status: ('A' for Active; 'I' for Inactive)
REMARK    1  A    between atoms: C_1  and  C_2
REMARK    2  A    between atoms: C_2  and  C_3
REMARK    3  A    between atoms: C_2  and  C_4
REMARK    4  A    between atoms: C_2  and  C_5
REMARK    5  A    between atoms: N_7  and  C_8
REMARK    6  A    between atoms: C_8  and  C_9
REMARK    7  A    between atoms: C_12  and  C_13
REMARK    8  A    between atoms: C_13  and  C_14
REMARK    9  A    between atoms: C_14  and  N_15
REMARK                            x       y       z     vdW  Elec       q    Type
REMARK                         _______ _______ _______ _____ _____    ______ ____
ROOT
ATOM      1  C   UNL     1      45.182   4.715  12.507  0.00  0.00    +0.000 A 
ATOM      2  C   UNL     1      45.787   3.916  13.464  0.00  0.00    +0.000 A 
ATOM      3  N   UNL     1      46.939   4.518  13.899  0.00  0.00    +0.000 N 
ATOM      4  C   UNL     1      47.082   5.749  13.298  0.00  0.00    +0.000 A 
ATOM      5  C   UNL     1      48.073   6.735  13.446  0.00  0.00    +0.000 A 
ATOM      6  C   UNL     1      47.982   7.896  12.674  0.00  0.00    +0.000 A 
ATOM      7  C   UNL     1      46.931   8.070  11.782  0.00  0.00    +0.000 A 
ATOM      8  C   UNL     1      45.948   7.083  11.643  0.00  0.00    +0.000 A 
ATOM      9  C   UNL     1      46.009   5.896  12.410  0.00  0.00    +0.000 A 
ENDROOT
BRANCH   1  11
ATOM     10  C   UNL     1      44.124   4.507  10.195  0.00  0.00    +0.000 C 
ATOM     11  C   UNL     1      43.908   4.383  11.723  0.00  0.00    +0.000 C 
ATOM     12  C   UNL     1      42.770   5.356  12.097  0.00  0.00    +0.000 C 
ATOM     13  C   UNL     1      43.454   2.936  11.999  0.00  0.00    +0.000 C 
ENDBRANCH   1  11
BRANCH   3  14
ATOM     14  C   UNL     1      47.871   3.911  14.847  0.00  0.00    +0.000 C 
BRANCH  14  15
ATOM     15  C   UNL     1      47.787   4.592  16.185  0.00  0.00    +0.000 A 
ATOM     16  C   UNL     1      48.705   5.569  16.575  0.00  0.00    +0.000 A 
ATOM     17  C   UNL     1      48.681   6.064  17.877  0.00  0.00    +0.000 A 
ATOM     18  C   UNL     1      47.725   5.580  18.763  0.00  0.00    +0.000 A 
ATOM     19  N   UNL     1      46.790   4.675  18.392  0.00  0.00    +0.000 NA
ATOM     20  C   UNL     1      46.842   4.202  17.126  0.00  0.00    +0.000 A 
BRANCH  18  21
ATOM     21  C   UNL     1      47.749   5.985  20.215  0.00  0.00    +0.000 C 
BRANCH  21  22
ATOM     22  C   UNL     1      48.652   5.049  21.025  0.00  0.00    +0.000 C 
BRANCH  22  23
ATOM     23  N   UNL     1      48.486   3.652  20.618  0.00  0.00    +0.000 NA
ATOM     24  H   UNL     1      47.562   3.319  20.888  0.00  0.00    +0.000 HD
ATOM     25  H   UNL     1      49.159   3.076  21.123  0.00  0.00    +0.000 HD
ENDBRANCH  22  23
ENDBRANCH  21  22
ENDBRANCH  18  21
ENDBRANCH  14  15
ENDBRANCH   3  14
TORSDOF 6
ENDMDL
MODEL 7
REMARK VINA RESULT:    -5.363      3.661      8.070
REMARK INTER + INTRA:          -7.945
REMARK INTER:                  -7.067
REMARK INTRA:                  -0.878
REMARK UNBOUND:                -0.858
REMARK  Name = 
REMARK  9 active torsions:
REMARK  status: ('A' for Active; 'I' for Inactive)
REMARK    1  A    between atoms: C_1  and  C_2
REMARK    2  A    between atoms: C_2  and  C_3
REMARK    3  A    between atoms: C_2  and  C_4
REMARK    4  A    between atoms: C_2  and  C_5
REMARK    5  A    between atoms: N_7  and  C_8
REMARK    6  A    between atoms: C_8  and  C_9
REMARK    7  A    between atoms: C_12  and  C_13
REMARK    8  A    between atoms: C_13  and  C_14
REMARK    9  A    between atoms: C_14  and  N_15
REMARK                            x       y       z     vdW  Elec       q    Type
REMARK                         _______ _______ _______ _____ _____    ______ ____
ROOT
ATOM      1  C   UNL     1      45.478   5.707  12.357  0.00  0.00    +0.000 A 
ATOM      2  C   UNL     1      46.632   5.434  13.074  0.00  0.00    +0.000 A 
ATOM      3  N   UNL     1      47.335   6.596  13.266  0.00  0.00    +0.000 N 
ATOM      4  C   UNL     1      46.633   7.661  12.746  0.00  0.00    +0.000 A 
ATOM      5  C   UNL     1      46.928   9.036  12.729  0.00  0.00    +0.000 A 
ATOM      6  C   UNL     1      46.034   9.903  12.096  0.00  0.00    +0.000 A 
ATOM      7  C   UNL     1      44.879   9.414  11.500  0.00  0.00    +0.000 A 
ATOM      8  C   UNL     1      44.593   8.044  11.523  0.00  0.00    +0.000 A 
ATOM      9  C   UNL     1      45.475   7.138  12.157  0.00  0.00    +0.000 A 
ENDROOT
BRANCH   1  11
ATOM     10  C   UNL     1      44.245   4.739  10.344  0.00  0.00    +0.000 C 
ATOM     11  C   UNL     1      44.445   4.681  11.879  0.00  0.00    +0.000 C 
ATOM     12  C   UNL     1      43.069   4.953  12.523  0.00  0.00    +0.000 C 
ATOM     13  C   UNL     1      44.895   3.247  12.221  0.00  0.00    +0.000 C 
ENDBRANCH   1  11
BRANCH   3  14
ATOM     14  C   UNL     1      48.645   6.662  13.911  0.00  0.00    +0.000 C 
BRANCH  14  15
ATOM     15  C   UNL     1      48.504   6.616  15.406  0.00  0.00    +0.000 A 
ATOM     16  C   UNL     1      48.643   7.759  16.196  0.00  0.00    +0.000 A 
ATOM     17  C   UNL     1      48.654   7.647  17.585  0.00  0.00    +0.000 A 
ATOM     18  C   UNL     1      48.511   6.388  18.159  0.00  0.00    +0.000 A 
ATOM     19  N   UNL     1      48.318   5.273  17.415  0.00  0.00    +0.000 NA
ATOM     20  C   UNL     1      48.322   5.409  16.069  0.00  0.00    +0.000 A 
BRANCH  18  21
ATOM     21  C   UNL     1      48.654   6.202  19.648  0.00  0.00    +0.000 C 
BRANCH  21  22
ATOM     22  C   UNL     1      49.330   4.864  19.965  0.00  0.00    +0.000 C 
BRANCH  22  23
ATOM     23  N   UNL     1      48.357   3.854  20.388  0.00  0.00    +0.000 NA
ATOM     24  H   UNL     1      47.565   4.305  20.844  0.00  0.00    +0.000 HD
ATOM     25  H   UNL     1      48.787   3.250  21.088  0.00  0.00    +0.000 HD
ENDBRANCH  22  23
ENDBRANCH  21  22
ENDBRANCH  18  21
ENDBRANCH  14  15
ENDBRANCH   3  14
TORSDOF 6
ENDMDL
MODEL 8
REMARK VINA RESULT:    -5.155      1.514      2.340
REMARK INTER + INTRA:          -7.671
REMARK INTER:                  -6.971
REMARK INTRA:                  -0.700
REMARK UNBOUND:                -0.858
REMARK  Name = 
REMARK  9 active torsions:
REMARK  status: ('A' for Active; 'I' for Inactive)
REMARK    1  A    between atoms: C_1  and  C_2
REMARK    2  A    between atoms: C_2  and  C_3
REMARK    3  A    between atoms: C_2  and  C_4
REMARK    4  A    between atoms: C_2  and  C_5
REMARK    5  A    between atoms: N_7  and  C_8
REMARK    6  A    between atoms: C_8  and  C_9
REMARK    7  A    between atoms: C_12  and  C_13
REMARK    8  A    between atoms: C_13  and  C_14
REMARK    9  A    between atoms: C_14  and  N_15
REMARK                            x       y       z     vdW  Elec       q    Type
REMARK                         _______ _______ _______ _____ _____    ______ ____
ROOT
ATOM      1  C   UNL     1      47.476   8.038  13.104  0.00  0.00    +0.000 A 
ATOM      2  C   UNL     1      46.319   7.925  12.348  0.00  0.00    +0.000 A 
ATOM      3  N   UNL     1      45.721   6.719  12.609  0.00  0.00    +0.000 N 
ATOM      4  C   UNL     1      46.423   6.047  13.584  0.00  0.00    +0.000 A 
ATOM      5  C   UNL     1      46.185   4.805  14.197  0.00  0.00    +0.000 A 
ATOM      6  C   UNL     1      47.095   4.346  15.154  0.00  0.00    +0.000 A 
ATOM      7  C   UNL     1      48.208   5.105  15.490  0.00  0.00    +0.000 A 
ATOM      8  C   UNL     1      48.436   6.342  14.875  0.00  0.00    +0.000 A 
ATOM      9  C   UNL     1      47.535   6.837  13.904  0.00  0.00    +0.000 A 
ENDROOT
BRANCH   1  11
ATOM     10  C   UNL     1      47.998  10.333  12.119  0.00  0.00    +0.000 C 
ATOM     11  C   UNL     1      48.471   9.202  13.066  0.00  0.00    +0.000 C 
ATOM     12  C   UNL     1      49.845   8.728  12.549  0.00  0.00    +0.000 C 
ATOM     13  C   UNL     1      48.640   9.827  14.465  0.00  0.00    +0.000 C 
ENDBRANCH   1  11
BRANCH   3  14
ATOM     14  C   UNL     1      44.525   6.234  11.921  0.00  0.00    +0.000 C 
BRANCH  14  15
ATOM     15  C   UNL     1      44.900   5.374  10.747  0.00  0.00    +0.000 A 
ATOM     16  C   UNL     1      45.886   5.757   9.836  0.00  0.00    +0.000 A 
ATOM     17  C   UNL     1      46.096   5.005   8.683  0.00  0.00    +0.000 A 
ATOM     18  C   UNL     1      45.321   3.870   8.469  0.00  0.00    +0.000 A 
ATOM     19  N   UNL     1      44.399   3.447   9.366  0.00  0.00    +0.000 NA
ATOM     20  C   UNL     1      44.208   4.202  10.472  0.00  0.00    +0.000 A 
BRANCH  18  21
ATOM     21  C   UNL     1      45.419   3.105   7.174  0.00  0.00    +0.000 C 
BRANCH  21  22
ATOM     22  C   UNL     1      46.813   3.258   6.558  0.00  0.00    +0.000 C 
BRANCH  22  23
ATOM     23  N   UNL     1      46.873   2.690   5.209  0.00  0.00    +0.000 NA
ATOM     24  H   UNL     1      46.235   1.899   5.137  0.00  0.00    +0.000 HD
ATOM     25  H   UNL     1      47.809   2.322   5.044  0.00  0.00    +0.000 HD
ENDBRANCH  22  23
ENDBRANCH  21  22
ENDBRANCH  18  21
ENDBRANCH  14  15
ENDBRANCH   3  14
TORSDOF 6
ENDMDL
MODEL 9
REMARK VINA RESULT:    -5.098      3.360      6.778
REMARK INTER + INTRA:          -7.595
REMARK INTER:                  -6.747
REMARK INTRA:                  -0.849
REMARK UNBOUND:                -0.858
REMARK  Name = 
REMARK  9 active torsions:
REMARK  status: ('A' for Active; 'I' for Inactive)
REMARK    1  A    between atoms: C_1  and  C_2
REMARK    2  A    between atoms: C_2  and  C_3
REMARK    3  A    between atoms: C_2  and  C_4
REMARK    4  A    between atoms: C_2  and  C_5
REMARK    5  A    between atoms: N_7  and  C_8
REMARK    6  A    between atoms: C_8  and  C_9
REMARK    7  A    between atoms: C_12  and  C_13
REMARK    8  A    between atoms: C_13  and  C_14
REMARK    9  A    between atoms: C_14  and  N_15
REMARK                            x       y       z     vdW  Elec       q    Type
REMARK                         _______ _______ _______ _____ _____    ______ ____
ROOT
ATOM      1  C   UNL     1      45.336   5.708  12.046  0.00  0.00    +0.000 A 
ATOM      2  C   UNL     1      46.406   5.525  12.907  0.00  0.00    +0.000 A 
ATOM      3  N   UNL     1      46.924   6.746  13.257  0.00  0.00    +0.000 N 
ATOM      4  C   UNL     1      46.170   7.753  12.697  0.00  0.00    +0.000 A 
ATOM      5  C   UNL     1      46.288   9.151  12.793  0.00  0.00    +0.000 A 
ATOM      6  C   UNL     1      45.386   9.948  12.083  0.00  0.00    +0.000 A 
ATOM      7  C   UNL     1      44.394   9.368  11.302  0.00  0.00    +0.000 A 
ATOM      8  C   UNL     1      44.284   7.975  11.214  0.00  0.00    +0.000 A 
ATOM      9  C   UNL     1      45.178   7.139  11.921  0.00  0.00    +0.000 A 
ENDROOT
BRANCH   1  11
ATOM     10  C   UNL     1      44.770   4.547   9.846  0.00  0.00    +0.000 C 
ATOM     11  C   UNL     1      44.516   4.602  11.372  0.00  0.00    +0.000 C 
ATOM     12  C   UNL     1      43.006   4.848  11.568  0.00  0.00    +0.000 C 
ATOM     13  C   UNL     1      44.887   3.219  11.941  0.00  0.00    +0.000 C 
ENDBRANCH   1  11
BRANCH   3  14
ATOM     14  C   UNL     1      48.114   6.922  14.086  0.00  0.00    +0.000 C 
BRANCH  14  15
ATOM     15  C   UNL     1      49.227   7.548  13.292  0.00  0.00    +0.000 A 
ATOM     16  C   UNL     1      49.448   7.226  11.951  0.00  0.00    +0.000 A 
ATOM     17  C   UNL     1      50.578   7.713  11.298  0.00  0.00    +0.000 A 
ATOM     18  C   UNL     1      51.461   8.528  11.998  0.00  0.00    +0.000 A 
ATOM     19  N   UNL     1      51.238   8.899  13.280  0.00  0.00    +0.000 NA
ATOM     20  C   UNL     1      50.140   8.404  13.894  0.00  0.00    +0.000 A 
BRANCH  18  21
ATOM     21  C   UNL     1      52.762   8.964  11.374  0.00  0.00    +0.000 C 
BRANCH  21  22
ATOM     22  C   UNL     1      53.789   7.828  11.411  0.00  0.00    +0.000 C 
BRANCH  22  23
ATOM     23  N   UNL     1      53.977   7.312  12.769  0.00  0.00    +0.000 NA
ATOM     24  H   UNL     1      54.406   6.388  12.733  0.00  0.00    +0.000 HD
ATOM     25  H   UNL     1      53.065   7.189  13.207  0.00  0.00    +0.000 HD
ENDBRANCH  22  23
ENDBRANCH  21  22
ENDBRANCH  18  21
ENDBRANCH  14  15
ENDBRANCH   3  14
TORSDOF 6
ENDMDL
