MODEL 1
REMARK VINA RESULT:    -8.814      0.000      0.000
REMARK INTER + INTRA:         -12.058
REMARK INTER:                 -11.390
REMARK INTRA:                  -0.667
REMARK UNBOUND:                -0.667
REMARK  Name = 
REMARK  7 active torsions:
REMARK  status: ('A' for Active; 'I' for Inactive)
REMARK    1  A    between atoms: C_1  and  C_2
REMARK    2  A    between atoms: C_10  and  C_11
REMARK    3  A    between atoms: C_11  and  C_12
REMARK    4  A    between atoms: C_11  and  C_13
REMARK    5  A    between atoms: C_13  and  N_14
REMARK    6  A    between atoms: N_14  and  C_15
REMARK    7  A    between atoms: C_18  and  C_19
REMARK                            x       y       z     vdW  Elec       q    Type
REMARK                         _______ _______ _______ _____ _____    ______ ____
ROOT
ATOM      1  C   UNL     1      44.878   4.923  12.171  0.00  0.00    +0.000 C 
ATOM      2  C   UNL     1      43.820   4.426  13.169  0.00  0.00    +0.000 C 
ENDROOT
BRANCH   1  12
ATOM      3  C   UNL     1      50.697   2.319  17.697  0.00  0.00    +0.000 C 
ATOM      4  C   UNL     1      49.546   3.303  17.505  0.00  0.00    +0.000 C 
ATOM      5  C   UNL     1      50.079   4.650  16.990  0.00  0.00    +0.000 C 
ATOM      6  C   UNL     1      48.947   5.614  16.627  0.00  0.00    +0.000 C 
ATOM      7  N   UNL     1      48.057   4.937  15.703  0.00  0.00    +0.000 N 
ATOM      8  C   UNL     1      47.456   5.653  14.692  0.00  0.00    +0.000 A 
ATOM      9  N   UNL     1      47.867   6.903  14.437  0.00  0.00    +0.000 NA
ATOM     10  C   UNL     1      47.294   7.544  13.405  0.00  0.00    +0.000 A 
ATOM     11  C   UNL     1      46.315   6.996  12.615  0.00  0.00    +0.000 A 
ATOM     12  C   UNL     1      45.935   5.711  12.927  0.00  0.00    +0.000 A 
ATOM     13  N   UNL     1      46.515   5.049  13.952  0.00  0.00    +0.000 NA
ATOM     14  C   UNL     1      47.411   3.732  16.200  0.00  0.00    +0.000 C 
ATOM     15  C   UNL     1      48.497   2.714  16.547  0.00  0.00    +0.000 C 
ENDBRANCH   1  12
BRANCH   1  16
ATOM     16  C   UNL     1      44.169   5.676  11.031  0.00  0.00    +0.000 C 
BRANCH  16  17
ATOM     17  N   UNL     1      43.776   4.787   9.938  0.00  0.00    +0.000 N 
ATOM     18  H   UNL     1      42.826   4.425   9.956  0.00  0.00    +0.000 HD
BRANCH  17  19
ATOM     19  C   UNL     1      44.711   3.999   9.277  0.00  0.00    +0.000 A 
ATOM     20  C   UNL     1      45.639   4.517   8.364  0.00  0.00    +0.000 A 
ATOM     21  C   UNL     1      46.483   3.679   7.629  0.00  0.00    +0.000 A 
ATOM     22  C   UNL     1      46.413   2.295   7.786  0.00  0.00    +0.000 A 
ATOM     23  C   UNL     1      45.491   1.755   8.685  0.00  0.00    +0.000 A 
ATOM     24  C   UNL     1      44.647   2.605   9.417  0.00  0.00    +0.000 A 
BRANCH  22  25
ATOM     25  C   UNL     1      47.297   1.452   6.940  0.00  0.00    +0.000 C 
ATOM     26  N   UNL     1      48.363   2.055   6.337  0.00  0.00    +0.000 N 
ATOM     27  O   UNL     1      47.067   0.262   6.758  0.00  0.00    +0.000 OA
ATOM     28  H   UNL     1      48.453   3.058   6.266  0.00  0.00    +0.000 HD
ATOM     29  H   UNL     1      48.887   1.485   5.687  0.00  0.00    +0.000 HD
ENDBRANCH  22  25
ENDBRANCH  17  19
ENDBRANCH  16  17
ENDBRANCH   1  16
TORSDOF 5
ENDMDL
MODEL 2
REMARK VINA RESULT:    -8.588      2.820      4.378
REMARK INTER + INTRA:         -11.766
REMARK INTER:                 -10.972
REMARK INTRA:                  -0.795
REMARK UNBOUND:                -0.667
REMARK  Name = 
REMARK  7 active torsions:
REMARK  status: ('A' for Active; 'I' for Inactive)
REMARK    1  A    between atoms: C_1  and  C_2
REMARK    2  A    between atoms: C_10  and  C_11
REMARK    3  A    between atoms: C_11  and  C_12
REMARK    4  A    between atoms: C_11  and  C_13
REMARK    5  A    between atoms: C_13  and  N_14
REMARK    6  A    between atoms: N_14  and  C_15
REMARK    7  A    between atoms: C_18  and  C_19
REMARK                            x       y       z     vdW  Elec       q    Type
REMARK                         _______ _______ _______ _____ _____    ______ ____
ROOT
ATOM      1  C   UNL     1      45.584   5.068  12.018  0.00  0.00    +0.000 C 
ATOM      2  C   UNL     1      45.937   4.417  13.366  0.00  0.00    +0.000 C 
ENDROOT
BRANCH   1  12
ATOM      3  C   UNL     1      52.508   9.428   9.961  0.00  0.00    +0.000 C 
ATOM      4  C   UNL     1      51.526   9.155  11.099  0.00  0.00    +0.000 C 
ATOM      5  C   UNL     1      50.396  10.198  11.086  0.00  0.00    +0.000 C 
ATOM      6  C   UNL     1      49.302   9.871  12.104  0.00  0.00    +0.000 C 
ATOM      7  N   UNL     1      48.856   8.510  11.864  0.00  0.00    +0.000 N 
ATOM      8  C   UNL     1      47.529   8.191  12.041  0.00  0.00    +0.000 A 
ATOM      9  N   UNL     1      46.632   9.173  12.211  0.00  0.00    +0.000 NA
ATOM     10  C   UNL     1      45.341   8.820  12.321  0.00  0.00    +0.000 A 
ATOM     11  C   UNL     1      44.898   7.522  12.278  0.00  0.00    +0.000 A 
ATOM     12  C   UNL     1      45.866   6.558  12.102  0.00  0.00    +0.000 A 
ATOM     13  N   UNL     1      47.166   6.901  11.974  0.00  0.00    +0.000 NA
ATOM     14  C   UNL     1      49.861   7.469  12.011  0.00  0.00    +0.000 C 
ATOM     15  C   UNL     1      50.969   7.727  10.990  0.00  0.00    +0.000 C 
ENDBRANCH   1  12
BRANCH   1  16
ATOM     16  C   UNL     1      44.142   4.678  11.643  0.00  0.00    +0.000 C 
BRANCH  16  17
ATOM     17  N   UNL     1      43.916   4.710  10.200  0.00  0.00    +0.000 N 
ATOM     18  H   UNL     1      42.971   4.916   9.886  0.00  0.00    +0.000 HD
BRANCH  17  19
ATOM     19  C   UNL     1      44.691   3.953   9.329  0.00  0.00    +0.000 A 
ATOM     20  C   UNL     1      44.786   2.557   9.408  0.00  0.00    +0.000 A 
ATOM     21  C   UNL     1      45.667   1.841   8.593  0.00  0.00    +0.000 A 
ATOM     22  C   UNL     1      46.484   2.508   7.680  0.00  0.00    +0.000 A 
ATOM     23  C   UNL     1      46.412   3.900   7.589  0.00  0.00    +0.000 A 
ATOM     24  C   UNL     1      45.525   4.610   8.413  0.00  0.00    +0.000 A 
BRANCH  22  25
ATOM     25  C   UNL     1      47.440   1.700   6.879  0.00  0.00    +0.000 C 
ATOM     26  N   UNL     1      48.562   2.323   6.413  0.00  0.00    +0.000 N 
ATOM     27  O   UNL     1      47.222   0.524   6.613  0.00  0.00    +0.000 OA
ATOM     28  H   UNL     1      48.664   3.328   6.403  0.00  0.00    +0.000 HD
ATOM     29  H   UNL     1      49.142   1.782   5.786  0.00  0.00    +0.000 HD
ENDBRANCH  22  25
ENDBRANCH  17  19
ENDBRANCH  16  17
ENDBRANCH   1  16
TORSDOF 5
ENDMDL
MODEL 3
REMARK VINA RESULT:    -8.144      1.900      4.044
REMARK INTER + INTRA:         -11.192
REMARK INTER:                 -10.546
REMARK INTRA:                  -0.646
REMARK UNBOUND:                -0.667
REMARK  Name = 
REMARK  7 active torsions:
REMARK  status: ('A' for Active; 'I' for Inactive)
REMARK    1  A    between atoms: C_1  and  C_2
REMARK    2  A    between atoms: C_10  and  C_11
REMARK    3  A    between atoms: C_11  and  C_12
REMARK    4  A    between atoms: C_11  and  C_13
REMARK    5  A    between atoms: C_13  and  N_14
REMARK    6  A    between atoms: N_14  and  C_15
REMARK    7  A    between atoms: C_18  and  C_19
REMARK                            x       y       z     vdW  Elec       q    Type
REMARK                         _______ _______ _______ _____ _____    ______ ____
ROOT
ATOM      1  C   UNL     1      44.675   4.748  12.815  0.00  0.00    +0.000 C 
ATOM      2  C   UNL     1      44.343   5.933  11.894  0.00  0.00    +0.000 C 
ENDROOT
BRANCH   1  12
ATOM      3  C   UNL     1      49.852  11.388  12.262  0.00  0.00    +0.000 C 
ATOM      4  C   UNL     1      49.801   9.864  12.170  0.00  0.00    +0.000 C 
ATOM      5  C   UNL     1      50.121   9.238  13.537  0.00  0.00    +0.000 C 
ATOM      6  C   UNL     1      49.923   7.721  13.535  0.00  0.00    +0.000 C 
ATOM      7  N   UNL     1      48.581   7.443  13.055  0.00  0.00    +0.000 N 
ATOM      8  C   UNL     1      47.875   6.390  13.590  0.00  0.00    +0.000 A 
ATOM      9  N   UNL     1      48.337   5.778  14.690  0.00  0.00    +0.000 NA
ATOM     10  C   UNL     1      47.587   4.794  15.213  0.00  0.00    +0.000 A 
ATOM     11  C   UNL     1      46.393   4.380  14.680  0.00  0.00    +0.000 A 
ATOM     12  C   UNL     1      45.971   5.045  13.551  0.00  0.00    +0.000 A 
ATOM     13  N   UNL     1      46.708   6.048  13.025  0.00  0.00    +0.000 NA
ATOM     14  C   UNL     1      48.277   7.887  11.704  0.00  0.00    +0.000 C 
ATOM     15  C   UNL     1      48.426   9.408  11.655  0.00  0.00    +0.000 C 
ENDBRANCH   1  12
BRANCH   1  16
ATOM     16  C   UNL     1      44.659   3.454  11.981  0.00  0.00    +0.000 C 
BRANCH  16  17
ATOM     17  N   UNL     1      44.148   3.671  10.629  0.00  0.00    +0.000 N 
ATOM     18  H   UNL     1      43.139   3.650  10.509  0.00  0.00    +0.000 HD
BRANCH  17  19
ATOM     19  C   UNL     1      44.898   3.329   9.510  0.00  0.00    +0.000 A 
ATOM     20  C   UNL     1      45.239   2.008   9.192  0.00  0.00    +0.000 A 
ATOM     21  C   UNL     1      46.093   1.713   8.126  0.00  0.00    +0.000 A 
ATOM     22  C   UNL     1      46.638   2.739   7.354  0.00  0.00    +0.000 A 
ATOM     23  C   UNL     1      46.319   4.065   7.657  0.00  0.00    +0.000 A 
ATOM     24  C   UNL     1      45.461   4.350   8.729  0.00  0.00    +0.000 A 
BRANCH  22  25
ATOM     25  C   UNL     1      47.583   2.369   6.268  0.00  0.00    +0.000 C 
ATOM     26  N   UNL     1      47.448   3.003   5.066  0.00  0.00    +0.000 N 
ATOM     27  O   UNL     1      48.436   1.505   6.426  0.00  0.00    +0.000 OA
ATOM     28  H   UNL     1      46.626   3.536   4.820  0.00  0.00    +0.000 HD
ATOM     29  H   UNL     1      48.033   2.662   4.316  0.00  0.00    +0.000 HD
ENDBRANCH  22  25
ENDBRANCH  17  19
ENDBRANCH  16  17
ENDBRANCH   1  16
TORSDOF 5
ENDMDL
MODEL 4
REMARK VINA RESULT:    -7.949      2.822      7.615
REMARK INTER + INTRA:         -10.939
REMARK INTER:                  -9.964
REMARK INTRA:                  -0.976
REMARK UNBOUND:                -0.667
REMARK  Name = 
REMARK  7 active torsions:
REMARK  status: ('A' for Active; 'I' for Inactive)
REMARK    1  A    between atoms: C_1  and  C_2
REMARK    2  A    between atoms: C_10  and  C_11
REMARK    3  A    between atoms: C_11  and  C_12
REMARK    4  A    between atoms: C_11  and  C_13
REMARK    5  A    between atoms: C_13  and  N_14
REMARK    6  A    between atoms: N_14  and  C_15
REMARK    7  A    between atoms: C_18  and  C_19
REMARK                            x       y       z     vdW  Elec       q    Type
REMARK                         _______ _______ _______ _____ _____    ______ ____
ROOT
ATOM      1  C   UNL     1      45.863   8.098  11.767  0.00  0.00    +0.000 C 
ATOM      2  C   UNL     1      44.902   9.188  12.269  0.00  0.00    +0.000 C 
ENDROOT
BRANCH   1  12
ATOM      3  C   UNL     1      47.157   1.187   7.103  0.00  0.00    +0.000 C 
ATOM      4  C   UNL     1      46.096   2.205   7.514  0.00  0.00    +0.000 C 
ATOM      5  C   UNL     1      45.325   1.701   8.745  0.00  0.00    +0.000 C 
ATOM      6  C   UNL     1      44.363   2.757   9.293  0.00  0.00    +0.000 C 
ATOM      7  N   UNL     1      45.116   3.976   9.524  0.00  0.00    +0.000 N 
ATOM      8  C   UNL     1      44.800   4.775  10.599  0.00  0.00    +0.000 A 
ATOM      9  N   UNL     1      43.962   4.314  11.538  0.00  0.00    +0.000 NA
ATOM     10  C   UNL     1      43.726   5.102  12.600  0.00  0.00    +0.000 A 
ATOM     11  C   UNL     1      44.285   6.344  12.766  0.00  0.00    +0.000 A 
ATOM     12  C   UNL     1      45.136   6.764  11.768  0.00  0.00    +0.000 A 
ATOM     13  N   UNL     1      45.394   5.973  10.704  0.00  0.00    +0.000 NA
ATOM     14  C   UNL     1      45.744   4.575   8.356  0.00  0.00    +0.000 C 
ATOM     15  C   UNL     1      46.746   3.572   7.784  0.00  0.00    +0.000 C 
ENDBRANCH   1  12
BRANCH   1  16
ATOM     16  C   UNL     1      47.157   8.158  12.599  0.00  0.00    +0.000 C 
BRANCH  16  17
ATOM     17  N   UNL     1      47.873   6.883  12.604  0.00  0.00    +0.000 N 
ATOM     18  H   UNL     1      47.991   6.417  11.709  0.00  0.00    +0.000 HD
BRANCH  17  19
ATOM     19  C   UNL     1      47.866   6.056  13.721  0.00  0.00    +0.000 A 
ATOM     20  C   UNL     1      47.223   4.811  13.746  0.00  0.00    +0.000 A 
ATOM     21  C   UNL     1      47.136   4.061  14.922  0.00  0.00    +0.000 A 
ATOM     22  C   UNL     1      47.684   4.544  16.110  0.00  0.00    +0.000 A 
ATOM     23  C   UNL     1      48.323   5.787  16.111  0.00  0.00    +0.000 A 
ATOM     24  C   UNL     1      48.404   6.532  14.926  0.00  0.00    +0.000 A 
BRANCH  22  25
ATOM     25  C   UNL     1      47.514   3.729  17.340  0.00  0.00    +0.000 C 
ATOM     26  N   UNL     1      48.459   3.849  18.318  0.00  0.00    +0.000 N 
ATOM     27  O   UNL     1      46.577   2.950  17.470  0.00  0.00    +0.000 OA
ATOM     28  H   UNL     1      49.356   4.288  18.158  0.00  0.00    +0.000 HD
ATOM     29  H   UNL     1      48.377   3.211  19.096  0.00  0.00    +0.000 HD
ENDBRANCH  22  25
ENDBRANCH  17  19
ENDBRANCH  16  17
ENDBRANCH   1  16
TORSDOF 5
ENDMDL
MODEL 5
REMARK VINA RESULT:    -7.197      4.013      7.483
REMARK INTER + INTRA:          -9.968
REMARK INTER:                  -9.148
REMARK INTRA:                  -0.820
REMARK UNBOUND:                -0.667
REMARK  Name = 
REMARK  7 active torsions:
REMARK  status: ('A' for Active; 'I' for Inactive)
REMARK    1  A    between atoms: C_1  and  C_2
REMARK    2  A    between atoms: C_10  and  C_11
REMARK    3  A    between atoms: C_11  and  C_12
REMARK    4  A    between atoms: C_11  and  C_13
REMARK    5  A    between atoms: C_13  and  N_14
REMARK    6  A    between atoms: N_14  and  C_15
REMARK    7  A    between atoms: C_18  and  C_19
REMARK                            x       y       z     vdW  Elec       q    Type
REMARK                         _______ _______ _______ _____ _____    ______ ____
ROOT
ATOM      1  C   UNL     1      45.492   7.957  11.859  0.00  0.00    +0.000 C 
ATOM      2  C   UNL     1      44.411   8.836  11.209  0.00  0.00    +0.000 C 
ENDROOT
BRANCH   1  12
ATOM      3  C   UNL     1      47.556   1.570   6.747  0.00  0.00    +0.000 C 
ATOM      4  C   UNL     1      46.373   2.361   7.301  0.00  0.00    +0.000 C 
ATOM      5  C   UNL     1      45.826   1.681   8.567  0.00  0.00    +0.000 C 
ATOM      6  C   UNL     1      44.746   2.522   9.250  0.00  0.00    +0.000 C 
ATOM      7  N   UNL     1      45.288   3.850   9.478  0.00  0.00    +0.000 N 
ATOM      8  C   UNL     1      44.937   4.539  10.617  0.00  0.00    +0.000 A 
ATOM      9  N   UNL     1      44.288   3.899  11.600  0.00  0.00    +0.000 NA
ATOM     10  C   UNL     1      44.017   4.592  12.718  0.00  0.00    +0.000 A 
ATOM     11  C   UNL     1      44.357   5.909  12.899  0.00  0.00    +0.000 A 
ATOM     12  C   UNL     1      45.020   6.513  11.854  0.00  0.00    +0.000 A 
ATOM     13  N   UNL     1      45.314   5.821  10.732  0.00  0.00    +0.000 NA
ATOM     14  C   UNL     1      45.684   4.595   8.293  0.00  0.00    +0.000 C 
ATOM     15  C   UNL     1      46.790   3.814   7.584  0.00  0.00    +0.000 C 
ENDBRANCH   1  12
BRANCH   1  16
ATOM     16  C   UNL     1      45.841   8.543  13.240  0.00  0.00    +0.000 C 
BRANCH  16  17
ATOM     17  N   UNL     1      47.144   8.088  13.723  0.00  0.00    +0.000 N 
ATOM     18  H   UNL     1      47.248   7.973  14.728  0.00  0.00    +0.000 HD
BRANCH  17  19
ATOM     19  C   UNL     1      48.312   8.365  13.021  0.00  0.00    +0.000 A 
ATOM     20  C   UNL     1      48.750   9.668  12.751  0.00  0.00    +0.000 A 
ATOM     21  C   UNL     1      49.864   9.907  11.941  0.00  0.00    +0.000 A 
ATOM     22  C   UNL     1      50.565   8.843  11.373  0.00  0.00    +0.000 A 
ATOM     23  C   UNL     1      50.141   7.535  11.622  0.00  0.00    +0.000 A 
ATOM     24  C   UNL     1      49.021   7.306  12.436  0.00  0.00    +0.000 A 
BRANCH  22  25
ATOM     25  C   UNL     1      51.707   9.158  10.477  0.00  0.00    +0.000 C 
ATOM     26  N   UNL     1      52.624   8.173  10.246  0.00  0.00    +0.000 N 
ATOM     27  O   UNL     1      51.848  10.270   9.983  0.00  0.00    +0.000 OA
ATOM     28  H   UNL     1      52.679   7.336  10.810  0.00  0.00    +0.000 HD
ATOM     29  H   UNL     1      53.443   8.443   9.719  0.00  0.00    +0.000 HD
ENDBRANCH  22  25
ENDBRANCH  17  19
ENDBRANCH  16  17
ENDBRANCH   1  16
TORSDOF 5
ENDMDL
MODEL 6
REMARK VINA RESULT:    -6.782      3.410      8.471
REMARK INTER + INTRA:          -9.431
REMARK INTER:                  -8.736
REMARK INTRA:                  -0.695
REMARK UNBOUND:                -0.667
REMARK  Name = 
REMARK  7 active torsions:
REMARK  status: ('A' for Active; 'I' for Inactive)
REMARK    1  A    between atoms: C_1  and  C_2
REMARK    2  A    between atoms: C_10  and  C_11
REMARK    3  A    between atoms: C_11  and  C_12
REMARK    4  A    between atoms: C_11  and  C_13
REMARK    5  A    between atoms: C_13  and  N_14
REMARK    6  A    between atoms: N_14  and  C_15
REMARK    7  A    between atoms: C_18  and  C_19
REMARK                            x       y       z     vdW  Elec       q    Type
REMARK                         _______ _______ _______ _____ _____    ______ ____
ROOT
ATOM      1  C   UNL     1      46.141   8.029  11.867  0.00  0.00    +0.000 C 
ATOM      2  C   UNL     1      45.366   8.962  12.813  0.00  0.00    +0.000 C 
ENDROOT
BRANCH   1  12
ATOM      3  C   UNL     1      47.208   1.391   6.770  0.00  0.00    +0.000 C 
ATOM      4  C   UNL     1      46.152   2.321   7.363  0.00  0.00    +0.000 C 
ATOM      5  C   UNL     1      45.587   1.724   8.663  0.00  0.00    +0.000 C 
ATOM      6  C   UNL     1      44.646   2.694   9.379  0.00  0.00    +0.000 C 
ATOM      7  N   UNL     1      45.348   3.951   9.562  0.00  0.00    +0.000 N 
ATOM      8  C   UNL     1      45.133   4.687  10.704  0.00  0.00    +0.000 A 
ATOM      9  N   UNL     1      44.459   4.139  11.725  0.00  0.00    +0.000 NA
ATOM     10  C   UNL     1      44.322   4.871  12.842  0.00  0.00    +0.000 A 
ATOM     11  C   UNL     1      44.821   6.141  12.988  0.00  0.00    +0.000 A 
ATOM     12  C   UNL     1      45.503   6.651  11.906  0.00  0.00    +0.000 A 
ATOM     13  N   UNL     1      45.662   5.918  10.782  0.00  0.00    +0.000 NA
ATOM     14  C   UNL     1      45.775   4.631   8.349  0.00  0.00    +0.000 C 
ATOM     15  C   UNL     1      46.749   3.717   7.605  0.00  0.00    +0.000 C 
ENDBRANCH   1  12
BRANCH   1  16
ATOM     16  C   UNL     1      47.636   8.087  12.231  0.00  0.00    +0.000 C 
BRANCH  16  17
ATOM     17  N   UNL     1      47.885   8.886  13.429  0.00  0.00    +0.000 N 
ATOM     18  H   UNL     1      48.191   9.845  13.288  0.00  0.00    +0.000 HD
BRANCH  17  19
ATOM     19  C   UNL     1      48.282   8.294  14.623  0.00  0.00    +0.000 A 
ATOM     20  C   UNL     1      48.557   6.925  14.742  0.00  0.00    +0.000 A 
ATOM     21  C   UNL     1      48.837   6.345  15.983  0.00  0.00    +0.000 A 
ATOM     22  C   UNL     1      48.839   7.123  17.141  0.00  0.00    +0.000 A 
ATOM     23  C   UNL     1      48.559   8.488  17.047  0.00  0.00    +0.000 A 
ATOM     24  C   UNL     1      48.279   9.060  15.797  0.00  0.00    +0.000 A 
BRANCH  22  25
ATOM     25  C   UNL     1      49.089   6.443  18.438  0.00  0.00    +0.000 C 
ATOM     26  N   UNL     1      49.339   7.226  19.528  0.00  0.00    +0.000 N 
ATOM     27  O   UNL     1      49.103   5.221  18.531  0.00  0.00    +0.000 OA
ATOM     28  H   UNL     1      49.571   8.207  19.453  0.00  0.00    +0.000 HD
ATOM     29  H   UNL     1      49.607   6.740  20.372  0.00  0.00    +0.000 HD
ENDBRANCH  22  25
ENDBRANCH  17  19
ENDBRANCH  16  17
ENDBRANCH   1  16
TORSDOF 5
ENDMDL
MODEL 7
REMARK VINA RESULT:    -6.773      1.643      2.196
REMARK INTER + INTRA:          -9.420
REMARK INTER:                  -8.962
REMARK INTRA:                  -0.458
REMARK UNBOUND:                -0.667
REMARK  Name = 
REMARK  7 active torsions:
REMARK  status: ('A' for Active; 'I' for Inactive)
REMARK    1  A    between atoms: C_1  and  C_2
REMARK    2  A    between atoms: C_10  and  C_11
REMARK    3  A    between atoms: C_11  and  C_12
REMARK    4  A    between atoms: C_11  and  C_13
REMARK    5  A    between atoms: C_13  and  N_14
REMARK    6  A    between atoms: N_14  and  C_15
REMARK    7  A    between atoms: C_18  and  C_19
REMARK                            x       y       z     vdW  Elec       q    Type
REMARK                         _______ _______ _______ _____ _____    ______ ____
ROOT
ATOM      1  C   UNL     1      46.357   5.077  12.848  0.00  0.00    +0.000 C 
ATOM      2  C   UNL     1      46.543   3.750  13.602  0.00  0.00    +0.000 C 
ENDROOT
BRANCH   1  12
ATOM      3  C   UNL     1      52.044   4.373  19.041  0.00  0.00    +0.000 C 
ATOM      4  C   UNL     1      50.866   5.212  18.551  0.00  0.00    +0.000 C 
ATOM      5  C   UNL     1      51.370   6.387  17.695  0.00  0.00    +0.000 C 
ATOM      6  C   UNL     1      50.220   7.160  17.048  0.00  0.00    +0.000 C 
ATOM      7  N   UNL     1      49.392   6.213  16.324  0.00  0.00    +0.000 N 
ATOM      8  C   UNL     1      48.806   6.594  15.138  0.00  0.00    +0.000 A 
ATOM      9  N   UNL     1      49.181   7.741  14.556  0.00  0.00    +0.000 NA
ATOM     10  C   UNL     1      48.627   8.046  13.371  0.00  0.00    +0.000 A 
ATOM     11  C   UNL     1      47.700   7.256  12.738  0.00  0.00    +0.000 A 
ATOM     12  C   UNL     1      47.354   6.091  13.384  0.00  0.00    +0.000 A 
ATOM     13  N   UNL     1      47.917   5.766  14.569  0.00  0.00    +0.000 NA
ATOM     14  C   UNL     1      48.770   5.165  17.118  0.00  0.00    +0.000 C 
ATOM     15  C   UNL     1      49.878   4.334  17.766  0.00  0.00    +0.000 C 
ENDBRANCH   1  12
BRANCH   1  16
ATOM     16  C   UNL     1      44.875   5.488  12.928  0.00  0.00    +0.000 C 
BRANCH  16  17
ATOM     17  N   UNL     1      44.039   4.729  12.000  0.00  0.00    +0.000 N 
ATOM     18  H   UNL     1      43.308   4.150  12.406  0.00  0.00    +0.000 HD
BRANCH  17  19
ATOM     19  C   UNL     1      44.523   4.314  10.765  0.00  0.00    +0.000 A 
ATOM     20  C   UNL     1      44.502   2.977  10.345  0.00  0.00    +0.000 A 
ATOM     21  C   UNL     1      45.105   2.580   9.149  0.00  0.00    +0.000 A 
ATOM     22  C   UNL     1      45.755   3.515   8.342  0.00  0.00    +0.000 A 
ATOM     23  C   UNL     1      45.795   4.853   8.744  0.00  0.00    +0.000 A 
ATOM     24  C   UNL     1      45.187   5.240   9.948  0.00  0.00    +0.000 A 
BRANCH  22  25
ATOM     25  C   UNL     1      46.425   3.028   7.109  0.00  0.00    +0.000 C 
ATOM     26  N   UNL     1      47.006   1.793   7.149  0.00  0.00    +0.000 N 
ATOM     27  O   UNL     1      46.487   3.715   6.097  0.00  0.00    +0.000 OA
ATOM     28  H   UNL     1      47.185   1.302   8.013  0.00  0.00    +0.000 HD
ATOM     29  H   UNL     1      47.542   1.528   6.334  0.00  0.00    +0.000 HD
ENDBRANCH  22  25
ENDBRANCH  17  19
ENDBRANCH  16  17
ENDBRANCH   1  16
TORSDOF 5
ENDMDL
MODEL 8
REMARK VINA RESULT:    -6.382      3.490      7.820
REMARK INTER + INTRA:          -8.915
REMARK INTER:                  -8.284
REMARK INTRA:                  -0.631
REMARK UNBOUND:                -0.667
REMARK  Name = 
REMARK  7 active torsions:
REMARK  status: ('A' for Active; 'I' for Inactive)
REMARK    1  A    between atoms: C_1  and  C_2
REMARK    2  A    between atoms: C_10  and  C_11
REMARK    3  A    between atoms: C_11  and  C_12
REMARK    4  A    between atoms: C_11  and  C_13
REMARK    5  A    between atoms: C_13  and  N_14
REMARK    6  A    between atoms: N_14  and  C_15
REMARK    7  A    between atoms: C_18  and  C_19
REMARK                            x       y       z     vdW  Elec       q    Type
REMARK                         _______ _______ _______ _____ _____    ______ ____
ROOT
ATOM      1  C   UNL     1      45.497   5.835  13.222  0.00  0.00    +0.000 C 
ATOM      2  C   UNL     1      46.739   5.232  13.900  0.00  0.00    +0.000 C 
ENDROOT
BRANCH   1  12
ATOM      3  C   UNL     1      47.611   2.586   5.728  0.00  0.00    +0.000 C 
ATOM      4  C   UNL     1      46.474   3.258   6.493  0.00  0.00    +0.000 C 
ATOM      5  C   UNL     1      45.562   2.197   7.131  0.00  0.00    +0.000 C 
ATOM      6  C   UNL     1      44.504   2.822   8.042  0.00  0.00    +0.000 C 
ATOM      7  N   UNL     1      45.182   3.673   9.002  0.00  0.00    +0.000 N 
ATOM      8  C   UNL     1      44.701   3.761  10.288  0.00  0.00    +0.000 A 
ATOM      9  N   UNL     1      43.760   2.900  10.701  0.00  0.00    +0.000 NA
ATOM     10  C   UNL     1      43.361   2.984  11.980  0.00  0.00    +0.000 A 
ATOM     11  C   UNL     1      43.855   3.900  12.874  0.00  0.00    +0.000 A 
ATOM     12  C   UNL     1      44.818   4.758  12.393  0.00  0.00    +0.000 A 
ATOM     13  N   UNL     1      45.240   4.673  11.112  0.00  0.00    +0.000 NA
ATOM     14  C   UNL     1      45.941   4.785   8.450  0.00  0.00    +0.000 C 
ATOM     15  C   UNL     1      47.040   4.217   7.553  0.00  0.00    +0.000 C 
ENDBRANCH   1  12
BRANCH   1  16
ATOM     16  C   UNL     1      45.918   7.103  12.457  0.00  0.00    +0.000 C 
BRANCH  16  17
ATOM     17  N   UNL     1      47.017   7.809  13.115  0.00  0.00    +0.000 N 
ATOM     18  H   UNL     1      46.782   8.369  13.931  0.00  0.00    +0.000 HD
BRANCH  17  19
ATOM     19  C   UNL     1      48.142   8.215  12.407  0.00  0.00    +0.000 A 
ATOM     20  C   UNL     1      49.246   7.382  12.185  0.00  0.00    +0.000 A 
ATOM     21  C   UNL     1      50.408   7.861  11.574  0.00  0.00    +0.000 A 
ATOM     22  C   UNL     1      50.496   9.195  11.174  0.00  0.00    +0.000 A 
ATOM     23  C   UNL     1      49.410  10.046  11.392  0.00  0.00    +0.000 A 
ATOM     24  C   UNL     1      48.249   9.555  12.008  0.00  0.00    +0.000 A 
BRANCH  22  25
ATOM     25  C   UNL     1      51.775   9.662  10.579  0.00  0.00    +0.000 C 
ATOM     26  N   UNL     1      51.739  10.780   9.796  0.00  0.00    +0.000 N 
ATOM     27  O   UNL     1      52.825   9.054  10.753  0.00  0.00    +0.000 OA
ATOM     28  H   UNL     1      50.878  11.166   9.436  0.00  0.00    +0.000 HD
ATOM     29  H   UNL     1      52.599  11.016   9.320  0.00  0.00    +0.000 HD
ENDBRANCH  22  25
ENDBRANCH  17  19
ENDBRANCH  16  17
ENDBRANCH   1  16
TORSDOF 5
ENDMDL
MODEL 9
REMARK VINA RESULT:    -6.354      2.744      4.398
REMARK INTER + INTRA:          -8.878
REMARK INTER:                  -8.008
REMARK INTRA:                  -0.871
REMARK UNBOUND:                -0.667
REMARK  Name = 
REMARK  7 active torsions:
REMARK  status: ('A' for Active; 'I' for Inactive)
REMARK    1  A    between atoms: C_1  and  C_2
REMARK    2  A    between atoms: C_10  and  C_11
REMARK    3  A    between atoms: C_11  and  C_12
REMARK    4  A    between atoms: C_11  and  C_13
REMARK    5  A    between atoms: C_13  and  N_14
REMARK    6  A    between atoms: N_14  and  C_15
REMARK    7  A    between atoms: C_18  and  C_19
REMARK                            x       y       z     vdW  Elec       q    Type
REMARK                         _______ _______ _______ _____ _____    ______ ____
ROOT
ATOM      1  C   UNL     1      48.969   9.143  12.465  0.00  0.00    +0.000 C 
ATOM      2  C   UNL     1      49.594  10.110  11.445  0.00  0.00    +0.000 C 
ENDROOT
BRANCH   1  12
ATOM      3  C   UNL     1      49.132   2.620  17.814  0.00  0.00    +0.000 C 
ATOM      4  C   UNL     1      49.276   4.139  17.731  0.00  0.00    +0.000 C 
ATOM      5  C   UNL     1      50.753   4.523  17.546  0.00  0.00    +0.000 C 
ATOM      6  C   UNL     1      50.929   6.021  17.293  0.00  0.00    +0.000 C 
ATOM      7  N   UNL     1      50.076   6.394  16.179  0.00  0.00    +0.000 N 
ATOM      8  C   UNL     1      50.504   7.352  15.289  0.00  0.00    +0.000 A 
ATOM      9  N   UNL     1      51.779   7.765  15.327  0.00  0.00    +0.000 NA
ATOM     10  C   UNL     1      52.169   8.658  14.403  0.00  0.00    +0.000 A 
ATOM     11  C   UNL     1      51.338   9.171  13.440  0.00  0.00    +0.000 A 
ATOM     12  C   UNL     1      50.041   8.709  13.451  0.00  0.00    +0.000 A 
ATOM     13  N   UNL     1      49.640   7.799  14.365  0.00  0.00    +0.000 NA
ATOM     14  C   UNL     1      48.648   6.185  16.365  0.00  0.00    +0.000 C 
ATOM     15  C   UNL     1      48.408   4.693  16.589  0.00  0.00    +0.000 C 
ENDBRANCH   1  12
BRANCH   1  16
ATOM     16  C   UNL     1      48.262   8.008  11.702  0.00  0.00    +0.000 C 
BRANCH  16  17
ATOM     17  N   UNL     1      47.145   7.443  12.457  0.00  0.00    +0.000 N 
ATOM     18  H   UNL     1      47.140   7.604  13.461  0.00  0.00    +0.000 HD
BRANCH  17  19
ATOM     19  C   UNL     1      46.486   6.299  12.024  0.00  0.00    +0.000 A 
ATOM     20  C   UNL     1      45.879   6.196  10.766  0.00  0.00    +0.000 A 
ATOM     21  C   UNL     1      45.123   5.075  10.412  0.00  0.00    +0.000 A 
ATOM     22  C   UNL     1      44.948   4.027  11.317  0.00  0.00    +0.000 A 
ATOM     23  C   UNL     1      45.538   4.111  12.580  0.00  0.00    +0.000 A 
ATOM     24  C   UNL     1      46.294   5.241  12.926  0.00  0.00    +0.000 A 
BRANCH  22  25
ATOM     25  C   UNL     1      44.090   2.886  10.906  0.00  0.00    +0.000 C 
ATOM     26  N   UNL     1      44.518   2.113   9.865  0.00  0.00    +0.000 N 
ATOM     27  O   UNL     1      43.019   2.657  11.455  0.00  0.00    +0.000 OA
ATOM     28  H   UNL     1      45.258   2.400   9.240  0.00  0.00    +0.000 HD
ATOM     29  H   UNL     1      43.870   1.409   9.539  0.00  0.00    +0.000 HD
ENDBRANCH  22  25
ENDBRANCH  17  19
ENDBRANCH  16  17
ENDBRANCH   1  16
TORSDOF 5
ENDMDL
