MODEL 1
REMARK VINA RESULT:    -8.041      0.000      0.000
REMARK INTER + INTRA:         -10.821
REMARK INTER:                 -10.156
REMARK INTRA:                  -0.665
REMARK UNBOUND:                -0.665
REMARK  Name = 
REMARK  5 active torsions:
REMARK  status: ('A' for Active; 'I' for Inactive)
REMARK    1  A    between atoms: N_1  and  C_2
REMARK    2  A    between atoms: C_2  and  C_3
REMARK    3  A    between atoms: C_6  and  C_7
REMARK    4  A    between atoms: C_7  and  N_8
REMARK    5  A    between atoms: C_14  and  C_15
REMARK                            x       y       z     vdW  Elec       q    Type
REMARK                         _______ _______ _______ _____ _____    ______ ____
ROOT
ATOM      1  N   UNL     1      44.281   4.108  11.183  0.00  0.00    +0.000 N 
ATOM      2  C   UNL     1      43.487   3.382  12.031  0.00  0.00    +0.000 A 
ATOM      3  N   UNL     1      43.877   3.492  13.280  0.00  0.00    +0.000 NA
ATOM      4  C   UNL     1      44.972   4.306  13.241  0.00  0.00    +0.000 A 
ATOM      5  N   UNL     1      45.694   4.695  14.313  0.00  0.00    +0.000 NA
ATOM      6  C   UNL     1      46.753   5.490  14.019  0.00  0.00    +0.000 A 
ATOM      7  C   UNL     1      47.128   5.922  12.746  0.00  0.00    +0.000 A 
ATOM      8  C   UNL     1      46.349   5.536  11.649  0.00  0.00    +0.000 A 
ATOM      9  C   UNL     1      45.263   4.704  11.938  0.00  0.00    +0.000 A 
ENDROOT
BRANCH   7  10
ATOM     10  C   UNL     1      48.348   6.759  12.624  0.00  0.00    +0.000 C 
ATOM     11  N   UNL     1      48.455   7.615  11.562  0.00  0.00    +0.000 N 
ATOM     12  O   UNL     1      49.255   6.687  13.445  0.00  0.00    +0.000 OA
ATOM     13  H   UNL     1      47.776   7.735  10.829  0.00  0.00    +0.000 HD
ATOM     14  H   UNL     1      49.312   8.151  11.502  0.00  0.00    +0.000 HD
ENDBRANCH   7  10
BRANCH   1  15
ATOM     15  C   UNL     1      44.018   4.312   9.769  0.00  0.00    +0.000 C 
BRANCH  15  19
ATOM     16  C   UNL     1      46.943   2.299   7.284  0.00  0.00    +0.000 A 
ATOM     17  C   UNL     1      46.777   3.690   7.212  0.00  0.00    +0.000 A 
ATOM     18  C   UNL     1      45.827   4.339   8.006  0.00  0.00    +0.000 A 
ATOM     19  C   UNL     1      45.019   3.612   8.886  0.00  0.00    +0.000 A 
ATOM     20  C   UNL     1      45.173   2.219   8.944  0.00  0.00    +0.000 A 
ATOM     21  C   UNL     1      46.124   1.570   8.152  0.00  0.00    +0.000 A 
BRANCH  16  22
ATOM     22  C   UNL     1      47.986   1.616   6.436  0.00  0.00    +0.000 C 
BRANCH  22  23
ATOM     23  N   UNL     1      48.343   2.431   5.280  0.00  0.00    +0.000 NA
ATOM     24  H   UNL     1      47.928   2.026   4.444  0.00  0.00    +0.000 HD
ATOM     25  H   UNL     1      49.353   2.395   5.152  0.00  0.00    +0.000 HD
ENDBRANCH  22  23
ENDBRANCH  16  22
ENDBRANCH  15  19
ENDBRANCH   1  15
TORSDOF 5
ENDMDL
MODEL 2
REMARK VINA RESULT:    -7.899      2.142      2.383
REMARK INTER + INTRA:         -10.642
REMARK INTER:                 -10.075
REMARK INTRA:                  -0.567
REMARK UNBOUND:                -0.665
REMARK  Name = 
REMARK  5 active torsions:
REMARK  status: ('A' for Active; 'I' for Inactive)
REMARK    1  A    between atoms: N_1  and  C_2
REMARK    2  A    between atoms: C_2  and  C_3
REMARK    3  A    between atoms: C_6  and  C_7
REMARK    4  A    between atoms: C_7  and  N_8
REMARK    5  A    between atoms: C_14  and  C_15
REMARK                            x       y       z     vdW  Elec       q    Type
REMARK                         _______ _______ _______ _____ _____    ______ ____
ROOT
ATOM      1  N   UNL     1      44.998   3.607  11.462  0.00  0.00    +0.000 N 
ATOM      2  C   UNL     1      45.679   2.927  12.435  0.00  0.00    +0.000 A 
ATOM      3  N   UNL     1      46.147   3.733  13.361  0.00  0.00    +0.000 NA
ATOM      4  C   UNL     1      45.768   4.985  12.966  0.00  0.00    +0.000 A 
ATOM      5  N   UNL     1      46.033   6.127  13.634  0.00  0.00    +0.000 NA
ATOM      6  C   UNL     1      45.570   7.250  13.031  0.00  0.00    +0.000 A 
ATOM      7  C   UNL     1      44.863   7.307  11.829  0.00  0.00    +0.000 A 
ATOM      8  C   UNL     1      44.569   6.110  11.167  0.00  0.00    +0.000 A 
ATOM      9  C   UNL     1      45.053   4.945  11.771  0.00  0.00    +0.000 A 
ENDROOT
BRANCH   7  10
ATOM     10  C   UNL     1      44.476   8.642  11.309  0.00  0.00    +0.000 C 
ATOM     11  N   UNL     1      43.239   8.794  10.742  0.00  0.00    +0.000 N 
ATOM     12  O   UNL     1      45.242   9.597  11.369  0.00  0.00    +0.000 OA
ATOM     13  H   UNL     1      42.548   8.072  10.631  0.00  0.00    +0.000 HD
ATOM     14  H   UNL     1      43.022   9.714  10.378  0.00  0.00    +0.000 HD
ENDBRANCH   7  10
BRANCH   1  15
ATOM     15  C   UNL     1      44.238   2.987  10.390  0.00  0.00    +0.000 C 
BRANCH  15  19
ATOM     16  C   UNL     1      46.558   2.681   6.744  0.00  0.00    +0.000 A 
ATOM     17  C   UNL     1      45.935   3.887   7.098  0.00  0.00    +0.000 A 
ATOM     18  C   UNL     1      45.179   3.984   8.269  0.00  0.00    +0.000 A 
ATOM     19  C   UNL     1      45.024   2.877   9.110  0.00  0.00    +0.000 A 
ATOM     20  C   UNL     1      45.632   1.667   8.745  0.00  0.00    +0.000 A 
ATOM     21  C   UNL     1      46.391   1.570   7.575  0.00  0.00    +0.000 A 
BRANCH  16  22
ATOM     22  C   UNL     1      47.389   2.599   5.488  0.00  0.00    +0.000 C 
BRANCH  22  23
ATOM     23  N   UNL     1      48.578   1.781   5.694  0.00  0.00    +0.000 NA
ATOM     24  H   UNL     1      48.660   1.111   4.933  0.00  0.00    +0.000 HD
ATOM     25  H   UNL     1      48.460   1.238   6.548  0.00  0.00    +0.000 HD
ENDBRANCH  22  23
ENDBRANCH  16  22
ENDBRANCH  15  19
ENDBRANCH   1  15
TORSDOF 5
ENDMDL
MODEL 3
REMARK VINA RESULT:    -7.799      1.828      2.425
REMARK INTER + INTRA:         -10.515
REMARK INTER:                 -10.353
REMARK INTRA:                  -0.163
REMARK UNBOUND:                -0.665
REMARK  Name = 
REMARK  5 active torsions:
REMARK  status: ('A' for Active; 'I' for Inactive)
REMARK    1  A    between atoms: N_1  and  C_2
REMARK    2  A    between atoms: C_2  and  C_3
REMARK    3  A    between atoms: C_6  and  C_7
REMARK    4  A    between atoms: C_7  and  N_8
REMARK    5  A    between atoms: C_14  and  C_15
REMARK                            x       y       z     vdW  Elec       q    Type
REMARK                         _______ _______ _______ _____ _____    ______ ____
ROOT
ATOM      1  N   UNL     1      44.096   4.016  10.914  0.00  0.00    +0.000 N 
ATOM      2  C   UNL     1      43.383   5.094  10.462  0.00  0.00    +0.000 A 
ATOM      3  N   UNL     1      43.651   6.182  11.148  0.00  0.00    +0.000 NA
ATOM      4  C   UNL     1      44.560   5.793  12.090  0.00  0.00    +0.000 A 
ATOM      5  N   UNL     1      45.121   6.601  13.014  0.00  0.00    +0.000 NA
ATOM      6  C   UNL     1      45.982   5.979  13.856  0.00  0.00    +0.000 A 
ATOM      7  C   UNL     1      46.323   4.625  13.832  0.00  0.00    +0.000 A 
ATOM      8  C   UNL     1      45.757   3.808  12.846  0.00  0.00    +0.000 A 
ATOM      9  C   UNL     1      44.856   4.435  11.981  0.00  0.00    +0.000 A 
ENDROOT
BRANCH   7  10
ATOM     10  C   UNL     1      47.259   4.122  14.869  0.00  0.00    +0.000 C 
ATOM     11  N   UNL     1      47.640   4.966  15.876  0.00  0.00    +0.000 N 
ATOM     12  O   UNL     1      47.697   2.978  14.831  0.00  0.00    +0.000 OA
ATOM     13  H   UNL     1      47.351   5.924  15.986  0.00  0.00    +0.000 HD
ATOM     14  H   UNL     1      48.298   4.593  16.550  0.00  0.00    +0.000 HD
ENDBRANCH   7  10
BRANCH   1  15
ATOM     15  C   UNL     1      44.135   2.714  10.270  0.00  0.00    +0.000 C 
BRANCH  15  19
ATOM     16  C   UNL     1      46.636   2.652   6.733  0.00  0.00    +0.000 A 
ATOM     17  C   UNL     1      46.446   1.491   7.496  0.00  0.00    +0.000 A 
ATOM     18  C   UNL     1      45.647   1.513   8.642  0.00  0.00    +0.000 A 
ATOM     19  C   UNL     1      45.024   2.695   9.054  0.00  0.00    +0.000 A 
ATOM     20  C   UNL     1      45.231   3.860   8.301  0.00  0.00    +0.000 A 
ATOM     21  C   UNL     1      46.028   3.839   7.152  0.00  0.00    +0.000 A 
BRANCH  16  22
ATOM     22  C   UNL     1      47.484   2.608   5.487  0.00  0.00    +0.000 C 
BRANCH  22  23
ATOM     23  N   UNL     1      48.630   1.721   5.659  0.00  0.00    +0.000 NA
ATOM     24  H   UNL     1      49.415   2.256   6.026  0.00  0.00    +0.000 HD
ATOM     25  H   UNL     1      48.917   1.373   4.745  0.00  0.00    +0.000 HD
ENDBRANCH  22  23
ENDBRANCH  16  22
ENDBRANCH  15  19
ENDBRANCH   1  15
TORSDOF 5
ENDMDL
MODEL 4
REMARK VINA RESULT:    -7.650      1.760      2.533
REMARK INTER + INTRA:         -10.328
REMARK INTER:                  -9.902
REMARK INTRA:                  -0.426
REMARK UNBOUND:                -0.665
REMARK  Name = 
REMARK  5 active torsions:
REMARK  status: ('A' for Active; 'I' for Inactive)
REMARK    1  A    between atoms: N_1  and  C_2
REMARK    2  A    between atoms: C_2  and  C_3
REMARK    3  A    between atoms: C_6  and  C_7
REMARK    4  A    between atoms: C_7  and  N_8
REMARK    5  A    between atoms: C_14  and  C_15
REMARK                            x       y       z     vdW  Elec       q    Type
REMARK                         _______ _______ _______ _____ _____    ______ ____
ROOT
ATOM      1  N   UNL     1      44.443   5.438  11.189  0.00  0.00    +0.000 N 
ATOM      2  C   UNL     1      44.359   6.719  10.712  0.00  0.00    +0.000 A 
ATOM      3  N   UNL     1      45.143   7.541  11.372  0.00  0.00    +0.000 NA
ATOM      4  C   UNL     1      45.747   6.769  12.323  0.00  0.00    +0.000 A 
ATOM      5  N   UNL     1      46.647   7.206  13.228  0.00  0.00    +0.000 NA
ATOM      6  C   UNL     1      47.092   6.254  14.085  0.00  0.00    +0.000 A 
ATOM      7  C   UNL     1      46.709   4.911  14.092  0.00  0.00    +0.000 A 
ATOM      8  C   UNL     1      45.799   4.467  13.125  0.00  0.00    +0.000 A 
ATOM      9  C   UNL     1      45.323   5.443  12.245  0.00  0.00    +0.000 A 
ENDROOT
BRANCH   7  10
ATOM     10  C   UNL     1      47.279   4.028  15.141  0.00  0.00    +0.000 C 
ATOM     11  N   UNL     1      47.339   4.490  16.428  0.00  0.00    +0.000 N 
ATOM     12  O   UNL     1      47.702   2.909  14.872  0.00  0.00    +0.000 OA
ATOM     13  H   UNL     1      47.036   5.395  16.746  0.00  0.00    +0.000 HD
ATOM     14  H   UNL     1      47.756   3.867  17.109  0.00  0.00    +0.000 HD
ENDBRANCH   7  10
BRANCH   1  15
ATOM     15  C   UNL     1      43.818   4.280  10.575  0.00  0.00    +0.000 C 
BRANCH  15  19
ATOM     16  C   UNL     1      46.391   2.412   7.631  0.00  0.00    +0.000 A 
ATOM     17  C   UNL     1      46.199   3.801   7.637  0.00  0.00    +0.000 A 
ATOM     18  C   UNL     1      45.362   4.403   8.579  0.00  0.00    +0.000 A 
ATOM     19  C   UNL     1      44.694   3.631   9.535  0.00  0.00    +0.000 A 
ATOM     20  C   UNL     1      44.872   2.239   9.517  0.00  0.00    +0.000 A 
ATOM     21  C   UNL     1      45.711   1.636   8.575  0.00  0.00    +0.000 A 
BRANCH  16  22
ATOM     22  C   UNL     1      47.314   1.779   6.620  0.00  0.00    +0.000 C 
BRANCH  22  23
ATOM     23  N   UNL     1      48.525   2.572   6.442  0.00  0.00    +0.000 NA
ATOM     24  H   UNL     1      49.292   2.127   6.942  0.00  0.00    +0.000 HD
ATOM     25  H   UNL     1      48.386   3.485   6.873  0.00  0.00    +0.000 HD
ENDBRANCH  22  23
ENDBRANCH  16  22
ENDBRANCH  15  19
ENDBRANCH   1  15
TORSDOF 5
ENDMDL
MODEL 5
REMARK VINA RESULT:    -7.367      1.438      1.967
REMARK INTER + INTRA:          -9.970
REMARK INTER:                  -9.379
REMARK INTRA:                  -0.592
REMARK UNBOUND:                -0.665
REMARK  Name = 
REMARK  5 active torsions:
REMARK  status: ('A' for Active; 'I' for Inactive)
REMARK    1  A    between atoms: N_1  and  C_2
REMARK    2  A    between atoms: C_2  and  C_3
REMARK    3  A    between atoms: C_6  and  C_7
REMARK    4  A    between atoms: C_7  and  N_8
REMARK    5  A    between atoms: C_14  and  C_15
REMARK                            x       y       z     vdW  Elec       q    Type
REMARK                         _______ _______ _______ _____ _____    ______ ____
ROOT
ATOM      1  N   UNL     1      45.546   4.201  11.849  0.00  0.00    +0.000 N 
ATOM      2  C   UNL     1      45.736   3.202  12.768  0.00  0.00    +0.000 A 
ATOM      3  N   UNL     1      46.496   3.592  13.766  0.00  0.00    +0.000 NA
ATOM      4  C   UNL     1      46.825   4.886  13.478  0.00  0.00    +0.000 A 
ATOM      5  N   UNL     1      47.595   5.685  14.246  0.00  0.00    +0.000 NA
ATOM      6  C   UNL     1      47.798   6.926  13.739  0.00  0.00    +0.000 A 
ATOM      7  C   UNL     1      47.284   7.418  12.538  0.00  0.00    +0.000 A 
ATOM      8  C   UNL     1      46.460   6.587  11.770  0.00  0.00    +0.000 A 
ATOM      9  C   UNL     1      46.255   5.299  12.275  0.00  0.00    +0.000 A 
ENDROOT
BRANCH   7  10
ATOM     10  C   UNL     1      47.655   8.797  12.133  0.00  0.00    +0.000 C 
ATOM     11  N   UNL     1      46.664   9.732  11.998  0.00  0.00    +0.000 N 
ATOM     12  O   UNL     1      48.820   9.104  11.909  0.00  0.00    +0.000 OA
ATOM     13  H   UNL     1      45.680   9.575  12.142  0.00  0.00    +0.000 HD
ATOM     14  H   UNL     1      46.955  10.654  11.698  0.00  0.00    +0.000 HD
ENDBRANCH   7  10
BRANCH   1  15
ATOM     15  C   UNL     1      44.637   4.130  10.719  0.00  0.00    +0.000 C 
BRANCH  15  19
ATOM     16  C   UNL     1      46.539   2.852   7.042  0.00  0.00    +0.000 A 
ATOM     17  C   UNL     1      46.055   1.912   7.962  0.00  0.00    +0.000 A 
ATOM     18  C   UNL     1      45.450   2.323   9.153  0.00  0.00    +0.000 A 
ATOM     19  C   UNL     1      45.319   3.682   9.453  0.00  0.00    +0.000 A 
ATOM     20  C   UNL     1      45.820   4.622   8.540  0.00  0.00    +0.000 A 
ATOM     21  C   UNL     1      46.423   4.212   7.347  0.00  0.00    +0.000 A 
BRANCH  16  22
ATOM     22  C   UNL     1      47.170   2.393   5.751  0.00  0.00    +0.000 C 
BRANCH  22  23
ATOM     23  N   UNL     1      48.463   1.761   5.992  0.00  0.00    +0.000 NA
ATOM     24  H   UNL     1      48.790   2.013   6.922  0.00  0.00    +0.000 HD
ATOM     25  H   UNL     1      49.141   2.139   5.332  0.00  0.00    +0.000 HD
ENDBRANCH  22  23
ENDBRANCH  16  22
ENDBRANCH  15  19
ENDBRANCH   1  15
TORSDOF 5
ENDMDL
MODEL 6
REMARK VINA RESULT:    -6.953      2.419      5.888
REMARK INTER + INTRA:          -9.446
REMARK INTER:                  -8.877
REMARK INTRA:                  -0.569
REMARK UNBOUND:                -0.665
REMARK  Name = 
REMARK  5 active torsions:
REMARK  status: ('A' for Active; 'I' for Inactive)
REMARK    1  A    between atoms: N_1  and  C_2
REMARK    2  A    between atoms: C_2  and  C_3
REMARK    3  A    between atoms: C_6  and  C_7
REMARK    4  A    between atoms: C_7  and  N_8
REMARK    5  A    between atoms: C_14  and  C_15
REMARK                            x       y       z     vdW  Elec       q    Type
REMARK                         _______ _______ _______ _____ _____    ______ ____
ROOT
ATOM      1  N   UNL     1      43.914   5.053  11.113  0.00  0.00    +0.000 N 
ATOM      2  C   UNL     1      43.071   4.280  11.866  0.00  0.00    +0.000 A 
ATOM      3  N   UNL     1      43.087   3.023  11.484  0.00  0.00    +0.000 NA
ATOM      4  C   UNL     1      43.961   2.981  10.435  0.00  0.00    +0.000 A 
ATOM      5  N   UNL     1      44.290   1.874   9.737  0.00  0.00    +0.000 NA
ATOM      6  C   UNL     1      45.166   2.088   8.725  0.00  0.00    +0.000 A 
ATOM      7  C   UNL     1      45.733   3.315   8.373  0.00  0.00    +0.000 A 
ATOM      8  C   UNL     1      45.405   4.447   9.128  0.00  0.00    +0.000 A 
ATOM      9  C   UNL     1      44.492   4.242  10.167  0.00  0.00    +0.000 A 
ENDROOT
BRANCH   7  10
ATOM     10  C   UNL     1      46.644   3.353   7.201  0.00  0.00    +0.000 C 
ATOM     11  N   UNL     1      47.548   2.339   7.038  0.00  0.00    +0.000 N 
ATOM     12  O   UNL     1      46.605   4.274   6.393  0.00  0.00    +0.000 OA
ATOM     13  H   UNL     1      47.669   1.550   7.652  0.00  0.00    +0.000 HD
ATOM     14  H   UNL     1      48.167   2.413   6.240  0.00  0.00    +0.000 HD
ENDBRANCH   7  10
BRANCH   1  15
ATOM     15  C   UNL     1      44.231   6.445  11.386  0.00  0.00    +0.000 C 
BRANCH  15  19
ATOM     16  C   UNL     1      48.074   6.974  13.315  0.00  0.00    +0.000 A 
ATOM     17  C   UNL     1      47.687   7.800  12.251  0.00  0.00    +0.000 A 
ATOM     18  C   UNL     1      46.452   7.624  11.622  0.00  0.00    +0.000 A 
ATOM     19  C   UNL     1      45.578   6.616  12.039  0.00  0.00    +0.000 A 
ATOM     20  C   UNL     1      45.974   5.777  13.091  0.00  0.00    +0.000 A 
ATOM     21  C   UNL     1      47.208   5.954  13.723  0.00  0.00    +0.000 A 
BRANCH  16  22
ATOM     22  C   UNL     1      49.402   7.190  13.998  0.00  0.00    +0.000 C 
BRANCH  22  23
ATOM     23  N   UNL     1      49.477   6.450  15.253  0.00  0.00    +0.000 NA
ATOM     24  H   UNL     1      49.383   5.454  15.060  0.00  0.00    +0.000 HD
ATOM     25  H   UNL     1      48.682   6.709  15.836  0.00  0.00    +0.000 HD
ENDBRANCH  22  23
ENDBRANCH  16  22
ENDBRANCH  15  19
ENDBRANCH   1  15
TORSDOF 5
ENDMDL
MODEL 7
REMARK VINA RESULT:    -6.276      4.145      7.681
REMARK INTER + INTRA:          -8.592
REMARK INTER:                  -8.143
REMARK INTRA:                  -0.449
REMARK UNBOUND:                -0.665
REMARK  Name = 
REMARK  5 active torsions:
REMARK  status: ('A' for Active; 'I' for Inactive)
REMARK    1  A    between atoms: N_1  and  C_2
REMARK    2  A    between atoms: C_2  and  C_3
REMARK    3  A    between atoms: C_6  and  C_7
REMARK    4  A    between atoms: C_7  and  N_8
REMARK    5  A    between atoms: C_14  and  C_15
REMARK                            x       y       z     vdW  Elec       q    Type
REMARK                         _______ _______ _______ _____ _____    ______ ____
ROOT
ATOM      1  N   UNL     1      47.467   5.296  15.072  0.00  0.00    +0.000 N 
ATOM      2  C   UNL     1      48.305   6.351  14.821  0.00  0.00    +0.000 A 
ATOM      3  N   UNL     1      48.120   6.848  13.620  0.00  0.00    +0.000 NA
ATOM      4  C   UNL     1      47.138   6.079  13.064  0.00  0.00    +0.000 A 
ATOM      5  N   UNL     1      46.625   6.243  11.826  0.00  0.00    +0.000 NA
ATOM      6  C   UNL     1      45.671   5.340  11.490  0.00  0.00    +0.000 A 
ATOM      7  C   UNL     1      45.196   4.305  12.298  0.00  0.00    +0.000 A 
ATOM      8  C   UNL     1      45.716   4.170  13.590  0.00  0.00    +0.000 A 
ATOM      9  C   UNL     1      46.711   5.086  13.944  0.00  0.00    +0.000 A 
ENDROOT
BRANCH   7  10
ATOM     10  C   UNL     1      44.172   3.391  11.732  0.00  0.00    +0.000 C 
ATOM     11  N   UNL     1      43.740   2.337  12.490  0.00  0.00    +0.000 N 
ATOM     12  O   UNL     1      43.721   3.558  10.604  0.00  0.00    +0.000 OA
ATOM     13  H   UNL     1      44.058   2.106  13.416  0.00  0.00    +0.000 HD
ATOM     14  H   UNL     1      43.059   1.724  12.060  0.00  0.00    +0.000 HD
ENDBRANCH   7  10
BRANCH   1  15
ATOM     15  C   UNL     1      47.324   4.636  16.358  0.00  0.00    +0.000 C 
BRANCH  15  19
ATOM     16  C   UNL     1      50.852   2.339  17.384  0.00  0.00    +0.000 A 
ATOM     17  C   UNL     1      49.805   1.757  16.656  0.00  0.00    +0.000 A 
ATOM     18  C   UNL     1      48.663   2.494  16.333  0.00  0.00    +0.000 A 
ATOM     19  C   UNL     1      48.539   3.828  16.734  0.00  0.00    +0.000 A 
ATOM     20  C   UNL     1      49.579   4.404  17.478  0.00  0.00    +0.000 A 
ATOM     21  C   UNL     1      50.723   3.668  17.800  0.00  0.00    +0.000 A 
BRANCH  16  22
ATOM     22  C   UNL     1      52.088   1.537  17.707  0.00  0.00    +0.000 C 
BRANCH  22  23
ATOM     23  N   UNL     1      51.743   0.188  18.141  0.00  0.00    +0.000 NA
ATOM     24  H   UNL     1      51.254  -0.291  17.388  0.00  0.00    +0.000 HD
ATOM     25  H   UNL     1      51.089   0.250  18.920  0.00  0.00    +0.000 HD
ENDBRANCH  22  23
ENDBRANCH  16  22
ENDBRANCH  15  19
ENDBRANCH   1  15
TORSDOF 5
ENDMDL
MODEL 8
REMARK VINA RESULT:    -6.177      1.934      2.976
REMARK INTER + INTRA:          -8.467
REMARK INTER:                  -7.886
REMARK INTRA:                  -0.581
REMARK UNBOUND:                -0.665
REMARK  Name = 
REMARK  5 active torsions:
REMARK  status: ('A' for Active; 'I' for Inactive)
REMARK    1  A    between atoms: N_1  and  C_2
REMARK    2  A    between atoms: C_2  and  C_3
REMARK    3  A    between atoms: C_6  and  C_7
REMARK    4  A    between atoms: C_7  and  N_8
REMARK    5  A    between atoms: C_14  and  C_15
REMARK                            x       y       z     vdW  Elec       q    Type
REMARK                         _______ _______ _______ _____ _____    ______ ____
ROOT
ATOM      1  N   UNL     1      46.090   5.276  13.268  0.00  0.00    +0.000 N 
ATOM      2  C   UNL     1      46.497   4.251  14.080  0.00  0.00    +0.000 A 
ATOM      3  N   UNL     1      47.565   4.570  14.775  0.00  0.00    +0.000 NA
ATOM      4  C   UNL     1      47.873   5.843  14.389  0.00  0.00    +0.000 A 
ATOM      5  N   UNL     1      48.904   6.575  14.861  0.00  0.00    +0.000 NA
ATOM      6  C   UNL     1      49.018   7.808  14.309  0.00  0.00    +0.000 A 
ATOM      7  C   UNL     1      48.177   8.355  13.337  0.00  0.00    +0.000 A 
ATOM      8  C   UNL     1      47.093   7.595  12.883  0.00  0.00    +0.000 A 
ATOM      9  C   UNL     1      46.973   6.316  13.434  0.00  0.00    +0.000 A 
ENDROOT
BRANCH   7  10
ATOM     10  C   UNL     1      48.492   9.712  12.826  0.00  0.00    +0.000 C 
ATOM     11  N   UNL     1      48.662   9.885  11.479  0.00  0.00    +0.000 N 
ATOM     12  O   UNL     1      48.611  10.668  13.584  0.00  0.00    +0.000 OA
ATOM     13  H   UNL     1      48.601   9.165  10.779  0.00  0.00    +0.000 HD
ATOM     14  H   UNL     1      48.898  10.821  11.172  0.00  0.00    +0.000 HD
ENDBRANCH   7  10
BRANCH   1  15
ATOM     15  C   UNL     1      44.860   5.286  12.495  0.00  0.00    +0.000 C 
BRANCH  15  19
ATOM     16  C   UNL     1      45.479   3.807   8.470  0.00  0.00    +0.000 A 
ATOM     17  C   UNL     1      45.877   5.104   8.825  0.00  0.00    +0.000 A 
ATOM     18  C   UNL     1      45.669   5.585  10.121  0.00  0.00    +0.000 A 
ATOM     19  C   UNL     1      45.055   4.784  11.088  0.00  0.00    +0.000 A 
ATOM     20  C   UNL     1      44.640   3.494  10.726  0.00  0.00    +0.000 A 
ATOM     21  C   UNL     1      44.850   3.010   9.431  0.00  0.00    +0.000 A 
BRANCH  16  22
ATOM     22  C   UNL     1      45.729   3.295   7.073  0.00  0.00    +0.000 C 
BRANCH  22  23
ATOM     23  N   UNL     1      46.837   4.003   6.442  0.00  0.00    +0.000 NA
ATOM     24  H   UNL     1      46.483   4.545   5.656  0.00  0.00    +0.000 HD
ATOM     25  H   UNL     1      47.486   3.319   6.056  0.00  0.00    +0.000 HD
ENDBRANCH  22  23
ENDBRANCH  16  22
ENDBRANCH  15  19
ENDBRANCH   1  15
TORSDOF 5
ENDMDL
MODEL 9
REMARK VINA RESULT:    -6.075      3.580      7.152
REMARK INTER + INTRA:          -8.338
REMARK INTER:                  -7.914
REMARK INTRA:                  -0.424
REMARK UNBOUND:                -0.665
REMARK  Name = 
REMARK  5 active torsions:
REMARK  status: ('A' for Active; 'I' for Inactive)
REMARK    1  A    between atoms: N_1  and  C_2
REMARK    2  A    between atoms: C_2  and  C_3
REMARK    3  A    between atoms: C_6  and  C_7
REMARK    4  A    between atoms: C_7  and  N_8
REMARK    5  A    between atoms: C_14  and  C_15
REMARK                            x       y       z     vdW  Elec       q    Type
REMARK                         _______ _______ _______ _____ _____    ______ ____
ROOT
ATOM      1  N   UNL     1      46.629   6.744  12.299  0.00  0.00    +0.000 N 
ATOM      2  C   UNL     1      46.191   8.042  12.324  0.00  0.00    +0.000 A 
ATOM      3  N   UNL     1      44.923   8.137  11.997  0.00  0.00    +0.000 NA
ATOM      4  C   UNL     1      44.525   6.857  11.736  0.00  0.00    +0.000 A 
ATOM      5  N   UNL     1      43.282   6.486  11.367  0.00  0.00    +0.000 NA
ATOM      6  C   UNL     1      43.135   5.157  11.142  0.00  0.00    +0.000 A 
ATOM      7  C   UNL     1      44.132   4.187  11.268  0.00  0.00    +0.000 A 
ATOM      8  C   UNL     1      45.408   4.585  11.684  0.00  0.00    +0.000 A 
ATOM      9  C   UNL     1      45.575   5.956  11.905  0.00  0.00    +0.000 A 
ENDROOT
BRANCH   7  10
ATOM     10  C   UNL     1      43.784   2.782  10.937  0.00  0.00    +0.000 C 
ATOM     11  N   UNL     1      44.434   2.171   9.898  0.00  0.00    +0.000 N 
ATOM     12  O   UNL     1      42.927   2.172  11.566  0.00  0.00    +0.000 OA
ATOM     13  H   UNL     1      45.138   2.590   9.314  0.00  0.00    +0.000 HD
ATOM     14  H   UNL     1      44.152   1.221   9.689  0.00  0.00    +0.000 HD
ENDBRANCH   7  10
BRANCH   1  15
ATOM     15  C   UNL     1      47.934   6.298  12.756  0.00  0.00    +0.000 C 
BRANCH  15  19
ATOM     16  C   UNL     1      47.989   5.081  16.914  0.00  0.00    +0.000 A 
ATOM     17  C   UNL     1      47.273   4.342  15.961  0.00  0.00    +0.000 A 
ATOM     18  C   UNL     1      47.247   4.739  14.621  0.00  0.00    +0.000 A 
ATOM     19  C   UNL     1      47.931   5.886  14.205  0.00  0.00    +0.000 A 
ATOM     20  C   UNL     1      48.631   6.634  15.163  0.00  0.00    +0.000 A 
ATOM     21  C   UNL     1      48.660   6.236  16.503  0.00  0.00    +0.000 A 
BRANCH  16  22
ATOM     22  C   UNL     1      48.025   4.627  18.352  0.00  0.00    +0.000 C 
BRANCH  22  23
ATOM     23  N   UNL     1      47.657   3.221  18.471  0.00  0.00    +0.000 NA
ATOM     24  H   UNL     1      48.486   2.646  18.336  0.00  0.00    +0.000 HD
ATOM     25  H   UNL     1      47.012   2.985  17.719  0.00  0.00    +0.000 HD
ENDBRANCH  22  23
ENDBRANCH  16  22
ENDBRANCH  15  19
ENDBRANCH   1  15
TORSDOF 5
ENDMDL
